 LSTC 50th% Full_FE H-III Dummy (Beta Version, February 17, 2019)        
                    ls-dyna smp s R16 R16.0_619_d222963 date 03/18/2025

{BEGIN LEGEND}
 Entity #        Title
    22626                                                                                     
{END LEGEND}




 n o d a l   p r i n t   o u t   f o r   t i m e  s t e p       1                              ( at time 0.0000000E+00 )

 nodal point  x-disp     y-disp      z-disp      x-vel       y-vel       z-vel      x-accl      y-accl      z-accl      x-coor      y-coor      z-coor
    22626  0.00000E+00 0.00000E+00 0.00000E+00 0.00000E+00 0.00000E+00 0.00000E+00 0.00000E+00 0.00000E+00 0.00000E+00 4.65938E+00-2.81908E+01-4.49817E+01



 n o d a l   p r i n t   o u t   f o r   t i m e  s t e p       1                              ( at time 0.0000000E+00 )

 nodal point  x-rot      y-rot       z-rot       x-rot vel   y-rot vel   z-rot vel   x-rot acc   y-rot acc   z-rot acc
    22626  0.00000E+00 0.00000E+00 0.00000E+00 0.00000E+00 0.00000E+00 0.00000E+00 0.00000E+00 0.00000E+00 0.00000E+00



 n o d a l   p r i n t   o u t   f o r   t i m e  s t e p     201                              ( at time 9.9989993E-02 )

 nodal point  x-disp     y-disp      z-disp      x-vel       y-vel       z-vel      x-accl      y-accl      z-accl      x-coor      y-coor      z-coor
    22626  2.73573E-07 1.73567E-06-5.34266E-05 4.19737E-05 2.55504E-04-1.46807E-03 4.19779E-04 2.55530E-03-1.46822E-02 4.65938E+00-2.81908E+01-4.49818E+01



 n o d a l   p r i n t   o u t   f o r   t i m e  s t e p     201                              ( at time 9.9989993E-02 )

 nodal point  x-rot      y-rot       z-rot       x-rot vel   y-rot vel   z-rot vel   x-rot acc   y-rot acc   z-rot acc
    22626 -5.99204E-08-8.38616E-09-5.46077E-09-5.87058E-06-9.69998E-07-9.27228E-07-5.87117E-05-9.70095E-06-9.27321E-06



 n o d a l   p r i n t   o u t   f o r   t i m e  s t e p     401                              ( at time 1.9997999E-01 )

 nodal point  x-disp     y-disp      z-disp      x-vel       y-vel       z-vel      x-accl      y-accl      z-accl      x-coor      y-coor      z-coor
    22626  1.73136E-05 3.61697E-04-6.67526E-04 3.13807E-05 7.80941E-03-1.21514E-02-1.05940E-04 7.55466E-02-1.06844E-01 4.65939E+00-2.81905E+01-4.49824E+01



 n o d a l   p r i n t   o u t   f o r   t i m e  s t e p     401                              ( at time 1.9997999E-01 )

 nodal point  x-rot      y-rot       z-rot       x-rot vel   y-rot vel   z-rot vel   x-rot acc   y-rot acc   z-rot acc
    22626 -2.82062E-06-3.37138E-07-3.34645E-07-3.94193E-05-1.77530E-06-2.30603E-06-3.35521E-04-8.05379E-06-1.37894E-05



 n o d a l   p r i n t   o u t   f o r   t i m e  s t e p     601                              ( at time 2.9996998E-01 )

 nodal point  x-disp     y-disp      z-disp      x-vel       y-vel       z-vel      x-accl      y-accl      z-accl      x-coor      y-coor      z-coor
    22626  2.73126E-05 1.23935E-03-2.33744E-03 4.18831E-04 8.43274E-03-1.92344E-02 3.87489E-03 6.23393E-03-7.08365E-02 4.65940E+00-2.81896E+01-4.49841E+01



 n o d a l   p r i n t   o u t   f o r   t i m e  s t e p     601                              ( at time 2.9996998E-01 )

 nodal point  x-rot      y-rot       z-rot       x-rot vel   y-rot vel   z-rot vel   x-rot acc   y-rot acc   z-rot acc
    22626 -5.38758E-06-3.88815E-07-6.41238E-07-1.53845E-05-5.43516E-06-6.60572E-06 2.40373E-04-3.66023E-05-4.30012E-05



 n o d a l   p r i n t   o u t   f o r   t i m e  s t e p     801                              ( at time 3.9995997E-01 )

 nodal point  x-disp     y-disp      z-disp      x-vel       y-vel       z-vel      x-accl      y-accl      z-accl      x-coor      y-coor      z-coor
    22626  2.57239E-05 2.15766E-03-4.27664E-03-3.16499E-04 1.06778E-02-2.09942E-02-7.35404E-03 2.24526E-02-1.76003E-02 4.65940E+00-2.81887E+01-4.49860E+01



 n o d a l   p r i n t   o u t   f o r   t i m e  s t e p     801                              ( at time 3.9995997E-01 )

 nodal point  x-rot      y-rot       z-rot       x-rot vel   y-rot vel   z-rot vel   x-rot acc   y-rot acc   z-rot acc
    22626 -7.53795E-06-1.24189E-06-9.66332E-07-4.29866E-05-6.16260E-06-1.19363E-06-2.76049E-04-7.27515E-06 5.41263E-05



 n o d a l   p r i n t   o u t   f o r   t i m e  s t e p    1001                              ( at time 4.9994997E-01 )

 nodal point  x-disp     y-disp      z-disp      x-vel       y-vel       z-vel      x-accl      y-accl      z-accl      x-coor      y-coor      z-coor
    22626  2.42402E-06 3.42398E-03-6.72043E-03-2.56953E-04 1.40612E-02-2.84122E-02 5.95516E-04 3.38372E-02-7.41873E-02 4.65938E+00-2.81874E+01-4.49884E+01



 n o d a l   p r i n t   o u t   f o r   t i m e  s t e p    1001                              ( at time 4.9994997E-01 )

 nodal point  x-rot      y-rot       z-rot       x-rot vel   y-rot vel   z-rot vel   x-rot acc   y-rot acc   z-rot acc
    22626 -1.31247E-05-1.16020E-06-8.73633E-07-7.88590E-05 3.13408E-06 4.99658E-06-3.58760E-04 9.29761E-05 6.19083E-05



 n o d a l   p r i n t   o u t   f o r   t i m e  s t e p    1201                              ( at time 5.9993996E-01 )

 nodal point  x-disp     y-disp      z-disp      x-vel       y-vel       z-vel      x-accl      y-accl      z-accl      x-coor      y-coor      z-coor
    22626 -4.67808E-06 4.98295E-03-9.65506E-03 1.40076E-05 1.64295E-02-3.06034E-02 2.70988E-03 2.36857E-02-2.19140E-02 4.65937E+00-2.81858E+01-4.49914E+01



 n o d a l   p r i n t   o u t   f o r   t i m e  s t e p    1201                              ( at time 5.9993996E-01 )

 nodal point  x-rot      y-rot       z-rot       x-rot vel   y-rot vel   z-rot vel   x-rot acc   y-rot acc   z-rot acc
    22626 -1.91885E-05-8.69880E-07-7.75823E-07-5.06867E-05 4.11234E-06-1.00786E-06 2.81751E-04 9.78357E-06-6.00504E-05



 n o d a l   p r i n t   o u t   f o r   t i m e  s t e p    1401                              ( at time 6.9992995E-01 )

 nodal point  x-disp     y-disp      z-disp      x-vel       y-vel       z-vel      x-accl      y-accl      z-accl      x-coor      y-coor      z-coor
    22626 -5.64465E-05 6.79281E-03-1.30678E-02-5.01569E-04 1.93621E-02-3.84626E-02-5.15629E-03 2.93294E-02-7.85998E-02 4.65932E+00-2.81840E+01-4.49948E+01



 n o d a l   p r i n t   o u t   f o r   t i m e  s t e p    1401                              ( at time 6.9992995E-01 )

 nodal point  x-rot      y-rot       z-rot       x-rot vel   y-rot vel   z-rot vel   x-rot acc   y-rot acc   z-rot acc
    22626 -2.40372E-05-8.49185E-07-3.45649E-07-5.70515E-05 5.85765E-07 5.15298E-06-6.36543E-05-3.52693E-05 6.16145E-05



 n o d a l   p r i n t   o u t   f o r   t i m e  s t e p    1601                              ( at time 7.9991994E-01 )

 nodal point  x-disp     y-disp      z-disp      x-vel       y-vel       z-vel      x-accl      y-accl      z-accl      x-coor      y-coor      z-coor
    22626 -8.73348E-05 8.89035E-03-1.72882E-02-5.12050E-04 2.16749E-02-4.41564E-02-1.04819E-04 2.31298E-02-5.69440E-02 4.65929E+00-2.81819E+01-4.49990E+01



 n o d a l   p r i n t   o u t   f o r   t i m e  s t e p    1601                              ( at time 7.9991994E-01 )

 nodal point  x-rot      y-rot       z-rot       x-rot vel   y-rot vel   z-rot vel   x-rot acc   y-rot acc   z-rot acc
    22626 -3.05308E-05-8.33070E-07-4.34245E-08-7.13695E-05-4.96767E-06 3.86282E-06-1.43194E-04-5.55399E-05-1.29028E-05



 n o d a l   p r i n t   o u t   f o r   t i m e  s t e p    1801                              ( at time 8.9990994E-01 )

 nodal point  x-disp     y-disp      z-disp      x-vel       y-vel       z-vel      x-accl      y-accl      z-accl      x-coor      y-coor      z-coor
    22626 -1.28004E-04 1.11022E-02-2.17041E-02-3.49959E-04 2.34296E-02-4.43849E-02 1.62107E-03 1.75488E-02-2.28525E-03 4.65925E+00-2.81797E+01-4.50034E+01



 n o d a l   p r i n t   o u t   f o r   t i m e  s t e p    1801                              ( at time 8.9990994E-01 )

 nodal point  x-rot      y-rot       z-rot       x-rot vel   y-rot vel   z-rot vel   x-rot acc   y-rot acc   z-rot acc
    22626 -3.65543E-05-9.09130E-07 2.28592E-07-5.53832E-05 2.09478E-06 2.11013E-06 1.59879E-04 7.06316E-05-1.75287E-05



 n o d a l   p r i n t   o u t   f o r   t i m e  s t e p    2001                              ( at time 9.9989993E-01 )

 nodal point  x-disp     y-disp      z-disp      x-vel       y-vel       z-vel      x-accl      y-accl      z-accl      x-coor      y-coor      z-coor
    22626 -1.64428E-04 1.35638E-02-2.63087E-02-6.09270E-06 2.55979E-02-4.84707E-02 3.43901E-03 2.16854E-02-4.08620E-02 4.65921E+00-2.81773E+01-4.50080E+01



 n o d a l   p r i n t   o u t   f o r   t i m e  s t e p    2001                              ( at time 9.9989993E-01 )

 nodal point  x-rot      y-rot       z-rot       x-rot vel   y-rot vel   z-rot vel   x-rot acc   y-rot acc   z-rot acc
    22626 -4.24438E-05-8.25951E-07 5.70601E-07-6.96540E-05 1.70884E-06-2.68241E-07-1.42722E-04-3.85973E-06-2.37861E-05



 n o d a l   p r i n t   o u t   f o r   t i m e  s t e p    2201                              ( at time 1.0998899E+00 )

 nodal point  x-disp     y-disp      z-disp      x-vel       y-vel       z-vel      x-accl      y-accl      z-accl      x-coor      y-coor      z-coor
    22626 -1.75300E-04 1.62049E-02-3.14622E-02-4.05341E-04 2.77824E-02-5.42459E-02-3.99288E-03 2.18467E-02-5.77575E-02 4.65920E+00-2.81746E+01-4.50132E+01



 n o d a l   p r i n t   o u t   f o r   t i m e  s t e p    2201                              ( at time 1.0998899E+00 )

 nodal point  x-rot      y-rot       z-rot       x-rot vel   y-rot vel   z-rot vel   x-rot acc   y-rot acc   z-rot acc
    22626 -4.94256E-05-8.98252E-07 6.10721E-07-5.71877E-05-7.29535E-06 1.87123E-06 1.24675E-04-9.00510E-05 2.13969E-05



 n o d a l   p r i n t   o u t   f o r   t i m e  s t e p    2401                              ( at time 1.1998799E+00 )

 nodal point  x-disp     y-disp      z-disp      x-vel       y-vel       z-vel      x-accl      y-accl      z-accl      x-coor      y-coor      z-coor
    22626 -2.07384E-04 1.90296E-02-3.71422E-02-2.21254E-04 2.89648E-02-5.89925E-02 1.84105E-03 1.18252E-02-4.74707E-02 4.65917E+00-2.81718E+01-4.50189E+01



 n o d a l   p r i n t   o u t   f o r   t i m e  s t e p    2401                              ( at time 1.1998799E+00 )

 nodal point  x-rot      y-rot       z-rot       x-rot vel   y-rot vel   z-rot vel   x-rot acc   y-rot acc   z-rot acc
    22626 -5.44333E-05-1.45073E-06 7.51508E-07-4.74403E-05-6.14797E-06 7.25986E-07 9.74836E-05 1.14750E-05-1.14536E-05



 n o d a l   p r i n t   o u t   f o r   t i m e  s t e p    2601                              ( at time 1.2998699E+00 )

 nodal point  x-disp     y-disp      z-disp      x-vel       y-vel       z-vel      x-accl      y-accl      z-accl      x-coor      y-coor      z-coor
    22626 -2.41383E-04 2.20390E-02-4.31633E-02-2.38022E-04 3.10459E-02-6.12489E-02-1.67691E-04 2.08129E-02-2.25668E-02 4.65913E+00-2.81688E+01-4.50249E+01



 n o d a l   p r i n t   o u t   f o r   t i m e  s t e p    2601                              ( at time 1.2998699E+00 )

 nodal point  x-rot      y-rot       z-rot       x-rot vel   y-rot vel   z-rot vel   x-rot acc   y-rot acc   z-rot acc
    22626 -5.95245E-05-1.86054E-06 9.10298E-07-6.46759E-05 1.25628E-06 3.47496E-06-1.72373E-04 7.40499E-05 2.74925E-05



 n o d a l   p r i n t   o u t   f o r   t i m e  s t e p    2801                              ( at time 1.3998599E+00 )

 nodal point  x-disp     y-disp      z-disp      x-vel       y-vel       z-vel      x-accl      y-accl      z-accl      x-coor      y-coor      z-coor
    22626 -2.67990E-04 2.52341E-02-4.93761E-02-3.93317E-04 3.26268E-02-6.37127E-02-1.55310E-03 1.58112E-02-2.46402E-02 4.65911E+00-2.81656E+01-4.50311E+01



 n o d a l   p r i n t   o u t   f o r   t i m e  s t e p    2801                              ( at time 1.3998599E+00 )

 nodal point  x-rot      y-rot       z-rot       x-rot vel   y-rot vel   z-rot vel   x-rot acc   y-rot acc   z-rot acc
    22626 -6.59080E-05-1.62440E-06 1.30426E-06-6.21639E-05 1.22382E-06 5.88374E-06 2.51221E-05-3.24587E-07 2.40903E-05



 n o d a l   p r i n t   o u t   f o r   t i m e  s t e p    3001                              ( at time 1.4998499E+00 )

 nodal point  x-disp     y-disp      z-disp      x-vel       y-vel       z-vel      x-accl      y-accl      z-accl      x-coor      y-coor      z-coor
    22626 -3.09389E-04 2.86329E-02-5.60835E-02-4.35607E-04 3.51986E-02-7.07562E-02-4.22945E-04 2.57207E-02-7.04414E-02 4.65907E+00-2.81622E+01-4.50378E+01



 n o d a l   p r i n t   o u t   f o r   t i m e  s t e p    3001                              ( at time 1.4998499E+00 )

 nodal point  x-rot      y-rot       z-rot       x-rot vel   y-rot vel   z-rot vel   x-rot acc   y-rot acc   z-rot acc
    22626 -7.12312E-05-1.46100E-06 1.77580E-06-4.33767E-05 4.48182E-07 2.02107E-06 1.87892E-04-7.75718E-06-3.86306E-05



 n o d a l   p r i n t   o u t   f o r   t i m e  s t e p    3201                              ( at time 1.5998399E+00 )

 nodal point  x-disp     y-disp      z-disp      x-vel       y-vel       z-vel      x-accl      y-accl      z-accl      x-coor      y-coor      z-coor
    22626 -3.68161E-04 3.23204E-02-6.34560E-02-4.77764E-04 3.83653E-02-7.59152E-02-4.21613E-04 3.16698E-02-5.15957E-02 4.65901E+00-2.81585E+01-4.50452E+01



 n o d a l   p r i n t   o u t   f o r   t i m e  s t e p    3201                              ( at time 1.5998399E+00 )

 nodal point  x-rot      y-rot       z-rot       x-rot vel   y-rot vel   z-rot vel   x-rot acc   y-rot acc   z-rot acc
    22626 -7.49648E-05-1.36287E-06 2.35153E-06-4.11120E-05-3.21865E-07 6.46288E-06 2.26490E-05-7.70123E-06 4.44226E-05



 n o d a l   p r i n t   o u t   f o r   t i m e  s t e p    3401                              ( at time 1.6998299E+00 )

 nodal point  x-disp     y-disp      z-disp      x-vel       y-vel       z-vel      x-accl      y-accl      z-accl      x-coor      y-coor      z-coor
    22626 -4.19510E-04 3.62294E-02-7.12016E-02-6.00446E-04 3.95666E-02-7.85668E-02-1.22694E-03 1.20137E-02-2.65183E-02 4.65896E+00-2.81546E+01-4.50529E+01



 n o d a l   p r i n t   o u t   f o r   t i m e  s t e p    3401                              ( at time 1.6998299E+00 )

 nodal point  x-rot      y-rot       z-rot       x-rot vel   y-rot vel   z-rot vel   x-rot acc   y-rot acc   z-rot acc
    22626 -7.94890E-05-1.02092E-06 2.90582E-06-4.61687E-05 5.37472E-06 7.61741E-06-5.05718E-05 5.69715E-05 1.15465E-05



 n o d a l   p r i n t   o u t   f o r   t i m e  s t e p    3601                              ( at time 1.7998199E+00 )

 nodal point  x-disp     y-disp      z-disp      x-vel       y-vel       z-vel      x-accl      y-accl      z-accl      x-coor      y-coor      z-coor
    22626 -4.74820E-04 4.02122E-02-7.91644E-02-4.91595E-04 4.04822E-02-8.06003E-02 1.08862E-03 9.15761E-03-2.03374E-02 4.65890E+00-2.81506E+01-4.50609E+01



 n o d a l   p r i n t   o u t   f o r   t i m e  s t e p    3601                              ( at time 1.7998199E+00 )

 nodal point  x-rot      y-rot       z-rot       x-rot vel   y-rot vel   z-rot vel   x-rot acc   y-rot acc   z-rot acc
    22626 -8.41607E-05-5.87826E-07 3.35957E-06-4.03630E-05 4.70003E-06 1.84359E-06 5.80624E-05-6.74755E-06-5.77441E-05



 n o d a l   p r i n t   o u t   f o r   t i m e  s t e p    3801                              ( at time 1.8998099E+00 )

 nodal point  x-disp     y-disp      z-disp      x-vel       y-vel       z-vel      x-accl      y-accl      z-accl      x-coor      y-coor      z-coor
    22626 -5.22049E-04 4.44021E-02-8.74054E-02-3.63839E-04 4.30562E-02-8.44369E-02 1.27769E-03 2.57421E-02-3.83694E-02 4.65885E+00-2.81464E+01-4.50691E+01



 n o d a l   p r i n t   o u t   f o r   t i m e  s t e p    3801                              ( at time 1.8998099E+00 )

 nodal point  x-rot      y-rot       z-rot       x-rot vel   y-rot vel   z-rot vel   x-rot acc   y-rot acc   z-rot acc
    22626 -8.76908E-05-4.02716E-08 3.62471E-06-3.26274E-05 2.72724E-06 1.03979E-07 7.73638E-05-1.97298E-05-1.73978E-05



 n o d a l   p r i n t   o u t   f o r   t i m e  s t e p    4001                              ( at time 1.9997999E+00 )

 nodal point  x-disp     y-disp      z-disp      x-vel       y-vel       z-vel      x-accl      y-accl      z-accl      x-coor      y-coor      z-coor
    22626 -5.56786E-04 4.87450E-02-9.60665E-02-4.22360E-04 4.40181E-02-8.85878E-02-5.85271E-04 9.62000E-03-4.15134E-02 4.65882E+00-2.81421E+01-4.50778E+01



 n o d a l   p r i n t   o u t   f o r   t i m e  s t e p    4001                              ( at time 1.9997999E+00 )

 nodal point  x-rot      y-rot       z-rot       x-rot vel   y-rot vel   z-rot vel   x-rot acc   y-rot acc   z-rot acc
    22626 -9.09170E-05 2.03397E-07 3.66689E-06-3.56831E-05 6.64771E-07 7.37924E-08-3.05603E-05-2.06268E-05-3.01898E-07



 n o d a l   p r i n t   o u t   f o r   t i m e  s t e p    4201                              ( at time 2.0997899E+00 )

 nodal point  x-disp     y-disp      z-disp      x-vel       y-vel       z-vel      x-accl      y-accl      z-accl      x-coor      y-coor      z-coor
    22626 -5.98842E-04 5.31808E-02-1.05025E-01-4.73773E-04 4.49442E-02-9.06129E-02-5.14178E-04 9.26218E-03-2.02535E-02 4.65878E+00-2.81376E+01-4.50867E+01



 n o d a l   p r i n t   o u t   f o r   t i m e  s t e p    4201                              ( at time 2.0997899E+00 )

 nodal point  x-rot      y-rot       z-rot       x-rot vel   y-rot vel   z-rot vel   x-rot acc   y-rot acc   z-rot acc
    22626 -9.40376E-05 1.91144E-07 3.53071E-06-2.87637E-05 1.46209E-06 1.24820E-06 6.92013E-05 7.97394E-06 1.17452E-05



 n o d a l   p r i n t   o u t   f o r   t i m e  s t e p    4401                              ( at time 2.1997798E+00 )

 nodal point  x-disp     y-disp      z-disp      x-vel       y-vel       z-vel      x-accl      y-accl      z-accl      x-coor      y-coor      z-coor
    22626 -6.49222E-04 5.77317E-02-1.14151E-01-4.56437E-04 4.57705E-02-9.19431E-02 1.73375E-04 8.26394E-03-1.33028E-02 4.65873E+00-2.81331E+01-4.50959E+01



 n o d a l   p r i n t   o u t   f o r   t i m e  s t e p    4401                              ( at time 2.1997798E+00 )

 nodal point  x-rot      y-rot       z-rot       x-rot vel   y-rot vel   z-rot vel   x-rot acc   y-rot acc   z-rot acc
    22626 -9.71558E-05 4.35307E-07 3.41560E-06-3.54466E-05 2.34793E-06-1.95747E-06-6.68355E-05 8.85934E-06-3.20600E-05



 n o d a l   p r i n t   o u t   f o r   t i m e  s t e p    4601                              ( at time 2.2997698E+00 )

 nodal point  x-disp     y-disp      z-disp      x-vel       y-vel       z-vel      x-accl      y-accl      z-accl      x-coor      y-coor      z-coor
    22626 -6.91408E-04 6.23327E-02-1.23424E-01-4.71306E-04 4.66857E-02-9.41264E-02-1.48705E-04 9.15238E-03-2.18357E-02 4.65868E+00-2.81285E+01-4.51051E+01



 n o d a l   p r i n t   o u t   f o r   t i m e  s t e p    4601                              ( at time 2.2997698E+00 )

 nodal point  x-rot      y-rot       z-rot       x-rot vel   y-rot vel   z-rot vel   x-rot acc   y-rot acc   z-rot acc
    22626 -1.01163E-04 9.30972E-07 3.25360E-06-3.63756E-05 5.79276E-06-2.64230E-06-9.29162E-06 3.44517E-05-6.84895E-06



 n o d a l   p r i n t   o u t   f o r   t i m e  s t e p    4801                              ( at time 2.3997598E+00 )

 nodal point  x-disp     y-disp      z-disp      x-vel       y-vel       z-vel      x-accl      y-accl      z-accl      x-coor      y-coor      z-coor
    22626 -7.56627E-04 6.71185E-02-1.33078E-01-6.54406E-04 4.87315E-02-9.89632E-02-1.83119E-03 2.04602E-02-4.83723E-02 4.65862E+00-2.81237E+01-4.51148E+01



 n o d a l   p r i n t   o u t   f o r   t i m e  s t e p    4801                              ( at time 2.3997598E+00 )

 nodal point  x-rot      y-rot       z-rot       x-rot vel   y-rot vel   z-rot vel   x-rot acc   y-rot acc   z-rot acc
    22626 -1.04688E-04 1.33504E-06 3.33785E-06-3.45578E-05 3.42830E-06 2.61416E-06 1.81797E-05-2.36470E-05 5.25699E-05



 n o d a l   p r i n t   o u t   f o r   t i m e  s t e p    5001                              ( at time 2.4997498E+00 )

 nodal point  x-disp     y-disp      z-disp      x-vel       y-vel       z-vel      x-accl      y-accl      z-accl      x-coor      y-coor      z-coor
    22626 -8.31676E-04 7.20858E-02-1.43134E-01-9.15453E-04 5.00463E-02-1.01442E-01-2.61073E-03 1.31493E-02-2.47924E-02 4.65854E+00-2.81187E+01-4.51249E+01



 n o d a l   p r i n t   o u t   f o r   t i m e  s t e p    5001                              ( at time 2.4997498E+00 )

 nodal point  x-rot      y-rot       z-rot       x-rot vel   y-rot vel   z-rot vel   x-rot acc   y-rot acc   z-rot acc
    22626 -1.08156E-04 1.76832E-06 3.32537E-06-3.37282E-05 5.77518E-06 2.19080E-06 8.29727E-06 2.34712E-05-4.23398E-06



 n o d a l   p r i n t   o u t   f o r   t i m e  s t e p    5201                              ( at time 2.5997398E+00 )

 nodal point  x-disp     y-disp      z-disp      x-vel       y-vel       z-vel      x-accl      y-accl      z-accl      x-coor      y-coor      z-coor
    22626 -9.13749E-04 7.70978E-02-1.53287E-01-8.77136E-04 5.00817E-02-1.01623E-01 3.83207E-04 3.54348E-04-1.80784E-03 4.65846E+00-2.81137E+01-4.51350E+01



 n o d a l   p r i n t   o u t   f o r   t i m e  s t e p    5201                              ( at time 2.5997398E+00 )

 nodal point  x-rot      y-rot       z-rot       x-rot vel   y-rot vel   z-rot vel   x-rot acc   y-rot acc   z-rot acc
    22626 -1.11615E-04 2.54437E-06 3.43387E-06-3.45152E-05 8.60224E-06 2.08266E-06-7.87069E-06 2.82734E-05-1.08154E-06



 n o d a l   p r i n t   o u t   f o r   t i m e  s t e p    5401                              ( at time 2.6997298E+00 )

 nodal point  x-disp     y-disp      z-disp      x-vel       y-vel       z-vel      x-accl      y-accl      z-accl      x-coor      y-coor      z-coor
    22626 -1.00704E-03 8.21064E-02-1.63464E-01-7.98028E-04 5.03927E-02-1.02168E-01 7.91164E-04 3.10996E-03-5.45556E-03 4.65837E+00-2.81087E+01-4.51452E+01



 n o d a l   p r i n t   o u t   f o r   t i m e  s t e p    5401                              ( at time 2.6997298E+00 )

 nodal point  x-rot      y-rot       z-rot       x-rot vel   y-rot vel   z-rot vel   x-rot acc   y-rot acc   z-rot acc
    22626 -1.15839E-04 3.37364E-06 3.74028E-06-4.90183E-05 9.35385E-06 1.18332E-06-1.45045E-04 7.51684E-06-8.99427E-06



 n o d a l   p r i n t   o u t   f o r   t i m e  s t e p    5601                              ( at time 2.7997198E+00 )

 nodal point  x-disp     y-disp      z-disp      x-vel       y-vel       z-vel      x-accl      y-accl      z-accl      x-coor      y-coor      z-coor
    22626 -1.09249E-03 8.71892E-02-1.73754E-01-8.15211E-04 5.10895E-02-1.03854E-01-1.71855E-04 6.96882E-03-1.68549E-02 4.65828E+00-2.81036E+01-4.51555E+01



 n o d a l   p r i n t   o u t   f o r   t i m e  s t e p    5601                              ( at time 2.7997198E+00 )

 nodal point  x-rot      y-rot       z-rot       x-rot vel   y-rot vel   z-rot vel   x-rot acc   y-rot acc   z-rot acc
    22626 -1.19983E-04 4.26412E-06 3.84926E-06-3.25781E-05 6.98374E-06 1.27431E-06 1.64418E-04-2.37036E-05 9.09973E-07



 n o d a l   p r i n t   o u t   f o r   t i m e  s t e p    5801                              ( at time 2.8997098E+00 )

 nodal point  x-disp     y-disp      z-disp      x-vel       y-vel       z-vel      x-accl      y-accl      z-accl      x-coor      y-coor      z-coor
    22626 -1.16879E-03 9.23024E-02-1.84247E-01-7.21959E-04 5.12726E-02-1.05898E-01 9.32615E-04 1.83169E-03-2.04480E-02 4.65821E+00-2.80985E+01-4.51660E+01



 n o d a l   p r i n t   o u t   f o r   t i m e  s t e p    5801                              ( at time 2.8997098E+00 )

 nodal point  x-rot      y-rot       z-rot       x-rot vel   y-rot vel   z-rot vel   x-rot acc   y-rot acc   z-rot acc
    22626 -1.23073E-04 4.84783E-06 3.89088E-06-3.37880E-05 4.91122E-06 1.41727E-06-1.21000E-05-2.07273E-05 1.42979E-06



 n o d a l   p r i n t   o u t   f o r   t i m e  s t e p    6001                              ( at time 2.9996998E+00 )

 nodal point  x-disp     y-disp      z-disp      x-vel       y-vel       z-vel      x-accl      y-accl      z-accl      x-coor      y-coor      z-coor
    22626 -1.24890E-03 9.74034E-02-1.94861E-01-7.22191E-04 5.08798E-02-1.05985E-01-2.31806E-06-3.92923E-03-8.63831E-04 4.65813E+00-2.80934E+01-4.51766E+01



 n o d a l   p r i n t   o u t   f o r   t i m e  s t e p    6001                              ( at time 2.9996998E+00 )

 nodal point  x-rot      y-rot       z-rot       x-rot vel   y-rot vel   z-rot vel   x-rot acc   y-rot acc   z-rot acc
    22626 -1.27367E-04 5.33686E-06 3.85987E-06-4.64071E-05 4.84926E-06 9.16094E-07-1.26204E-04-6.19618E-07-5.01230E-06



 n o d a l   p r i n t   o u t   f o r   t i m e  s t e p    6201                              ( at time 3.0996898E+00 )

 nodal point  x-disp     y-disp      z-disp      x-vel       y-vel       z-vel      x-accl      y-accl      z-accl      x-coor      y-coor      z-coor
    22626 -1.32077E-03 1.02554E-01-2.05455E-01-7.67868E-04 5.25300E-02-1.06342E-01-4.56817E-04 1.65037E-02-3.57485E-03 4.65805E+00-2.80883E+01-4.51872E+01



 n o d a l   p r i n t   o u t   f o r   t i m e  s t e p    6201                              ( at time 3.0996898E+00 )

 nodal point  x-rot      y-rot       z-rot       x-rot vel   y-rot vel   z-rot vel   x-rot acc   y-rot acc   z-rot acc
    22626 -1.32729E-04 5.88781E-06 3.94340E-06-6.07494E-05 5.15878E-06 2.97150E-06-1.43437E-04 3.09553E-06 2.05561E-05



 n o d a l   p r i n t   o u t   f o r   t i m e  s t e p    6401                              ( at time 3.1996798E+00 )

 nodal point  x-disp     y-disp      z-disp      x-vel       y-vel       z-vel      x-accl      y-accl      z-accl      x-coor      y-coor      z-coor
    22626 -1.38303E-03 1.07893E-01-2.16194E-01-5.49762E-04 5.43315E-02-1.08611E-01 2.18128E-03 1.80170E-02-2.26947E-02 4.65799E+00-2.80829E+01-4.51979E+01



 n o d a l   p r i n t   o u t   f o r   t i m e  s t e p    6401                              ( at time 3.1996798E+00 )

 nodal point  x-rot      y-rot       z-rot       x-rot vel   y-rot vel   z-rot vel   x-rot acc   y-rot acc   z-rot acc
    22626 -1.39393E-04 6.51736E-06 4.09100E-06-6.44120E-05 6.61619E-06 1.41895E-06-3.66292E-05 1.45755E-05-1.55270E-05



 n o d a l   p r i n t   o u t   f o r   t i m e  s t e p    6601                              ( at time 3.2996698E+00 )

 nodal point  x-disp     y-disp      z-disp      x-vel       y-vel       z-vel      x-accl      y-accl      z-accl      x-coor      y-coor      z-coor
    22626 -1.44707E-03 1.13491E-01-2.27226E-01-7.46403E-04 5.76763E-02-1.11765E-01-1.96662E-03 3.34513E-02-3.15351E-02 4.65793E+00-2.80773E+01-4.52089E+01



 n o d a l   p r i n t   o u t   f o r   t i m e  s t e p    6601                              ( at time 3.2996698E+00 )

 nodal point  x-rot      y-rot       z-rot       x-rot vel   y-rot vel   z-rot vel   x-rot acc   y-rot acc   z-rot acc
    22626 -1.46871E-04 7.31441E-06 4.46413E-06-8.00373E-05 8.44890E-06 2.65493E-06-1.56269E-04 1.83290E-05 1.23610E-05



 n o d a l   p r i n t   o u t   f o r   t i m e  s t e p    6801                              ( at time 3.3996598E+00 )

 nodal point  x-disp     y-disp      z-disp      x-vel       y-vel       z-vel      x-accl      y-accl      z-accl      x-coor      y-coor      z-coor
    22626 -1.54555E-03 1.19474E-01-2.38452E-01-1.17029E-03 6.20579E-02-1.12337E-01-4.23931E-03 4.38207E-02-5.72731E-03 4.65783E+00-2.80714E+01-4.52202E+01



 n o d a l   p r i n t   o u t   f o r   t i m e  s t e p    6801                              ( at time 3.3996598E+00 )

 nodal point  x-rot      y-rot       z-rot       x-rot vel   y-rot vel   z-rot vel   x-rot acc   y-rot acc   z-rot acc
    22626 -1.57043E-04 7.83125E-06 4.42658E-06-1.18359E-04 5.40393E-06-6.27370E-07-3.83258E-04-3.04527E-05-3.28263E-05



 n o d a l   p r i n t   o u t   f o r   t i m e  s t e p    7001                              ( at time 3.4996498E+00 )

 nodal point  x-disp     y-disp      z-disp      x-vel       y-vel       z-vel      x-accl      y-accl      z-accl      x-coor      y-coor      z-coor
    22626 -1.67375E-03 1.25900E-01-2.49655E-01-1.28510E-03 6.65509E-02-1.11823E-01-1.14817E-03 4.49347E-02 5.13881E-03 4.65770E+00-2.80649E+01-4.52314E+01



 n o d a l   p r i n t   o u t   f o r   t i m e  s t e p    7001                              ( at time 3.4996498E+00 )

 nodal point  x-rot      y-rot       z-rot       x-rot vel   y-rot vel   z-rot vel   x-rot acc   y-rot acc   z-rot acc
    22626 -1.71345E-04 8.33878E-06 3.97231E-06-1.55636E-04 5.30309E-06-5.17540E-06-3.72808E-04-1.00844E-06-4.54849E-05



 n o d a l   p r i n t   o u t   f o r   t i m e  s t e p    7201                              ( at time 3.5996397E+00 )

 nodal point  x-disp     y-disp      z-disp      x-vel       y-vel       z-vel      x-accl      y-accl      z-accl      x-coor      y-coor      z-coor
    22626 -1.80358E-03 1.32814E-01-2.60858E-01-1.35677E-03 7.14967E-02-1.12462E-01-7.16782E-04 4.94629E-02-6.38505E-03 4.65757E+00-2.80580E+01-4.52426E+01



 n o d a l   p r i n t   o u t   f o r   t i m e  s t e p    7201                              ( at time 3.5996397E+00 )

 nodal point  x-rot      y-rot       z-rot       x-rot vel   y-rot vel   z-rot vel   x-rot acc   y-rot acc   z-rot acc
    22626 -1.88698E-04 9.00750E-06 3.36300E-06-1.95796E-04 3.19895E-06-1.05249E-05-4.01642E-04-2.10435E-05-5.35002E-05



 n o d a l   p r i n t   o u t   f o r   t i m e  s t e p    7401                              ( at time 3.6996297E+00 )

 nodal point  x-disp     y-disp      z-disp      x-vel       y-vel       z-vel      x-accl      y-accl      z-accl      x-coor      y-coor      z-coor
    22626 -1.95128E-03 1.40113E-01-2.72097E-01-1.52532E-03 7.62895E-02-1.13652E-01-1.68570E-03 4.79329E-02-1.19058E-02 4.65742E+00-2.80507E+01-4.52538E+01



 n o d a l   p r i n t   o u t   f o r   t i m e  s t e p    7401                              ( at time 3.6996297E+00 )

 nodal point  x-rot      y-rot       z-rot       x-rot vel   y-rot vel   z-rot vel   x-rot acc   y-rot acc   z-rot acc
    22626 -2.07928E-04 9.24453E-06 2.17014E-06-2.16804E-04 9.13013E-07-1.73102E-05-2.10091E-04-2.28617E-05-6.78599E-05



 n o d a l   p r i n t   o u t   f o r   t i m e  s t e p    7601                              ( at time 3.7996197E+00 )

 nodal point  x-disp     y-disp      z-disp      x-vel       y-vel       z-vel      x-accl      y-accl      z-accl      x-coor      y-coor      z-coor
    22626 -2.11359E-03 1.48071E-01-2.83451E-01-1.96735E-03 8.19326E-02-1.12468E-01-4.42073E-03 5.64365E-02 1.18452E-02 4.65726E+00-2.80428E+01-4.52652E+01



 n o d a l   p r i n t   o u t   f o r   t i m e  s t e p    7601                              ( at time 3.7996197E+00 )

 nodal point  x-rot      y-rot       z-rot       x-rot vel   y-rot vel   z-rot vel   x-rot acc   y-rot acc   z-rot acc
    22626 -2.31892E-04 8.99972E-06 2.65432E-07-2.69301E-04-7.92089E-06-2.46315E-05-5.25028E-04-8.83480E-05-7.32207E-05



 n o d a l   p r i n t   o u t   f o r   t i m e  s t e p    7801                              ( at time 3.8996097E+00 )

 nodal point  x-disp     y-disp      z-disp      x-vel       y-vel       z-vel      x-accl      y-accl      z-accl      x-coor      y-coor      z-coor
    22626 -2.29407E-03 1.56544E-01-2.94566E-01-1.94983E-03 8.85795E-02-1.09374E-01 1.75229E-04 6.64755E-02 3.09399E-02 4.65708E+00-2.80343E+01-4.52763E+01



 n o d a l   p r i n t   o u t   f o r   t i m e  s t e p    7801                              ( at time 3.8996097E+00 )

 nodal point  x-rot      y-rot       z-rot       x-rot vel   y-rot vel   z-rot vel   x-rot acc   y-rot acc   z-rot acc
    22626 -2.62225E-04 8.09918E-06-2.53188E-06-3.28140E-04-1.08558E-05-3.35741E-05-5.88448E-04-2.93516E-05-8.94340E-05



 n o d a l   p r i n t   o u t   f o r   t i m e  s t e p    8001                              ( at time 3.9995997E+00 )

 nodal point  x-disp     y-disp      z-disp      x-vel       y-vel       z-vel      x-accl      y-accl      z-accl      x-coor      y-coor      z-coor
    22626 -2.48604E-03 1.65683E-01-3.05514E-01-1.87273E-03 9.49556E-02-1.07094E-01 7.71126E-04 6.37674E-02 2.28072E-02 4.65689E+00-2.80251E+01-4.52872E+01



 n o d a l   p r i n t   o u t   f o r   t i m e  s t e p    8001                              ( at time 3.9995997E+00 )

 nodal point  x-rot      y-rot       z-rot       x-rot vel   y-rot vel   z-rot vel   x-rot acc   y-rot acc   z-rot acc
    22626 -2.98434E-04 6.99220E-06-6.21207E-06-3.70822E-04-1.45807E-05-4.10179E-05-4.26863E-04-3.72536E-05-7.44463E-05



 n o d a l   p r i n t   o u t   f o r   t i m e  s t e p    8201                              ( at time 4.0995897E+00 )

 nodal point  x-disp     y-disp      z-disp      x-vel       y-vel       z-vel      x-accl      y-accl      z-accl      x-coor      y-coor      z-coor
    22626 -2.70331E-03 1.75569E-01-3.16233E-01-2.21256E-03 1.03426E-01-1.06085E-01-3.39863E-03 8.47098E-02 1.00894E-02 4.65667E+00-2.80153E+01-4.52980E+01



 n o d a l   p r i n t   o u t   f o r   t i m e  s t e p    8201                              ( at time 4.0995897E+00 )

 nodal point  x-rot      y-rot       z-rot       x-rot vel   y-rot vel   z-rot vel   x-rot acc   y-rot acc   z-rot acc
    22626 -3.40457E-04 5.44263E-06-1.01404E-05-4.50056E-04-1.96220E-05-3.91275E-05-7.92422E-04-5.04179E-05 1.89063E-05



 n o d a l   p r i n t   o u t   f o r   t i m e  s t e p    8401                              ( at time 4.1995797E+00 )

 nodal point  x-disp     y-disp      z-disp      x-vel       y-vel       z-vel      x-accl      y-accl      z-accl      x-coor      y-coor      z-coor
    22626 -2.94098E-03 1.86294E-01-3.26848E-01-2.66253E-03 1.11846E-01-1.04850E-01-4.50019E-03 8.42086E-02 1.23553E-02 4.65643E+00-2.80045E+01-4.53086E+01



 n o d a l   p r i n t   o u t   f o r   t i m e  s t e p    8401                              ( at time 4.1995797E+00 )

 nodal point  x-rot      y-rot       z-rot       x-rot vel   y-rot vel   z-rot vel   x-rot acc   y-rot acc   z-rot acc
    22626 -3.90129E-04 3.51967E-06-1.45473E-05-5.46653E-04-1.97575E-05-4.66012E-05-9.66060E-04-1.35497E-06-7.47450E-05



 n o d a l   p r i n t   o u t   f o r   t i m e  s t e p    8601                              ( at time 4.2995697E+00 )

 nodal point  x-disp     y-disp      z-disp      x-vel       y-vel       z-vel      x-accl      y-accl      z-accl      x-coor      y-coor      z-coor
    22626 -3.23722E-03 1.97993E-01-3.37111E-01-2.80717E-03 1.21223E-01-1.00677E-01-1.44652E-03 9.37859E-02 4.17346E-02 4.65614E+00-2.79928E+01-4.53188E+01



 n o d a l   p r i n t   o u t   f o r   t i m e  s t e p    8601                              ( at time 4.2995697E+00 )

 nodal point  x-rot      y-rot       z-rot       x-rot vel   y-rot vel   z-rot vel   x-rot acc   y-rot acc   z-rot acc
    22626 -4.48863E-04 1.24951E-06-1.93473E-05-6.51089E-04-2.01120E-05-5.22508E-05-1.04447E-03-3.54500E-06-5.65017E-05



 n o d a l   p r i n t   o u t   f o r   t i m e  s t e p    8801                              ( at time 4.3995597E+00 )

 nodal point  x-disp     y-disp      z-disp      x-vel       y-vel       z-vel      x-accl      y-accl      z-accl      x-coor      y-coor      z-coor
    22626 -3.53683E-03 2.10499E-01-3.46931E-01-2.91667E-03 1.29596E-01-9.63344E-02-1.09516E-03 8.37326E-02 4.34257E-02 4.65584E+00-2.79803E+01-4.53287E+01



 n o d a l   p r i n t   o u t   f o r   t i m e  s t e p    8801                              ( at time 4.3995597E+00 )

 nodal point  x-rot      y-rot       z-rot       x-rot vel   y-rot vel   z-rot vel   x-rot acc   y-rot acc   z-rot acc
    22626 -5.15573E-04-7.31868E-07-2.48196E-05-7.27356E-04-1.98456E-05-5.30847E-05-7.62740E-04 2.66389E-06-8.33938E-06



 n o d a l   p r i n t   o u t   f o r   t i m e  s t e p    9001                              ( at time 4.4995497E+00 )

 nodal point  x-disp     y-disp      z-disp      x-vel       y-vel       z-vel      x-accl      y-accl      z-accl      x-coor      y-coor      z-coor
    22626 -3.83847E-03 2.24018E-01-3.56241E-01-3.06726E-03 1.40739E-01-9.00615E-02-1.50603E-03 1.11441E-01 6.27349E-02 4.65554E+00-2.79668E+01-4.53380E+01



 n o d a l   p r i n t   o u t   f o r   t i m e  s t e p    9001                              ( at time 4.4995497E+00 )

 nodal point  x-rot      y-rot       z-rot       x-rot vel   y-rot vel   z-rot vel   x-rot acc   y-rot acc   z-rot acc
    22626 -5.92816E-04-3.14335E-06-3.04732E-05-8.30785E-04-3.54288E-05-5.56852E-05-1.03440E-03-1.55847E-04-2.60079E-05



 n o d a l   p r i n t   o u t   f o r   t i m e  s t e p    9201                              ( at time 4.5995397E+00 )

 nodal point  x-disp     y-disp      z-disp      x-vel       y-vel       z-vel      x-accl      y-accl      z-accl      x-coor      y-coor      z-coor
    22626 -4.13507E-03 2.38655E-01-3.65080E-01-2.20693E-03 1.52589E-01-8.55053E-02 8.60420E-03 1.18513E-01 4.55667E-02 4.65524E+00-2.79522E+01-4.53468E+01



 n o d a l   p r i n t   o u t   f o r   t i m e  s t e p    9201                              ( at time 4.5995397E+00 )

 nodal point  x-rot      y-rot       z-rot       x-rot vel   y-rot vel   z-rot vel   x-rot acc   y-rot acc   z-rot acc
    22626 -6.82534E-04-6.56147E-06-3.62377E-05-9.31180E-04-3.27401E-05-5.74557E-05-1.00404E-03 2.68903E-05-1.77069E-05



 n o d a l   p r i n t   o u t   f o r   t i m e  s t e p    9401                              ( at time 4.6995297E+00 )

 nodal point  x-disp     y-disp      z-disp      x-vel       y-vel       z-vel      x-accl      y-accl      z-accl      x-coor      y-coor      z-coor
    22626 -4.39224E-03 2.54458E-01-3.73405E-01-2.57050E-03 1.63626E-01-7.95934E-02-3.63606E-03 1.10378E-01 5.91250E-02 4.65498E+00-2.79364E+01-4.53551E+01



 n o d a l   p r i n t   o u t   f o r   t i m e  s t e p    9401                              ( at time 4.6995297E+00 )

 nodal point  x-rot      y-rot       z-rot       x-rot vel   y-rot vel   z-rot vel   x-rot acc   y-rot acc   z-rot acc
    22626 -7.84403E-04-9.63418E-06-4.21096E-05-1.07498E-03-3.16302E-05-5.46538E-05-1.43813E-03 1.11001E-05 2.80220E-05



 n o d a l   p r i n t   o u t   f o r   t i m e  s t e p    9601                              ( at time 4.7995197E+00 )

 nodal point  x-disp     y-disp      z-disp      x-vel       y-vel       z-vel      x-accl      y-accl      z-accl      x-coor      y-coor      z-coor
    22626 -4.61719E-03 2.71412E-01-3.81058E-01-2.39357E-03 1.76018E-01-7.35710E-02 1.76944E-03 1.23938E-01 6.02300E-02 4.65476E+00-2.79194E+01-4.53628E+01



 n o d a l   p r i n t   o u t   f o r   t i m e  s t e p    9601                              ( at time 4.7995197E+00 )

 nodal point  x-rot      y-rot       z-rot       x-rot vel   y-rot vel   z-rot vel   x-rot acc   y-rot acc   z-rot acc
    22626 -9.00633E-04-1.34460E-05-4.76839E-05-1.23346E-03-4.40630E-05-5.48870E-05-1.58499E-03-1.24341E-04-2.33222E-06



 n o d a l   p r i n t   o u t   f o r   t i m e  s t e p    9801                              ( at time 4.8995097E+00 )

 nodal point  x-disp     y-disp      z-disp      x-vel       y-vel       z-vel      x-accl      y-accl      z-accl      x-coor      y-coor      z-coor
    22626 -4.80140E-03 2.89657E-01-3.87994E-01-2.20979E-03 1.88981E-01-6.53575E-02 1.83795E-03 1.29645E-01 8.21434E-02 4.65457E+00-2.79012E+01-4.53697E+01



 n o d a l   p r i n t   o u t   f o r   t i m e  s t e p    9801                              ( at time 4.8995097E+00 )

 nodal point  x-rot      y-rot       z-rot       x-rot vel   y-rot vel   z-rot vel   x-rot acc   y-rot acc   z-rot acc
    22626 -1.03144E-03-1.72388E-05-5.29482E-05-1.37784E-03-3.88114E-05-4.27899E-05-1.44395E-03 5.25212E-05 1.20984E-04



 n o d a l   p r i n t   o u t   f o r   t i m e  s t e p   10001                              ( at time 4.9994997E+00 )

 nodal point  x-disp     y-disp      z-disp      x-vel       y-vel       z-vel      x-accl      y-accl      z-accl      x-coor      y-coor      z-coor
    22626 -4.95923E-03 3.09283E-01-3.94140E-01-1.59537E-03 2.02484E-01-5.81941E-02 6.14480E-03 1.35044E-01 7.16406E-02 4.65442E+00-2.78815E+01-4.53759E+01



 n o d a l   p r i n t   o u t   f o r   t i m e  s t e p   10001                              ( at time 4.9994997E+00 )

 nodal point  x-rot      y-rot       z-rot       x-rot vel   y-rot vel   z-rot vel   x-rot acc   y-rot acc   z-rot acc
    22626 -1.17846E-03-2.11027E-05-5.77075E-05-1.53593E-03-3.87634E-05-4.49354E-05-1.58107E-03 4.79641E-07-2.14578E-05



 n o d a l   p r i n t   o u t   f o r   t i m e  s t e p   10202                              ( at time 5.0999896E+00 )

 nodal point  x-disp     y-disp      z-disp      x-vel       y-vel       z-vel      x-accl      y-accl      z-accl      x-coor      y-coor      z-coor
    22626 -5.11465E-03 3.30352E-01-3.99633E-01-1.54949E-03 2.16813E-01-5.03917E-02 4.56545E-04 1.42587E-01 7.76438E-02 4.65426E+00-2.78605E+01-4.53814E+01



 n o d a l   p r i n t   o u t   f o r   t i m e  s t e p   10202                              ( at time 5.0999896E+00 )

 nodal point  x-rot      y-rot       z-rot       x-rot vel   y-rot vel   z-rot vel   x-rot acc   y-rot acc   z-rot acc
    22626 -1.34327E-03-2.52300E-05-6.18412E-05-1.71671E-03-3.73714E-05-4.00315E-05-1.79898E-03 1.38524E-05 4.88006E-05



 n o d a l   p r i n t   o u t   f o r   t i m e  s t e p   10402                              ( at time 5.1999796E+00 )

 nodal point  x-disp     y-disp      z-disp      x-vel       y-vel       z-vel      x-accl      y-accl      z-accl      x-coor      y-coor      z-coor
    22626 -5.25069E-03 3.52751E-01-4.04163E-01-9.66788E-04 2.29811E-01-4.04996E-02 5.82763E-03 1.29991E-01 9.89303E-02 4.65412E+00-2.78381E+01-4.53859E+01



 n o d a l   p r i n t   o u t   f o r   t i m e  s t e p   10402                              ( at time 5.1999796E+00 )

 nodal point  x-rot      y-rot       z-rot       x-rot vel   y-rot vel   z-rot vel   x-rot acc   y-rot acc   z-rot acc
    22626 -1.52492E-03-2.86158E-05-6.47759E-05-1.90168E-03-2.16458E-05-3.46236E-05-1.84990E-03 1.57271E-04 5.40843E-05



 n o d a l   p r i n t   o u t   f o r   t i m e  s t e p   10602                              ( at time 5.2999696E+00 )

 nodal point  x-disp     y-disp      z-disp      x-vel       y-vel       z-vel      x-accl      y-accl      z-accl      x-coor      y-coor      z-coor
    22626 -5.33894E-03 3.76498E-01-4.07742E-01-2.46371E-04 2.44307E-01-3.16637E-02 7.20490E-03 1.44973E-01 8.83679E-02 4.65404E+00-2.78143E+01-4.53895E+01



 n o d a l   p r i n t   o u t   f o r   t i m e  s t e p   10602                              ( at time 5.2999696E+00 )

 nodal point  x-rot      y-rot       z-rot       x-rot vel   y-rot vel   z-rot vel   x-rot acc   y-rot acc   z-rot acc
    22626 -1.72560E-03-3.15408E-05-6.64789E-05-2.11375E-03-2.11757E-05-1.34371E-05-2.12089E-03 4.70151E-06 2.11887E-04



 n o d a l   p r i n t   o u t   f o r   t i m e  s t e p   10802                              ( at time 5.3999596E+00 )

 nodal point  x-disp     y-disp      z-disp      x-vel       y-vel       z-vel      x-accl      y-accl      z-accl      x-coor      y-coor      z-coor
    22626 -5.34795E-03 4.01609E-01-4.10348E-01 5.40595E-04 2.58902E-01-2.05979E-02 7.87045E-03 1.45969E-01 1.10670E-01 4.65403E+00-2.77892E+01-4.53921E+01



 n o d a l   p r i n t   o u t   f o r   t i m e  s t e p   10802                              ( at time 5.3999596E+00 )

 nodal point  x-rot      y-rot       z-rot       x-rot vel   y-rot vel   z-rot vel   x-rot acc   y-rot acc   z-rot acc
    22626 -1.94494E-03-3.35287E-05-6.49686E-05-2.28867E-03-1.67370E-05 3.58063E-05-1.74932E-03 4.43916E-05 4.92483E-04



 n o d a l   p r i n t   o u t   f o r   t i m e  s t e p   11002                              ( at time 5.4999496E+00 )

 nodal point  x-disp     y-disp      z-disp      x-vel       y-vel       z-vel      x-accl      y-accl      z-accl      x-coor      y-coor      z-coor
    22626 -5.24645E-03 4.28195E-01-4.12052E-01-7.00887E-05 2.74250E-01-1.09865E-02-6.10745E-03 1.53497E-01 9.61232E-02 4.65413E+00-2.77626E+01-4.53938E+01



 n o d a l   p r i n t   o u t   f o r   t i m e  s t e p   11002                              ( at time 5.4999496E+00 )

 nodal point  x-rot      y-rot       z-rot       x-rot vel   y-rot vel   z-rot vel   x-rot acc   y-rot acc   z-rot acc
    22626 -2.18513E-03-3.54952E-05-6.24465E-05-2.48535E-03-3.51662E-05 3.17156E-05-1.96703E-03-1.84311E-04-4.09113E-05



 n o d a l   p r i n t   o u t   f o r   t i m e  s t e p   11202                              ( at time 5.5999396E+00 )

 nodal point  x-disp     y-disp      z-disp      x-vel       y-vel       z-vel      x-accl      y-accl      z-accl      x-coor      y-coor      z-coor
    22626 -5.19900E-03 4.56167E-01-4.12632E-01-1.08135E-04 2.87052E-01 1.33681E-03-3.80500E-04 1.28027E-01 1.23246E-01 4.65418E+00-2.77347E+01-4.53944E+01



 n o d a l   p r i n t   o u t   f o r   t i m e  s t e p   11202                              ( at time 5.5999396E+00 )

 nodal point  x-rot      y-rot       z-rot       x-rot vel   y-rot vel   z-rot vel   x-rot acc   y-rot acc   z-rot acc
    22626 -2.44621E-03-3.76472E-05-5.94340E-05-2.70589E-03-2.64106E-05 4.70163E-05-2.20560E-03 8.75650E-05 1.53023E-04



 n o d a l   p r i n t   o u t   f o r   t i m e  s t e p   11402                              ( at time 5.6999296E+00 )

 nodal point  x-disp     y-disp      z-disp      x-vel       y-vel       z-vel      x-accl      y-accl      z-accl      x-coor      y-coor      z-coor
    22626 -5.07236E-03 4.85611E-01-4.11951E-01 3.50615E-03 3.00210E-01 1.18234E-02 3.61464E-02 1.31598E-01 1.04876E-01 4.65430E+00-2.77052E+01-4.53937E+01



 n o d a l   p r i n t   o u t   f o r   t i m e  s t e p   11402                              ( at time 5.6999296E+00 )

 nodal point  x-rot      y-rot       z-rot       x-rot vel   y-rot vel   z-rot vel   x-rot acc   y-rot acc   z-rot acc
    22626 -2.72838E-03-3.92484E-05-5.37844E-05-2.94884E-03-7.31691E-06 4.66500E-05-2.42978E-03 1.90955E-04-3.66340E-06



 n o d a l   p r i n t   o u t   f o r   t i m e  s t e p   11602                              ( at time 5.7999195E+00 )

 nodal point  x-disp     y-disp      z-disp      x-vel       y-vel       z-vel      x-accl      y-accl      z-accl      x-coor      y-coor      z-coor
    22626 -4.83065E-03 5.16488E-01-4.10080E-01 2.39162E-03 3.16581E-01 2.39896E-02-1.11465E-02 1.63729E-01 1.21674E-01 4.65454E+00-2.76743E+01-4.53918E+01



 n o d a l   p r i n t   o u t   f o r   t i m e  s t e p   11602                              ( at time 5.7999195E+00 )

 nodal point  x-rot      y-rot       z-rot       x-rot vel   y-rot vel   z-rot vel   x-rot acc   y-rot acc   z-rot acc
    22626 -3.03327E-03-3.93508E-05-4.59581E-05-3.18864E-03 4.21171E-06 7.87290E-05-2.39824E-03 1.15298E-04 3.20822E-04



 n o d a l   p r i n t   o u t   f o r   t i m e  s t e p   11802                              ( at time 5.8999095E+00 )

 nodal point  x-disp     y-disp      z-disp      x-vel       y-vel       z-vel      x-accl      y-accl      z-accl      x-coor      y-coor      z-coor
    22626 -4.59203E-03 5.48826E-01-4.06987E-01 2.03615E-03 3.30125E-01 3.53003E-02-3.55505E-03 1.35447E-01 1.13119E-01 4.65478E+00-2.76420E+01-4.53887E+01



 n o d a l   p r i n t   o u t   f o r   t i m e  s t e p   11802                              ( at time 5.8999095E+00 )

 nodal point  x-rot      y-rot       z-rot       x-rot vel   y-rot vel   z-rot vel   x-rot acc   y-rot acc   z-rot acc
    22626 -3.35985E-03-3.88811E-05-3.83089E-05-3.41092E-03 1.64437E-05 7.58018E-05-2.22304E-03 1.22333E-04-2.92746E-05



 n o d a l   p r i n t   o u t   f o r   t i m e  s t e p   12002                              ( at time 5.9998995E+00 )

 nodal point  x-disp     y-disp      z-disp      x-vel       y-vel       z-vel      x-accl      y-accl      z-accl      x-coor      y-coor      z-coor
    22626 -4.25442E-03 5.82658E-01-4.02750E-01 4.26274E-03 3.46353E-01 4.96629E-02 2.22681E-02 1.62299E-01 1.43641E-01 4.65512E+00-2.76082E+01-4.53845E+01



 n o d a l   p r i n t   o u t   f o r   t i m e  s t e p   12002                              ( at time 5.9998995E+00 )

 nodal point  x-rot      y-rot       z-rot       x-rot vel   y-rot vel   z-rot vel   x-rot acc   y-rot acc   z-rot acc
    22626 -3.71129E-03-3.61548E-05-2.85197E-05-3.62158E-03 3.78957E-05 1.28674E-04-2.10677E-03 2.14542E-04 5.28775E-04



 n o d a l   p r i n t   o u t   f o r   t i m e  s t e p   12202                              ( at time 6.0998895E+00 )

 nodal point  x-disp     y-disp      z-disp      x-vel       y-vel       z-vel      x-accl      y-accl      z-accl      x-coor      y-coor      z-coor
    22626 -3.81197E-03 6.17952E-01-3.97118E-01 4.54996E-03 3.61155E-01 6.39676E-02 2.87249E-03 1.48032E-01 1.43061E-01 4.65556E+00-2.75729E+01-4.53788E+01



 n o d a l   p r i n t   o u t   f o r   t i m e  s t e p   12202                              ( at time 6.0998895E+00 )

 nodal point  x-rot      y-rot       z-rot       x-rot vel   y-rot vel   z-rot vel   x-rot acc   y-rot acc   z-rot acc
    22626 -4.08546E-03-3.23623E-05-1.32807E-05-3.82346E-03 4.11385E-05 1.61805E-04-2.01899E-03 3.24302E-05 3.31345E-04



 n o d a l   p r i n t   o u t   f o r   t i m e  s t e p   12402                              ( at time 6.1998795E+00 )

 nodal point  x-disp     y-disp      z-disp      x-vel       y-vel       z-vel      x-accl      y-accl      z-accl      x-coor      y-coor      z-coor
    22626 -3.29903E-03 6.54772E-01-3.90201E-01 5.71864E-03 3.76289E-01 7.63317E-02 1.16880E-02 1.51357E-01 1.23653E-01 4.65608E+00-2.75361E+01-4.53719E+01



 n o d a l   p r i n t   o u t   f o r   t i m e  s t e p   12402                              ( at time 6.1998795E+00 )

 nodal point  x-rot      y-rot       z-rot       x-rot vel   y-rot vel   z-rot vel   x-rot acc   y-rot acc   z-rot acc
    22626 -4.48454E-03-2.66937E-05 1.58264E-06-4.10221E-03 7.03333E-05 1.55887E-04-2.78780E-03 2.91978E-04-5.91857E-05



 n o d a l   p r i n t   o u t   f o r   t i m e  s t e p   12602                              ( at time 6.2998695E+00 )

 nodal point  x-disp     y-disp      z-disp      x-vel       y-vel       z-vel      x-accl      y-accl      z-accl      x-coor      y-coor      z-coor
    22626 -2.67956E-03 6.93221E-01-3.81999E-01 7.38281E-03 3.92504E-01 8.81637E-02 1.66434E-02 1.62171E-01 1.18332E-01 4.65670E+00-2.74976E+01-4.53637E+01



 n o d a l   p r i n t   o u t   f o r   t i m e  s t e p   12602                              ( at time 6.2998695E+00 )

 nodal point  x-rot      y-rot       z-rot       x-rot vel   y-rot vel   z-rot vel   x-rot acc   y-rot acc   z-rot acc
    22626 -4.90990E-03-1.85121E-05 1.88372E-05-4.37925E-03 9.46410E-05 1.87776E-04-2.77069E-03 2.43101E-04 3.18915E-04



 n o d a l   p r i n t   o u t   f o r   t i m e  s t e p   12802                              ( at time 6.3998595E+00 )

 nodal point  x-disp     y-disp      z-disp      x-vel       y-vel       z-vel      x-accl      y-accl      z-accl      x-coor      y-coor      z-coor
    22626 -1.91145E-03 7.33331E-01-3.72517E-01 8.02282E-03 4.08470E-01 1.01938E-01 6.40073E-03 1.59670E-01 1.37761E-01 4.65746E+00-2.74575E+01-4.53542E+01



 n o d a l   p r i n t   o u t   f o r   t i m e  s t e p   12802                              ( at time 6.3998595E+00 )

 nodal point  x-rot      y-rot       z-rot       x-rot vel   y-rot vel   z-rot vel   x-rot acc   y-rot acc   z-rot acc
    22626 -5.36006E-03-9.06763E-06 3.88436E-05-4.63317E-03 1.06173E-04 2.21376E-04-2.53946E-03 1.15326E-04 3.36037E-04



 n o d a l   p r i n t   o u t   f o r   t i m e  s t e p   13002                              ( at time 6.4998495E+00 )

 nodal point  x-disp     y-disp      z-disp      x-vel       y-vel       z-vel      x-accl      y-accl      z-accl      x-coor      y-coor      z-coor
    22626 -1.07006E-03 7.75022E-01-3.61559E-01 8.91674E-03 4.26885E-01 1.17360E-01 8.94005E-03 1.84170E-01 1.54233E-01 4.65831E+00-2.74158E+01-4.53433E+01



 n o d a l   p r i n t   o u t   f o r   t i m e  s t e p   13002                              ( at time 6.4998495E+00 )

 nodal point  x-rot      y-rot       z-rot       x-rot vel   y-rot vel   z-rot vel   x-rot acc   y-rot acc   z-rot acc
    22626 -5.83747E-03 5.57712E-07 6.16839E-05-4.89843E-03 1.14581E-04 2.30313E-04-2.65283E-03 8.40975E-05 8.93836E-05



 n o d a l   p r i n t   o u t   f o r   t i m e  s t e p   13202                              ( at time 6.5998395E+00 )

 nodal point  x-disp     y-disp      z-disp      x-vel       y-vel       z-vel      x-accl      y-accl      z-accl      x-coor      y-coor      z-coor
    22626 -8.69982E-05 8.18374E-01-3.49133E-01 9.08532E-03 4.41350E-01 1.32557E-01 1.68594E-03 1.44663E-01 1.51982E-01 4.65929E+00-2.73725E+01-4.53309E+01



 n o d a l   p r i n t   o u t   f o r   t i m e  s t e p   13202                              ( at time 6.5998395E+00 )

 nodal point  x-rot      y-rot       z-rot       x-rot vel   y-rot vel   z-rot vel   x-rot acc   y-rot acc   z-rot acc
    22626 -6.34093E-03 1.32912E-05 8.32204E-05-5.11129E-03 1.40147E-04 2.16268E-04-2.12881E-03 2.55679E-04-1.40463E-04



 n o d a l   p r i n t   o u t   f o r   t i m e  s t e p   13402                              ( at time 6.6998295E+00 )

 nodal point  x-disp     y-disp      z-disp      x-vel       y-vel       z-vel      x-accl      y-accl      z-accl      x-coor      y-coor      z-coor
    22626  9.08591E-04 8.63448E-01-3.35246E-01 1.02720E-02 4.58785E-01 1.45924E-01 1.18684E-02 1.74373E-01 1.33687E-01 4.66028E+00-2.73274E+01-4.53170E+01



 n o d a l   p r i n t   o u t   f o r   t i m e  s t e p   13402                              ( at time 6.6998295E+00 )

 nodal point  x-rot      y-rot       z-rot       x-rot vel   y-rot vel   z-rot vel   x-rot acc   y-rot acc   z-rot acc
    22626 -6.87044E-03 2.69909E-05 1.06369E-04-5.42831E-03 1.36319E-04 2.43241E-04-3.17054E-03-3.82873E-05 2.69752E-04



 n o d a l   p r i n t   o u t   f o r   t i m e  s t e p   13602                              ( at time 6.7998195E+00 )

 nodal point  x-disp     y-disp      z-disp      x-vel       y-vel       z-vel      x-accl      y-accl      z-accl      x-coor      y-coor      z-coor
    22626  2.08819E-03 9.10207E-01-3.20042E-01 1.38035E-02 4.75033E-01 1.56953E-01 3.53186E-02 1.62489E-01 1.10304E-01 4.66146E+00-2.72806E+01-4.53018E+01



 n o d a l   p r i n t   o u t   f o r   t i m e  s t e p   13602                              ( at time 6.7998195E+00 )

 nodal point  x-rot      y-rot       z-rot       x-rot vel   y-rot vel   z-rot vel   x-rot acc   y-rot acc   z-rot acc
    22626 -7.42767E-03 4.08360E-05 1.31861E-04-5.70317E-03 1.40695E-04 2.59097E-04-2.74883E-03 4.37693E-05 1.58581E-04



 n o d a l   p r i n t   o u t   f o r   t i m e  s t e p   13802                              ( at time 6.8998095E+00 )

 nodal point  x-disp     y-disp      z-disp      x-vel       y-vel       z-vel      x-accl      y-accl      z-accl      x-coor      y-coor      z-coor
    22626  3.44849E-03 9.58785E-01-3.03419E-01 1.35324E-02 4.91786E-01 1.74326E-01-2.71138E-03 1.67549E-01 1.73741E-01 4.66282E+00-2.72320E+01-4.52851E+01



 n o d a l   p r i n t   o u t   f o r   t i m e  s t e p   13802                              ( at time 6.8998095E+00 )

 nodal point  x-rot      y-rot       z-rot       x-rot vel   y-rot vel   z-rot vel   x-rot acc   y-rot acc   z-rot acc
    22626 -8.01134E-03 5.59472E-05 1.59017E-04-5.95716E-03 1.53622E-04 2.72144E-04-2.54021E-03 1.29283E-04 1.30476E-04



 n o d a l   p r i n t   o u t   f o r   t i m e  s t e p   14002                              ( at time 6.9997995E+00 )

 nodal point  x-disp     y-disp      z-disp      x-vel       y-vel       z-vel      x-accl      y-accl      z-accl      x-coor      y-coor      z-coor
    22626  4.63312E-03 1.00899E+00-2.85271E-01 1.28088E-02 5.10921E-01 1.86936E-01-7.23662E-03 1.91376E-01 1.26113E-01 4.66401E+00-2.71818E+01-4.52670E+01



 n o d a l   p r i n t   o u t   f o r   t i m e  s t e p   14002                              ( at time 6.9997995E+00 )

 nodal point  x-rot      y-rot       z-rot       x-rot vel   y-rot vel   z-rot vel   x-rot acc   y-rot acc   z-rot acc
    22626 -8.62157E-03 7.12876E-05 1.87505E-04-6.21580E-03 1.49337E-04 2.92229E-04-2.58663E-03-4.28545E-05 2.00878E-04



 n o d a l   p r i n t   o u t   f o r   t i m e  s t e p   14202                              ( at time 7.0997895E+00 )

 nodal point  x-disp     y-disp      z-disp      x-vel       y-vel       z-vel      x-accl      y-accl      z-accl      x-coor      y-coor      z-coor
    22626  6.04156E-03 1.06097E+00-2.65986E-01 1.29881E-02 5.30140E-01 2.01208E-01 1.79302E-03 1.92206E-01 1.42730E-01 4.66542E+00-2.71299E+01-4.52477E+01



 n o d a l   p r i n t   o u t   f o r   t i m e  s t e p   14202                              ( at time 7.0997895E+00 )

 nodal point  x-rot      y-rot       z-rot       x-rot vel   y-rot vel   z-rot vel   x-rot acc   y-rot acc   z-rot acc
    22626 -9.25650E-03 8.88903E-05 2.16041E-04-6.45011E-03 1.99654E-04 3.10090E-04-2.34334E-03 5.03221E-04 1.78622E-04



 n o d a l   p r i n t   o u t   f o r   t i m e  s t e p   14402                              ( at time 7.1997794E+00 )

 nodal point  x-disp     y-disp      z-disp      x-vel       y-vel       z-vel      x-accl      y-accl      z-accl      x-coor      y-coor      z-coor
    22626  7.45845E-03 1.11469E+00-2.45143E-01 1.46006E-02 5.45803E-01 2.14667E-01 1.61265E-02 1.56641E-01 1.34611E-01 4.66683E+00-2.70761E+01-4.52269E+01



 n o d a l   p r i n t   o u t   f o r   t i m e  s t e p   14402                              ( at time 7.1997794E+00 )

 nodal point  x-rot      y-rot       z-rot       x-rot vel   y-rot vel   z-rot vel   x-rot acc   y-rot acc   z-rot acc
    22626 -9.91646E-03 1.05864E-04 2.46373E-04-6.71340E-03 1.63305E-04 2.63359E-04-2.63315E-03-3.63528E-04-4.67357E-04



 n o d a l   p r i n t   o u t   f o r   t i m e  s t e p   14602                              ( at time 7.2997694E+00 )

 nodal point  x-disp     y-disp      z-disp      x-vel       y-vel       z-vel      x-accl      y-accl      z-accl      x-coor      y-coor      z-coor
    22626  8.82378E-03 1.17018E+00-2.22912E-01 1.37367E-02 5.63031E-01 2.27437E-01-8.63972E-03 1.72300E-01 1.27710E-01 4.66820E+00-2.70207E+01-4.52046E+01



 n o d a l   p r i n t   o u t   f o r   t i m e  s t e p   14602                              ( at time 7.2997694E+00 )

 nodal point  x-rot      y-rot       z-rot       x-rot vel   y-rot vel   z-rot vel   x-rot acc   y-rot acc   z-rot acc
    22626 -1.05984E-02 1.22838E-04 2.75042E-04-6.94150E-03 1.81919E-04 3.12394E-04-2.28131E-03 1.86154E-04 4.90396E-04



 n o d a l   p r i n t   o u t   f o r   t i m e  s t e p   14802                              ( at time 7.3997594E+00 )

 nodal point  x-disp     y-disp      z-disp      x-vel       y-vel       z-vel      x-accl      y-accl      z-accl      x-coor      y-coor      z-coor
    22626  1.03935E-02 1.22738E+00-1.99242E-01 1.49524E-02 5.79192E-01 2.43307E-01 1.21583E-02 1.61625E-01 1.58717E-01 4.66977E+00-2.69634E+01-4.51810E+01



 n o d a l   p r i n t   o u t   f o r   t i m e  s t e p   14802                              ( at time 7.3997594E+00 )

 nodal point  x-rot      y-rot       z-rot       x-rot vel   y-rot vel   z-rot vel   x-rot acc   y-rot acc   z-rot acc
    22626 -1.13018E-02 1.42095E-04 3.08116E-04-7.12726E-03 1.89319E-04 3.30219E-04-1.85775E-03 7.40099E-05 1.78275E-04



 n o d a l   p r i n t   o u t   f o r   t i m e  s t e p   15002                              ( at time 7.4997494E+00 )

 nodal point  x-disp     y-disp      z-disp      x-vel       y-vel       z-vel      x-accl      y-accl      z-accl      x-coor      y-coor      z-coor
    22626  1.19568E-02 1.28606E+00-1.74284E-01 1.71569E-02 5.96039E-01 2.55960E-01 2.20472E-02 1.68492E-01 1.26536E-01 4.67133E+00-2.69048E+01-4.51560E+01



 n o d a l   p r i n t   o u t   f o r   t i m e  s t e p   15002                              ( at time 7.4997494E+00 )

 nodal point  x-rot      y-rot       z-rot       x-rot vel   y-rot vel   z-rot vel   x-rot acc   y-rot acc   z-rot acc
    22626 -1.20245E-02 1.61140E-04 3.37826E-04-7.31258E-03 1.88898E-04 2.40830E-04-1.85338E-03-4.20562E-06-8.93980E-04



 n o d a l   p r i n t   o u t   f o r   t i m e  s t e p   15202                              ( at time 7.5997394E+00 )

 nodal point  x-disp     y-disp      z-disp      x-vel       y-vel       z-vel      x-accl      y-accl      z-accl      x-coor      y-coor      z-coor
    22626  1.33394E-02 1.34653E+00-1.48009E-01 1.46665E-02 6.11179E-01 2.67751E-01-2.49070E-02 1.51411E-01 1.17923E-01 4.67271E+00-2.68443E+01-4.51297E+01



 n o d a l   p r i n t   o u t   f o r   t i m e  s t e p   15202                              ( at time 7.5997394E+00 )

 nodal point  x-rot      y-rot       z-rot       x-rot vel   y-rot vel   z-rot vel   x-rot acc   y-rot acc   z-rot acc
    22626 -1.27638E-02 1.79490E-04 3.67362E-04-7.44667E-03 2.03173E-04 3.27114E-04-1.34103E-03 1.42760E-04 8.62926E-04



 n o d a l   p r i n t   o u t   f o r   t i m e  s t e p   15402                              ( at time 7.6997294E+00 )

 nodal point  x-disp     y-disp      z-disp      x-vel       y-vel       z-vel      x-accl      y-accl      z-accl      x-coor      y-coor      z-coor
    22626  1.48648E-02 1.40865E+00-1.20692E-01 1.29740E-02 6.28585E-01 2.78183E-01-1.69264E-02 1.74078E-01 1.04332E-01 4.67424E+00-2.67822E+01-4.51024E+01



 n o d a l   p r i n t   o u t   f o r   t i m e  s t e p   15402                              ( at time 7.6997294E+00 )

 nodal point  x-rot      y-rot       z-rot       x-rot vel   y-rot vel   z-rot vel   x-rot acc   y-rot acc   z-rot acc
    22626 -1.35182E-02 2.02707E-04 3.95724E-04-7.62074E-03 2.53087E-04 2.92262E-04-1.74082E-03 4.99189E-04-3.48550E-04



 n o d a l   p r i n t   o u t   f o r   t i m e  s t e p   15602                              ( at time 7.7997194E+00 )

 nodal point  x-disp     y-disp      z-disp      x-vel       y-vel       z-vel      x-accl      y-accl      z-accl      x-coor      y-coor      z-coor
    22626  1.63262E-02 1.47244E+00-9.19297E-02 1.26447E-02 6.47458E-01 2.94930E-01-3.29388E-03 1.88751E-01 1.67490E-01 4.67570E+00-2.67184E+01-4.50737E+01



 n o d a l   p r i n t   o u t   f o r   t i m e  s t e p   15602                              ( at time 7.7997194E+00 )

 nodal point  x-rot      y-rot       z-rot       x-rot vel   y-rot vel   z-rot vel   x-rot acc   y-rot acc   z-rot acc
    22626 -1.42860E-02 2.23417E-04 4.24513E-04-7.74319E-03 1.81969E-04 2.78771E-04-1.22465E-03-7.11255E-04-1.34922E-04



 n o d a l   p r i n t   o u t   f o r   t i m e  s t e p   15802                              ( at time 7.8997094E+00 )

 nodal point  x-disp     y-disp      z-disp      x-vel       y-vel       z-vel      x-accl      y-accl      z-accl      x-coor      y-coor      z-coor
    22626  1.76676E-02 1.53793E+00-6.19809E-02 1.45337E-02 6.62295E-01 3.04628E-01 1.88920E-02 1.48384E-01 9.69860E-02 4.67704E+00-2.66529E+01-4.50437E+01



 n o d a l   p r i n t   o u t   f o r   t i m e  s t e p   15802                              ( at time 7.8997094E+00 )

 nodal point  x-rot      y-rot       z-rot       x-rot vel   y-rot vel   z-rot vel   x-rot acc   y-rot acc   z-rot acc
    22626 -1.50645E-02 2.46560E-04 4.51842E-04-7.81024E-03 2.53992E-04 2.37242E-04-6.70597E-04 7.20308E-04-4.15334E-04



 n o d a l   p r i n t   o u t   f o r   t i m e  s t e p   16002                              ( at time 7.9996994E+00 )

 nodal point  x-disp     y-disp      z-disp      x-vel       y-vel       z-vel      x-accl      y-accl      z-accl      x-coor      y-coor      z-coor
    22626  1.91627E-02 1.60530E+00-3.09902E-02 1.47226E-02 6.85166E-01 3.16190E-01 1.88937E-03 2.28726E-01 1.15634E-01 4.67854E+00-2.65855E+01-4.50127E+01



 n o d a l   p r i n t   o u t   f o r   t i m e  s t e p   16002                              ( at time 7.9996994E+00 )

 nodal point  x-rot      y-rot       z-rot       x-rot vel   y-rot vel   z-rot vel   x-rot acc   y-rot acc   z-rot acc
    22626 -1.58562E-02 2.71112E-04 4.78147E-04-8.00883E-03 2.51168E-04 2.76473E-04-1.98612E-03-2.82390E-05 3.92348E-04



 n o d a l   p r i n t   o u t   f o r   t i m e  s t e p   16202                              ( at time 8.0996894E+00 )

 nodal point  x-disp     y-disp      z-disp      x-vel       y-vel       z-vel      x-accl      y-accl      z-accl      x-coor      y-coor      z-coor
    22626  2.04779E-02 1.67465E+00 1.37335E-03 1.32585E-02 7.01895E-01 3.29143E-01-1.46420E-02 1.67314E-01 1.29542E-01 4.67985E+00-2.65162E+01-4.49803E+01



 n o d a l   p r i n t   o u t   f o r   t i m e  s t e p   16202                              ( at time 8.0996894E+00 )

 nodal point  x-rot      y-rot       z-rot       x-rot vel   y-rot vel   z-rot vel   x-rot acc   y-rot acc   z-rot acc
    22626 -1.66584E-02 2.93186E-04 5.05856E-04-8.06241E-03 2.04966E-04 2.50728E-04-5.35853E-04-4.62075E-04-2.57478E-04



 n o d a l   p r i n t   o u t   f o r   t i m e  s t e p   16402                              ( at time 8.1996794E+00 )

 nodal point  x-disp     y-disp      z-disp      x-vel       y-vel       z-vel      x-accl      y-accl      z-accl      x-coor      y-coor      z-coor
    22626  2.18958E-02 1.74568E+00 3.49674E-02 1.28895E-02 7.21438E-01 3.43058E-01-3.69038E-03 1.95443E-01 1.39161E-01 4.68127E+00-2.64452E+01-4.49468E+01



 n o d a l   p r i n t   o u t   f o r   t i m e  s t e p   16402                              ( at time 8.1996794E+00 )

 nodal point  x-rot      y-rot       z-rot       x-rot vel   y-rot vel   z-rot vel   x-rot acc   y-rot acc   z-rot acc
    22626 -1.74696E-02 3.16747E-04 5.29704E-04-8.18595E-03 2.49661E-04 2.66015E-04-1.23545E-03 4.46997E-04 1.52882E-04



 n o d a l   p r i n t   o u t   f o r   t i m e  s t e p   16602                              ( at time 8.2996694E+00 )

 nodal point  x-disp     y-disp      z-disp      x-vel       y-vel       z-vel      x-accl      y-accl      z-accl      x-coor      y-coor      z-coor
    22626  2.31517E-02 1.81855E+00 6.98959E-02 1.44296E-02 7.38141E-01 3.55523E-01 1.54026E-02 1.67052E-01 1.24666E-01 4.68253E+00-2.63723E+01-4.49118E+01



 n o d a l   p r i n t   o u t   f o r   t i m e  s t e p   16602                              ( at time 8.2996694E+00 )

 nodal point  x-rot      y-rot       z-rot       x-rot vel   y-rot vel   z-rot vel   x-rot acc   y-rot acc   z-rot acc
    22626 -1.82901E-02 3.40925E-04 5.55362E-04-8.19395E-03 2.47017E-04 2.21317E-04-8.00925E-05-2.64435E-05-4.47019E-04



 n o d a l   p r i n t   o u t   f o r   t i m e  s t e p   16802                              ( at time 8.3996594E+00 )

 nodal point  x-disp     y-disp      z-disp      x-vel       y-vel       z-vel      x-accl      y-accl      z-accl      x-coor      y-coor      z-coor
    22626  2.44637E-02 1.89325E+00 1.05972E-01 1.16449E-02 7.55277E-01 3.68168E-01-2.78501E-02 1.71379E-01 1.26461E-01 4.68384E+00-2.62976E+01-4.48757E+01



 n o d a l   p r i n t   o u t   f o r   t i m e  s t e p   16802                              ( at time 8.3996594E+00 )

 nodal point  x-rot      y-rot       z-rot       x-rot vel   y-rot vel   z-rot vel   x-rot acc   y-rot acc   z-rot acc
    22626 -1.91157E-02 3.66130E-04 5.75978E-04-8.29008E-03 2.45069E-04 2.35368E-04-9.61306E-04-1.94829E-05 1.40526E-04



 n o d a l   p r i n t   o u t   f o r   t i m e  s t e p   17002                              ( at time 8.4996494E+00 )

 nodal point  x-disp     y-disp      z-disp      x-vel       y-vel       z-vel      x-accl      y-accl      z-accl      x-coor      y-coor      z-coor
    22626  2.58205E-02 1.96984E+00 1.43411E-01 1.20444E-02 7.74883E-01 3.80476E-01 3.99536E-03 1.96074E-01 1.23094E-01 4.68520E+00-2.62210E+01-4.48383E+01



 n o d a l   p r i n t   o u t   f o r   t i m e  s t e p   17002                              ( at time 8.4996494E+00 )

 nodal point  x-rot      y-rot       z-rot       x-rot vel   y-rot vel   z-rot vel   x-rot acc   y-rot acc   z-rot acc
    22626 -1.99538E-02 3.89592E-04 6.01034E-04-8.41887E-03 2.30012E-04 2.66472E-04-1.28804E-03-1.50585E-04 3.11071E-04



 n o d a l   p r i n t   o u t   f o r   t i m e  s t e p   17202                              ( at time 8.5996394E+00 )

 nodal point  x-disp     y-disp      z-disp      x-vel       y-vel       z-vel      x-accl      y-accl      z-accl      x-coor      y-coor      z-coor
    22626  2.69547E-02 2.04833E+00 1.82081E-01 1.43334E-02 7.90834E-01 3.93598E-01 2.28925E-02 1.59532E-01 1.31231E-01 4.68633E+00-2.61425E+01-4.47996E+01



 n o d a l   p r i n t   o u t   f o r   t i m e  s t e p   17202                              ( at time 8.5996394E+00 )

 nodal point  x-rot      y-rot       z-rot       x-rot vel   y-rot vel   z-rot vel   x-rot acc   y-rot acc   z-rot acc
    22626 -2.07996E-02 4.12325E-04 6.23405E-04-8.42848E-03 2.59138E-04 1.60025E-04-9.61222E-05 2.91295E-04-1.06458E-03



 n o d a l   p r i n t   o u t   f o r   t i m e  s t e p   17402                              ( at time 8.6996293E+00 )

 nodal point  x-disp     y-disp      z-disp      x-vel       y-vel       z-vel      x-accl      y-accl      z-accl      x-coor      y-coor      z-coor
    22626  2.82182E-02 2.12839E+00 2.22132E-01 1.27586E-02 8.11295E-01 4.08446E-01-1.57501E-02 2.04627E-01 1.48492E-01 4.68759E+00-2.60624E+01-4.47596E+01



 n o d a l   p r i n t   o u t   f o r   t i m e  s t e p   17402                              ( at time 8.6996293E+00 )

 nodal point  x-rot      y-rot       z-rot       x-rot vel   y-rot vel   z-rot vel   x-rot acc   y-rot acc   z-rot acc
    22626 -2.16489E-02 4.37372E-04 6.42572E-04-8.52793E-03 2.32409E-04 2.39803E-04-9.94622E-04-2.67317E-04 7.97847E-04



 n o d a l   p r i n t   o u t   f o r   t i m e  s t e p   17602                              ( at time 8.7996193E+00 )

 nodal point  x-disp     y-disp      z-disp      x-vel       y-vel       z-vel      x-accl      y-accl      z-accl      x-coor      y-coor      z-coor
    22626  2.93438E-02 2.21057E+00 2.63498E-01 1.08942E-02 8.29402E-01 4.20165E-01-1.86459E-02 1.81084E-01 1.17206E-01 4.68872E+00-2.59803E+01-4.47182E+01



 n o d a l   p r i n t   o u t   f o r   t i m e  s t e p   17602                              ( at time 8.7996193E+00 )

 nodal point  x-rot      y-rot       z-rot       x-rot vel   y-rot vel   z-rot vel   x-rot acc   y-rot acc   z-rot acc
    22626 -2.25092E-02 4.58917E-04 6.65110E-04-8.58570E-03 1.75905E-04 2.03455E-04-5.77758E-04-5.65098E-04-3.63509E-04



 n o d a l   p r i n t   o u t   f o r   t i m e  s t e p   17802                              ( at time 8.8996093E+00 )

 nodal point  x-disp     y-disp      z-disp      x-vel       y-vel       z-vel      x-accl      y-accl      z-accl      x-coor      y-coor      z-coor
    22626  3.05674E-02 2.29445E+00 3.06148E-01 1.07565E-02 8.49208E-01 4.32235E-01-1.37675E-03 1.98079E-01 1.20709E-01 4.68994E+00-2.58964E+01-4.46756E+01



 n o d a l   p r i n t   o u t   f o r   t i m e  s t e p   17802                              ( at time 8.8996093E+00 )

 nodal point  x-rot      y-rot       z-rot       x-rot vel   y-rot vel   z-rot vel   x-rot acc   y-rot acc   z-rot acc
    22626 -2.33731E-02 4.81706E-04 6.81816E-04-8.67562E-03 2.33801E-04 1.75060E-04-8.99292E-04 5.79020E-04-2.83985E-04



 n o d a l   p r i n t   o u t   f o r   t i m e  s t e p   18002                              ( at time 8.9995993E+00 )

 nodal point  x-disp     y-disp      z-disp      x-vel       y-vel       z-vel      x-accl      y-accl      z-accl      x-coor      y-coor      z-coor
    22626  3.16117E-02 2.38013E+00 3.50223E-01 1.09207E-02 8.65491E-01 4.48294E-01 1.64265E-03 1.62847E-01 1.60613E-01 4.69099E+00-2.58107E+01-4.46315E+01



 n o d a l   p r i n t   o u t   f o r   t i m e  s t e p   18002                              ( at time 8.9995993E+00 )

 nodal point  x-rot      y-rot       z-rot       x-rot vel   y-rot vel   z-rot vel   x-rot acc   y-rot acc   z-rot acc
    22626 -2.42444E-02 5.03888E-04 7.01534E-04-8.72596E-03 1.83900E-04 2.03579E-04-5.03468E-04-4.99057E-04 2.85223E-04



 n o d a l   p r i n t   o u t   f o r   t i m e  s t e p   18202                              ( at time 9.0995893E+00 )

 nodal point  x-disp     y-disp      z-disp      x-vel       y-vel       z-vel      x-accl      y-accl      z-accl      x-coor      y-coor      z-coor
    22626  3.26016E-02 2.46762E+00 3.95799E-01 9.89663E-03 8.83753E-01 4.62430E-01-1.02421E-02 1.82637E-01 1.41371E-01 4.69198E+00-2.57232E+01-4.45859E+01



 n o d a l   p r i n t   o u t   f o r   t i m e  s t e p   18202                              ( at time 9.0995893E+00 )

 nodal point  x-rot      y-rot       z-rot       x-rot vel   y-rot vel   z-rot vel   x-rot acc   y-rot acc   z-rot acc
    22626 -2.51223E-02 5.22542E-04 7.18754E-04-8.80956E-03 2.28332E-04 1.25578E-04-8.36077E-04 4.44358E-04-7.80086E-04



 n o d a l   p r i n t   o u t   f o r   t i m e  s t e p   18402                              ( at time 9.1995793E+00 )

 nodal point  x-disp     y-disp      z-disp      x-vel       y-vel       z-vel      x-accl      y-accl      z-accl      x-coor      y-coor      z-coor
    22626  3.36046E-02 2.55680E+00 4.42861E-01 8.88879E-03 8.99419E-01 4.77456E-01-1.00794E-02 1.56679E-01 1.50273E-01 4.69298E+00-2.56340E+01-4.45389E+01



 n o d a l   p r i n t   o u t   f o r   t i m e  s t e p   18402                              ( at time 9.1995793E+00 )

 nodal point  x-rot      y-rot       z-rot       x-rot vel   y-rot vel   z-rot vel   x-rot acc   y-rot acc   z-rot acc
    22626 -2.60070E-02 5.42925E-04 7.35190E-04-8.88869E-03 1.85809E-04 1.74633E-04-7.91322E-04-4.25273E-04 4.90593E-04



 n o d a l   p r i n t   o u t   f o r   t i m e  s t e p   18602                              ( at time 9.2995693E+00 )

 nodal point  x-disp     y-disp      z-disp      x-vel       y-vel       z-vel      x-accl      y-accl      z-accl      x-coor      y-coor      z-coor
    22626  3.48008E-02 2.64780E+00 4.91281E-01 1.05996E-02 9.18705E-01 4.91310E-01 1.71096E-02 1.92883E-01 1.38555E-01 4.69418E+00-2.55430E+01-4.44904E+01



 n o d a l   p r i n t   o u t   f o r   t i m e  s t e p   18602                              ( at time 9.2995693E+00 )

 nodal point  x-rot      y-rot       z-rot       x-rot vel   y-rot vel   z-rot vel   x-rot acc   y-rot acc   z-rot acc
    22626 -2.68991E-02 5.62797E-04 7.50132E-04-8.96587E-03 1.88479E-04 1.11436E-04-7.71949E-04 2.67021E-05-6.32029E-04



 n o d a l   p r i n t   o u t   f o r   t i m e  s t e p   18802                              ( at time 9.3995593E+00 )

 nodal point  x-disp     y-disp      z-disp      x-vel       y-vel       z-vel      x-accl      y-accl      z-accl      x-coor      y-coor      z-coor
    22626  3.57121E-02 2.74068E+00 5.41429E-01 1.22721E-02 9.37187E-01 5.08957E-01 1.67273E-02 1.84832E-01 1.76490E-01 4.69509E+00-2.54502E+01-4.44403E+01



 n o d a l   p r i n t   o u t   f o r   t i m e  s t e p   18802                              ( at time 9.3995593E+00 )

 nodal point  x-rot      y-rot       z-rot       x-rot vel   y-rot vel   z-rot vel   x-rot acc   y-rot acc   z-rot acc
    22626 -2.78003E-02 5.79823E-04 7.64457E-04-9.06650E-03 1.64322E-04 1.43944E-04-1.00641E-03-2.41594E-04 3.25114E-04



 n o d a l   p r i n t   o u t   f o r   t i m e  s t e p   19002                              ( at time 9.4995493E+00 )

 nodal point  x-disp     y-disp      z-disp      x-vel       y-vel       z-vel      x-accl      y-accl      z-accl      x-coor      y-coor      z-coor
    22626  3.66965E-02 2.83523E+00 5.93139E-01 1.01006E-02 9.54309E-01 5.25177E-01-2.17171E-02 1.71237E-01 1.62218E-01 4.69607E+00-2.53556E+01-4.43886E+01



 n o d a l   p r i n t   o u t   f o r   t i m e  s t e p   19002                              ( at time 9.4995493E+00 )

 nodal point  x-rot      y-rot       z-rot       x-rot vel   y-rot vel   z-rot vel   x-rot acc   y-rot acc   z-rot acc
    22626 -2.87099E-02 5.96022E-04 7.79320E-04-9.14127E-03 1.55436E-04 1.51124E-04-7.47704E-04-8.88627E-05 7.18041E-05



 n o d a l   p r i n t   o u t   f o r   t i m e  s t e p   19202                              ( at time 9.5995393E+00 )

 nodal point  x-disp     y-disp      z-disp      x-vel       y-vel       z-vel      x-accl      y-accl      z-accl      x-coor      y-coor      z-coor
    22626  3.78711E-02 2.93166E+00 6.46614E-01 9.65113E-03 9.74012E-01 5.44656E-01-4.49556E-03 1.97049E-01 1.94804E-01 4.69725E+00-2.52592E+01-4.43351E+01



 n o d a l   p r i n t   o u t   f o r   t i m e  s t e p   19202                              ( at time 9.5995393E+00 )

 nodal point  x-rot      y-rot       z-rot       x-rot vel   y-rot vel   z-rot vel   x-rot acc   y-rot acc   z-rot acc
    22626 -2.96307E-02 6.10993E-04 7.90892E-04-9.26743E-03 1.21459E-04 1.52844E-04-1.26179E-03-3.39803E-04 1.71964E-05



 n o d a l   p r i n t   o u t   f o r   t i m e  s t e p   19402                              ( at time 9.6995293E+00 )

 nodal point  x-disp     y-disp      z-disp      x-vel       y-vel       z-vel      x-accl      y-accl      z-accl      x-coor      y-coor      z-coor
    22626  3.87440E-02 3.02987E+00 7.01751E-01 1.01891E-02 9.90948E-01 5.59772E-01 5.38026E-03 1.69376E-01 1.51177E-01 4.69812E+00-2.51610E+01-4.42800E+01



 n o d a l   p r i n t   o u t   f o r   t i m e  s t e p   19402                              ( at time 9.6995293E+00 )

 nodal point  x-rot      y-rot       z-rot       x-rot vel   y-rot vel   z-rot vel   x-rot acc   y-rot acc   z-rot acc
    22626 -3.05626E-02 6.24276E-04 8.03988E-04-9.34901E-03 1.37040E-04 9.91140E-05-8.15865E-04 1.55822E-04-5.37350E-04



 n o d a l   p r i n t   o u t   f o r   t i m e  s t e p   19602                              ( at time 9.7995193E+00 )

 nodal point  x-disp     y-disp      z-disp      x-vel       y-vel       z-vel      x-accl      y-accl      z-accl      x-coor      y-coor      z-coor
    22626  3.98040E-02 3.12992E+00 7.58681E-01 9.03227E-03 1.01023E+00 5.80030E-01-1.15695E-02 1.92861E-01 2.02603E-01 4.69918E+00-2.50609E+01-4.42230E+01



 n o d a l   p r i n t   o u t   f o r   t i m e  s t e p   19602                              ( at time 9.7995193E+00 )

 nodal point  x-rot      y-rot       z-rot       x-rot vel   y-rot vel   z-rot vel   x-rot acc   y-rot acc   z-rot acc
    22626 -3.15072E-02 6.38875E-04 8.15848E-04-9.48170E-03 1.18100E-04 1.37798E-04-1.32700E-03-1.89420E-04 3.86883E-04



 n o d a l   p r i n t   o u t   f o r   t i m e  s t e p   19802                              ( at time 9.8995093E+00 )

 nodal point  x-disp     y-disp      z-disp      x-vel       y-vel       z-vel      x-accl      y-accl      z-accl      x-coor      y-coor      z-coor
    22626  4.09391E-02 3.23172E+00 8.17601E-01 1.09280E-02 1.02697E+00 5.99031E-01 1.89596E-02 1.67444E-01 1.90024E-01 4.70031E+00-2.49591E+01-4.41641E+01



 n o d a l   p r i n t   o u t   f o r   t i m e  s t e p   19802                              ( at time 9.8995093E+00 )

 nodal point  x-rot      y-rot       z-rot       x-rot vel   y-rot vel   z-rot vel   x-rot acc   y-rot acc   z-rot acc
    22626 -3.24650E-02 6.52820E-04 8.26915E-04-9.65052E-03 1.47094E-04 1.13080E-04-1.68833E-03 2.89978E-04-2.47214E-04



 n o d a l   p r i n t   o u t   f o r   t i m e  s t e p   20003                              ( at time 9.9999992E+00 )

 nodal point  x-disp     y-disp      z-disp      x-vel       y-vel       z-vel      x-accl      y-accl      z-accl      x-coor      y-coor      z-coor
[...]
    22626 -2.23451E-01 2.95680E-03 1.11711E-04-1.81792E-02 2.51078E-04-1.49841E-04 3.83442E-04 3.33829E-04 9.11997E-05



 n o d a l   p r i n t   o u t   f o r   t i m e  s t e p   45205                              ( at time 2.2599738E+01 )

 nodal point  x-disp     y-disp      z-disp      x-vel       y-vel       z-vel      x-accl      y-accl      z-accl      x-coor      y-coor      z-coor
    22626  3.61893E-01 2.31006E+01 1.96861E+01 2.03873E-02 1.95011E+00 1.14755E+00-3.48967E-03 6.09525E-02-1.38471E-01 5.02127E+00-5.09022E+00-2.52956E+01



 n o d a l   p r i n t   o u t   f o r   t i m e  s t e p   45205                              ( at time 2.2599738E+01 )

 nodal point  x-rot      y-rot       z-rot       x-rot vel   y-rot vel   z-rot vel   x-rot acc   y-rot acc   z-rot acc
    22626 -2.25270E-01 2.98048E-03 9.68091E-05-1.81890E-02 2.27472E-04-1.43400E-04-9.84312E-05-2.36084E-04 6.44087E-05



 n o d a l   p r i n t   o u t   f o r   t i m e  s t e p   45405                              ( at time 2.2699728E+01 )

 nodal point  x-disp     y-disp      z-disp      x-vel       y-vel       z-vel      x-accl      y-accl      z-accl      x-coor      y-coor      z-coor
    22626  3.64054E-01 2.32960E+01 1.98003E+01 2.32133E-02 1.95658E+00 1.13489E+00 2.82632E-02 6.46925E-02-1.26607E-01 5.02343E+00-4.89483E+00-2.51815E+01



 n o d a l   p r i n t   o u t   f o r   t i m e  s t e p   45405                              ( at time 2.2699728E+01 )

 nodal point  x-rot      y-rot       z-rot       x-rot vel   y-rot vel   z-rot vel   x-rot acc   y-rot acc   z-rot acc
    22626 -2.27094E-01 3.00548E-03 8.27911E-05-1.82689E-02 2.87173E-04-1.37745E-04-7.98940E-04 5.97078E-04 5.65567E-05



 n o d a l   p r i n t   o u t   f o r   t i m e  s t e p   45605                              ( at time 2.2799718E+01 )

 nodal point  x-disp     y-disp      z-disp      x-vel       y-vel       z-vel      x-accl      y-accl      z-accl      x-coor      y-coor      z-coor
    22626  3.66361E-01 2.34917E+01 1.99128E+01 2.29059E-02 1.95916E+00 1.11743E+00-3.07415E-03 2.58434E-02-1.74685E-01 5.02574E+00-4.69913E+00-2.50689E+01



 n o d a l   p r i n t   o u t   f o r   t i m e  s t e p   45605                              ( at time 2.2799718E+01 )

 nodal point  x-rot      y-rot       z-rot       x-rot vel   y-rot vel   z-rot vel   x-rot acc   y-rot acc   z-rot acc
    22626 -2.28920E-01 3.03833E-03 7.06454E-05-1.82368E-02 3.34949E-04-1.00896E-04 3.20777E-04 4.77807E-04 3.68522E-04



 n o d a l   p r i n t   o u t   f o r   t i m e  s t e p   45805                              ( at time 2.2899708E+01 )

 nodal point  x-disp     y-disp      z-disp      x-vel       y-vel       z-vel      x-accl      y-accl      z-accl      x-coor      y-coor      z-coor
    22626  3.68588E-01 2.36878E+01 2.00240E+01 2.07445E-02 1.96327E+00 1.10502E+00-2.16163E-02 4.10888E-02-1.24114E-01 5.02796E+00-4.50305E+00-2.49578E+01



 n o d a l   p r i n t   o u t   f o r   t i m e  s t e p   45805                              ( at time 2.2899708E+01 )

 nodal point  x-rot      y-rot       z-rot       x-rot vel   y-rot vel   z-rot vel   x-rot acc   y-rot acc   z-rot acc
    22626 -2.30743E-01 3.07029E-03 6.16080E-05-1.82390E-02 3.18368E-04-7.34745E-05-2.11806E-05-1.65828E-04 2.74250E-04



 n o d a l   p r i n t   o u t   f o r   t i m e  s t e p   46005                              ( at time 2.2999698E+01 )

 nodal point  x-disp     y-disp      z-disp      x-vel       y-vel       z-vel      x-accl      y-accl      z-accl      x-coor      y-coor      z-coor
    22626  3.70614E-01 2.38844E+01 2.01337E+01 2.08153E-02 1.96865E+00 1.08966E+00 7.07870E-04 5.38315E-02-1.53609E-01 5.02999E+00-4.30641E+00-2.48481E+01



 n o d a l   p r i n t   o u t   f o r   t i m e  s t e p   46005                              ( at time 2.2999698E+01 )

 nodal point  x-rot      y-rot       z-rot       x-rot vel   y-rot vel   z-rot vel   x-rot acc   y-rot acc   z-rot acc
    22626 -2.32571E-01 3.10417E-03 5.50928E-05-1.82853E-02 3.64148E-04-5.36503E-05-4.63506E-04 4.57843E-04 1.98260E-04



 n o d a l   p r i n t   o u t   f o r   t i m e  s t e p   46205                              ( at time 2.3099688E+01 )

 nodal point  x-disp     y-disp      z-disp      x-vel       y-vel       z-vel      x-accl      y-accl      z-accl      x-coor      y-coor      z-coor
    22626  3.72767E-01 2.40815E+01 2.02420E+01 2.14185E-02 1.97280E+00 1.07717E+00 6.03260E-03 4.15228E-02-1.24835E-01 5.03214E+00-4.10937E+00-2.47397E+01



 n o d a l   p r i n t   o u t   f o r   t i m e  s t e p   46205                              ( at time 2.3099688E+01 )

 nodal point  x-rot      y-rot       z-rot       x-rot vel   y-rot vel   z-rot vel   x-rot acc   y-rot acc   z-rot acc
    22626 -2.34399E-01 3.14177E-03 5.17860E-05-1.82680E-02 3.73437E-04-9.22654E-06 1.72705E-04 9.29010E-05 4.44286E-04



 n o d a l   p r i n t   o u t   f o r   t i m e  s t e p   46405                              ( at time 2.3199678E+01 )

 nodal point  x-disp     y-disp      z-disp      x-vel       y-vel       z-vel      x-accl      y-accl      z-accl      x-coor      y-coor      z-coor
    22626  3.74817E-01 2.42789E+01 2.03490E+01 1.91426E-02 1.97557E+00 1.06423E+00-2.27611E-02 2.76603E-02-1.29464E-01 5.03419E+00-3.91197E+00-2.46327E+01



 n o d a l   p r i n t   o u t   f o r   t i m e  s t e p   46405                              ( at time 2.3199678E+01 )

 nodal point  x-rot      y-rot       z-rot       x-rot vel   y-rot vel   z-rot vel   x-rot acc   y-rot acc   z-rot acc
    22626 -2.36227E-01 3.18045E-03 5.19584E-05-1.83080E-02 3.81346E-04-9.82070E-06-3.99798E-04 7.90882E-05-5.94219E-06



 n o d a l   p r i n t   o u t   f o r   t i m e  s t e p   46605                              ( at time 2.3299668E+01 )

 nodal point  x-disp     y-disp      z-disp      x-vel       y-vel       z-vel      x-accl      y-accl      z-accl      x-coor      y-coor      z-coor
    22626  3.76619E-01 2.44766E+01 2.04548E+01 1.80928E-02 1.98093E+00 1.05073E+00-1.04985E-02 5.36573E-02-1.35049E-01 5.03599E+00-3.71420E+00-2.45270E+01



 n o d a l   p r i n t   o u t   f o r   t i m e  s t e p   46605                              ( at time 2.3299668E+01 )

 nodal point  x-rot      y-rot       z-rot       x-rot vel   y-rot vel   z-rot vel   x-rot acc   y-rot acc   z-rot acc
    22626 -2.38059E-01 3.21957E-03 4.97961E-05-1.83183E-02 3.89847E-04-4.01920E-05-1.03202E-04 8.50290E-05-3.03746E-04



 n o d a l   p r i n t   o u t   f o r   t i m e  s t e p   46805                              ( at time 2.3399658E+01 )

 nodal point  x-disp     y-disp      z-disp      x-vel       y-vel       z-vel      x-accl      y-accl      z-accl      x-coor      y-coor      z-coor
    22626  3.78362E-01 2.46748E+01 2.05592E+01 1.70467E-02 1.98315E+00 1.03922E+00-1.04618E-02 2.22215E-02-1.15026E-01 5.03774E+00-3.51599E+00-2.44225E+01



 n o d a l   p r i n t   o u t   f o r   t i m e  s t e p   46805                              ( at time 2.3399658E+01 )

 nodal point  x-rot      y-rot       z-rot       x-rot vel   y-rot vel   z-rot vel   x-rot acc   y-rot acc   z-rot acc
    22626 -2.39890E-01 3.25832E-03 5.06618E-05-1.83084E-02 4.00304E-04 5.02504E-05 9.88410E-05 1.04574E-04 9.04506E-04



 n o d a l   p r i n t   o u t   f o r   t i m e  s t e p   47005                              ( at time 2.3499648E+01 )

 nodal point  x-disp     y-disp      z-disp      x-vel       y-vel       z-vel      x-accl      y-accl      z-accl      x-coor      y-coor      z-coor
    22626  3.80060E-01 2.48732E+01 2.06626E+01 1.55655E-02 1.98591E+00 1.02790E+00-1.48134E-02 2.75721E-02-1.13231E-01 5.03944E+00-3.31758E+00-2.43192E+01



 n o d a l   p r i n t   o u t   f o r   t i m e  s t e p   47005                              ( at time 2.3499648E+01 )

 nodal point  x-rot      y-rot       z-rot       x-rot vel   y-rot vel   z-rot vel   x-rot acc   y-rot acc   z-rot acc
    22626 -2.41724E-01 3.29901E-03 5.57227E-05-1.83621E-02 4.16532E-04 4.11510E-05-5.36770E-04 1.62295E-04-9.10020E-05



 n o d a l   p r i n t   o u t   f o r   t i m e  s t e p   47205                              ( at time 2.3599638E+01 )

 nodal point  x-disp     y-disp      z-disp      x-vel       y-vel       z-vel      x-accl      y-accl      z-accl      x-coor      y-coor      z-coor
    22626  3.81476E-01 2.50720E+01 2.07648E+01 1.28021E-02 1.98927E+00 1.01679E+00-2.76378E-02 3.35683E-02-1.11152E-01 5.04085E+00-3.11885E+00-2.42169E+01



 n o d a l   p r i n t   o u t   f o r   t i m e  s t e p   47205                              ( at time 2.3599638E+01 )

 nodal point  x-rot      y-rot       z-rot       x-rot vel   y-rot vel   z-rot vel   x-rot acc   y-rot acc   z-rot acc
    22626 -2.43559E-01 3.33955E-03 5.77149E-05-1.83434E-02 3.96069E-04 1.46206E-05 1.87440E-04-2.04652E-04-2.65334E-04



 n o d a l   p r i n t   o u t   f o r   t i m e  s t e p   47405                              ( at time 2.3699628E+01 )

 nodal point  x-disp     y-disp      z-disp      x-vel       y-vel       z-vel      x-accl      y-accl      z-accl      x-coor      y-coor      z-coor
    22626  3.82764E-01 2.52710E+01 2.08660E+01 1.38337E-02 1.99093E+00 1.00851E+00 1.03176E-02 1.66026E-02-8.28318E-02 5.04214E+00-2.91985E+00-2.41157E+01



 n o d a l   p r i n t   o u t   f o r   t i m e  s t e p   47405                              ( at time 2.3699628E+01 )

 nodal point  x-rot      y-rot       z-rot       x-rot vel   y-rot vel   z-rot vel   x-rot acc   y-rot acc   z-rot acc
    22626 -2.45395E-01 3.37979E-03 6.01914E-05-1.83818E-02 4.03177E-04 3.18388E-05-3.84765E-04 7.10906E-05 1.72197E-04



 n o d a l   p r i n t   o u t   f o r   t i m e  s t e p   47605                              ( at time 2.3799618E+01 )

 nodal point  x-disp     y-disp      z-disp      x-vel       y-vel       z-vel      x-accl      y-accl      z-accl      x-coor      y-coor      z-coor
    22626  3.84173E-01 2.54701E+01 2.09664E+01 1.38936E-02 1.99311E+00 9.98631E-01 5.99056E-04 2.18535E-02-9.87639E-02 5.04355E+00-2.72070E+00-2.40154E+01



 n o d a l   p r i n t   o u t   f o r   t i m e  s t e p   47605                              ( at time 2.3799618E+01 )

 nodal point  x-rot      y-rot       z-rot       x-rot vel   y-rot vel   z-rot vel   x-rot acc   y-rot acc   z-rot acc
    22626 -2.47233E-01 3.42085E-03 6.30771E-05-1.83670E-02 4.17328E-04 2.97221E-05 1.48656E-04 1.41521E-04-2.11687E-05



 n o d a l   p r i n t   o u t   f o r   t i m e  s t e p   47805                              ( at time 2.3899608E+01 )

 nodal point  x-disp     y-disp      z-disp      x-vel       y-vel       z-vel      x-accl      y-accl      z-accl      x-coor      y-coor      z-coor
    22626  3.85390E-01 2.56696E+01 2.10657E+01 1.07663E-02 1.99417E+00 9.89933E-01-3.12759E-02 1.05987E-02-8.69890E-02 5.04477E+00-2.52128E+00-2.39160E+01



 n o d a l   p r i n t   o u t   f o r   t i m e  s t e p   47805                              ( at time 2.3899608E+01 )

 nodal point  x-rot      y-rot       z-rot       x-rot vel   y-rot vel   z-rot vel   x-rot acc   y-rot acc   z-rot acc
    22626 -2.49067E-01 3.46107E-03 6.48836E-05-1.83224E-02 3.92068E-04 5.31392E-06 4.45679E-04-2.52618E-04-2.44104E-04



 n o d a l   p r i n t   o u t   f o r   t i m e  s t e p   48005                              ( at time 2.3999598E+01 )

 nodal point  x-disp     y-disp      z-disp      x-vel       y-vel       z-vel      x-accl      y-accl      z-accl      x-coor      y-coor      z-coor
    22626  3.86485E-01 2.58690E+01 2.11644E+01 1.12572E-02 1.99606E+00 9.83554E-01 4.90923E-03 1.88681E-02-6.37954E-02 5.04586E+00-2.32181E+00-2.38173E+01



 n o d a l   p r i n t   o u t   f o r   t i m e  s t e p   48005                              ( at time 2.3999598E+01 )

 nodal point  x-rot      y-rot       z-rot       x-rot vel   y-rot vel   z-rot vel   x-rot acc   y-rot acc   z-rot acc
    22626 -2.50900E-01 3.49953E-03 6.25779E-05-1.83495E-02 3.86639E-04-3.02398E-05-2.70579E-04-5.42998E-05-3.55577E-04



 n o d a l   p r i n t   o u t   f o r   t i m e  s t e p   48205                              ( at time 2.4099588E+01 )

 nodal point  x-disp     y-disp      z-disp      x-vel       y-vel       z-vel      x-accl      y-accl      z-accl      x-coor      y-coor      z-coor
    22626  3.87708E-01 2.60686E+01 2.12624E+01 1.28396E-02 1.99587E+00 9.77593E-01 1.58254E-02-1.90275E-03-5.96161E-02 5.04708E+00-2.12227E+00-2.37193E+01



 n o d a l   p r i n t   o u t   f o r   t i m e  s t e p   48205                              ( at time 2.4099588E+01 )

 nodal point  x-rot      y-rot       z-rot       x-rot vel   y-rot vel   z-rot vel   x-rot acc   y-rot acc   z-rot acc
    22626 -2.52735E-01 3.53972E-03 5.96719E-05-1.83267E-02 4.01212E-04-2.17946E-05 2.27636E-04 1.45741E-04 8.44595E-05



 n o d a l   p r i n t   o u t   f o r   t i m e  s t e p   48405                              ( at time 2.4199578E+01 )

 nodal point  x-disp     y-disp      z-disp      x-vel       y-vel       z-vel      x-accl      y-accl      z-accl      x-coor      y-coor      z-coor
    22626  3.88869E-01 2.62681E+01 2.13598E+01 1.09615E-02 1.99566E+00 9.69715E-01-1.87828E-02-2.12693E-03-7.87864E-02 5.04824E+00-1.92269E+00-2.36219E+01



 n o d a l   p r i n t   o u t   f o r   t i m e  s t e p   48405                              ( at time 2.4199578E+01 )

 nodal point  x-rot      y-rot       z-rot       x-rot vel   y-rot vel   z-rot vel   x-rot acc   y-rot acc   z-rot acc
    22626 -2.54566E-01 3.57795E-03 5.68224E-05-1.82821E-02 3.59284E-04-5.25474E-05 4.46395E-04-4.19325E-04-3.07561E-04



 n o d a l   p r i n t   o u t   f o r   t i m e  s t e p   48605                              ( at time 2.4299568E+01 )

 nodal point  x-disp     y-disp      z-disp      x-vel       y-vel       z-vel      x-accl      y-accl      z-accl      x-coor      y-coor      z-coor
    22626  3.89868E-01 2.64676E+01 2.14565E+01 9.32570E-03 1.99400E+00 9.64254E-01-1.63595E-02-1.65358E-02-5.46100E-02 5.04924E+00-1.72327E+00-2.35253E+01



 n o d a l   p r i n t   o u t   f o r   t i m e  s t e p   48605                              ( at time 2.4299568E+01 )

 nodal point  x-rot      y-rot       z-rot       x-rot vel   y-rot vel   z-rot vel   x-rot acc   y-rot acc   z-rot acc
    22626 -2.56393E-01 3.61274E-03 4.90006E-05-1.82717E-02 3.58327E-04-9.88035E-05 1.04169E-04-9.56847E-06-4.62603E-04



 n o d a l   p r i n t   o u t   f o r   t i m e  s t e p   48805                              ( at time 2.4399558E+01 )

 nodal point  x-disp     y-disp      z-disp      x-vel       y-vel       z-vel      x-accl      y-accl      z-accl      x-coor      y-coor      z-coor
    22626  3.90931E-01 2.66670E+01 2.15527E+01 1.12118E-02 1.99329E+00 9.61076E-01 1.88630E-02-7.11625E-03-3.17901E-02 5.05031E+00-1.52388E+00-2.34290E+01



 n o d a l   p r i n t   o u t   f o r   t i m e  s t e p   48805                              ( at time 2.4399558E+01 )

 nodal point  x-rot      y-rot       z-rot       x-rot vel   y-rot vel   z-rot vel   x-rot acc   y-rot acc   z-rot acc
    22626 -2.58218E-01 3.64821E-03 3.87207E-05-1.82333E-02 3.42071E-04-1.01223E-04 3.83461E-04-1.62576E-04-2.42005E-05



 n o d a l   p r i n t   o u t   f o r   t i m e  s t e p   49006                              ( at time 2.4500048E+01 )

 nodal point  x-disp     y-disp      z-disp      x-vel       y-vel       z-vel      x-accl      y-accl      z-accl      x-coor      y-coor      z-coor
    22626  3.92033E-01 2.68672E+01 2.16490E+01 9.64667E-03 1.99203E+00 9.56803E-01-1.55755E-02-1.25190E-02-4.25222E-02 5.05141E+00-1.32366E+00-2.33327E+01



 n o d a l   p r i n t   o u t   f o r   t i m e  s t e p   49006                              ( at time 2.4500048E+01 )

 nodal point  x-rot      y-rot       z-rot       x-rot vel   y-rot vel   z-rot vel   x-rot acc   y-rot acc   z-rot acc
    22626 -2.60048E-01 3.68058E-03 2.84688E-05-1.82068E-02 3.06318E-04-1.14732E-04 2.64266E-04-3.55792E-04-1.34430E-04



 n o d a l   p r i n t   o u t   f o r   t i m e  s t e p   49206                              ( at time 2.4600038E+01 )

 nodal point  x-disp     y-disp      z-disp      x-vel       y-vel       z-vel      x-accl      y-accl      z-accl      x-coor      y-coor      z-coor
    22626  3.92992E-01 2.70662E+01 2.17445E+01 1.00127E-02 1.98969E+00 9.52460E-01 3.66066E-03-2.34530E-02-4.34295E-02 5.05237E+00-1.12460E+00-2.32372E+01



 n o d a l   p r i n t   o u t   f o r   t i m e  s t e p   49206                              ( at time 2.4600038E+01 )

 nodal point  x-rot      y-rot       z-rot       x-rot vel   y-rot vel   z-rot vel   x-rot acc   y-rot acc   z-rot acc
    22626 -2.61867E-01 3.71111E-03 1.50327E-05-1.81742E-02 2.99619E-04-1.49244E-04 3.25415E-04-6.69973E-05-3.45150E-04



 n o d a l   p r i n t   o u t   f o r   t i m e  s t e p   49406                              ( at time 2.4700028E+01 )

 nodal point  x-disp     y-disp      z-disp      x-vel       y-vel       z-vel      x-accl      y-accl      z-accl      x-coor      y-coor      z-coor
    22626  3.94034E-01 2.72651E+01 2.18395E+01 1.01671E-02 1.98829E+00 9.48342E-01 1.54386E-03-1.39717E-02-4.11890E-02 5.05341E+00-9.25711E-01-2.31422E+01



 n o d a l   p r i n t   o u t   f o r   t i m e  s t e p   49406                              ( at time 2.4700028E+01 )

 nodal point  x-rot      y-rot       z-rot       x-rot vel   y-rot vel   z-rot vel   x-rot acc   y-rot acc   z-rot acc
    22626 -2.63681E-01 3.74138E-03-1.00243E-07-1.81374E-02 2.99064E-04-1.41716E-04 3.68155E-04-5.54518E-06 7.52861E-05



 n o d a l   p r i n t   o u t   f o r   t i m e  s t e p   49606                              ( at time 2.4800018E+01 )

 nodal point  x-disp     y-disp      z-disp      x-vel       y-vel       z-vel      x-accl      y-accl      z-accl      x-coor      y-coor      z-coor
    22626  3.95082E-01 2.74638E+01 2.19342E+01 1.17957E-02 1.98614E+00 9.46945E-01 1.62877E-02-2.15216E-02-1.39714E-02 5.05446E+00-7.26995E-01-2.30475E+01



 n o d a l   p r i n t   o u t   f o r   t i m e  s t e p   49606                              ( at time 2.4800018E+01 )

 nodal point  x-rot      y-rot       z-rot       x-rot vel   y-rot vel   z-rot vel   x-rot acc   y-rot acc   z-rot acc
    22626 -2.65494E-01 3.77074E-03-1.44204E-05-1.81204E-02 2.91288E-04-1.50101E-04 1.70485E-04-7.77688E-05-8.38544E-05



 n o d a l   p r i n t   o u t   f o r   t i m e  s t e p   49806                              ( at time 2.4900008E+01 )

 nodal point  x-disp     y-disp      z-disp      x-vel       y-vel       z-vel      x-accl      y-accl      z-accl      x-coor      y-coor      z-coor
    22626  3.96221E-01 2.76623E+01 2.20288E+01 1.10589E-02 1.98292E+00 9.44990E-01-7.36881E-03-3.21543E-02-1.95531E-02 5.05560E+00-5.28572E-01-2.29529E+01



 n o d a l   p r i n t   o u t   f o r   t i m e  s t e p   49806                              ( at time 2.4900008E+01 )

 nodal point  x-rot      y-rot       z-rot       x-rot vel   y-rot vel   z-rot vel   x-rot acc   y-rot acc   z-rot acc
    22626 -2.67305E-01 3.80039E-03-2.97266E-05-1.81000E-02 2.97795E-04-1.56358E-04 2.03256E-04 6.50732E-05-6.25749E-05



 n o d a l   p r i n t   o u t   f o r   t i m e  s t e p   50006                              ( at time 2.4999998E+01 )

 nodal point  x-disp     y-disp      z-disp      x-vel       y-vel       z-vel      x-accl      y-accl      z-accl      x-coor      y-coor      z-coor
    22626  3.97342E-01 2.78604E+01 2.21232E+01 1.09802E-02 1.98080E+00 9.42445E-01-7.86462E-04-2.12307E-02-2.54511E-02 5.05672E+00-3.30419E-01-2.28585E+01



 n o d a l   p r i n t   o u t   f o r   t i m e  s t e p   50006                              ( at time 2.4999998E+01 )

 nodal point  x-rot      y-rot       z-rot       x-rot vel   y-rot vel   z-rot vel   x-rot acc   y-rot acc   z-rot acc
    22626 -2.69114E-01 3.83021E-03-4.54644E-05-1.80695E-02 2.95137E-04-1.46847E-04 3.05371E-04-2.65777E-05 9.51101E-05
