 LSTC 50th% Full_FE H-III Dummy (Beta Version, February 17, 2019)        
                    ls-dyna smp s R16 R16.0_619_d222963 date 03/18/2025

{BEGIN LEGEND}
 Entity #        Title
        1     Upper_Neck_Force_INJURY                                              
{END LEGEND}



 line#1  section#     time        x-force     y-force     z-force    magnitude
 line#2  resultant  moments       x-moment    y-moment    z-moment   magnitude
 line#3  centroids                x           y           z            area  
           1    0.00000E+00     0.0000E+00  0.0000E+00  0.0000E+00  0.0000E+00
ac ID =   33377                 0.0000E+00  0.0000E+00  0.0000E+00  0.0000E+00
                               -3.7437E-01  1.0501E+01 -4.6940E+01  0.0000E+00

           1    1.00490E-01     1.3594E-04 -4.9878E-03  2.5982E-01  2.5987E-01
ac ID =   33377                 4.2550E-01 -1.2521E+00 -2.7105E-02  1.3227E+00
                               -3.7387E-01  1.0590E+01 -4.6886E+01  2.5147E+03

           1    2.00480E-01    -4.4285E-02  4.3733E-04  4.4129E-01  4.4351E-01
ac ID =   33377                 3.0594E-01 -1.5977E+00  2.1481E-02  1.6269E+00
                               -3.7386E-01  1.0591E+01 -4.6888E+01  2.5147E+03

           1    3.00470E-01     1.4928E-02 -3.6325E-03  2.1787E-01  2.1841E-01
ac ID =   33377                 2.4738E-02 -3.3782E-01  6.0275E-02  3.4404E-01
                               -3.7382E-01  1.0591E+01 -4.6889E+01  2.5147E+03

           1    4.00460E-01     3.2995E-03  1.0415E-02  8.9002E-02  8.9670E-02
ac ID =   33377                -4.9371E-01 -9.3980E-01  2.5664E-03  1.0616E+00
                               -3.7383E-01  1.0592E+01 -4.6890E+01  2.5147E+03

           1    5.00450E-01    -3.8898E-02  3.7976E-03  1.6464E-01  1.6921E-01
ac ID =   33377                -3.9001E-01 -1.4617E+00 -1.0777E-01  1.5167E+00
                               -3.7386E-01  1.0594E+01 -4.6893E+01  2.5147E+03

           1    6.00440E-01    -1.0110E-02  3.7931E-03  3.4766E-01  3.4782E-01
ac ID =   33377                 1.0138E-01 -1.2863E+00 -3.4682E-02  1.2908E+00
                               -3.7386E-01  1.0595E+01 -4.6897E+01  2.5147E+03

           1    7.00430E-01     4.4192E-03 -5.6947E-03  2.9794E-01  2.9803E-01
ac ID =   33377                 1.3035E-01 -4.4433E-01  9.0373E-02  4.7180E-01
                               -3.7391E-01  1.0597E+01 -4.6901E+01  2.5147E+03

           1    8.00420E-01    -2.7003E-02 -1.9107E-03  1.0502E-01  1.0845E-01
ac ID =   33377                 9.8359E-02 -9.2698E-01  4.9283E-02  9.3349E-01
                               -3.7397E-01  1.0599E+01 -4.6904E+01  2.5147E+03

           1    9.00410E-01    -3.6203E-02 -8.0976E-06  6.9100E-02  7.8009E-02
ac ID =   33377                 1.0973E-01 -9.7097E-01 -7.1887E-03  9.7718E-01
                               -3.7402E-01  1.0601E+01 -4.6909E+01  2.5147E+03

           1    1.00040E+00     1.8431E-02 -3.9322E-03  2.3049E-01  2.3126E-01
ac ID =   33377                 3.6623E-01 -1.6766E-01 -5.2249E-02  4.0616E-01
                               -3.7405E-01  1.0604E+01 -4.6914E+01  2.5147E+03

           1    1.10039E+00     4.3431E-03 -3.1466E-03  2.8087E-01  2.8092E-01
ac ID =   33377                 3.5342E-01 -7.2180E-01 -5.1120E-02  8.0531E-01
                               -3.7407E-01  1.0607E+01 -4.6920E+01  2.5147E+03

           1    1.20038E+00    -2.9194E-02 -9.4143E-04  1.3339E-01  1.3656E-01
ac ID =   33377                -1.4666E-01 -1.0280E+00  5.5582E-03  1.0384E+00
                               -3.7412E-01  1.0609E+01 -4.6925E+01  2.5147E+03

           1    1.30037E+00    -4.2639E-03  4.4633E-03  8.4473E-02  8.4698E-02
ac ID =   33377                -2.8953E-01 -6.7038E-01  9.8757E-03  7.3030E-01
                               -3.7417E-01  1.0612E+01 -4.6931E+01  2.5147E+03

           1    1.40036E+00     1.0511E-02  4.4361E-03  1.9196E-01  1.9230E-01
ac ID =   33377                -2.9326E-01 -6.7813E-01  1.9081E-02  7.3907E-01
                               -3.7421E-01  1.0615E+01 -4.6938E+01  2.5147E+03

           1    1.50035E+00    -2.2956E-02  2.6974E-05  3.3884E-01  3.3961E-01
ac ID =   33377                 1.8024E-02 -1.3852E+00 -3.6729E-02  1.3858E+00
                               -3.7426E-01  1.0619E+01 -4.6946E+01  2.5147E+03

           1    1.60034E+00    -1.3431E-02 -2.2113E-03  2.2565E-01  2.2606E-01
ac ID =   33377                -9.6018E-03 -1.0950E+00 -4.6264E-02  1.0960E+00
                               -3.7434E-01  1.0622E+01 -4.6953E+01  2.5147E+03

           1    1.70033E+00     2.1765E-03  2.2367E-04  7.0197E-02  7.0231E-02
ac ID =   33377                -5.2978E-02 -4.2530E-01  7.8699E-02  4.3575E-01
                               -3.7442E-01  1.0626E+01 -4.6960E+01  2.5147E+03

           1    1.80032E+00    -1.8704E-02  6.1058E-04  9.7917E-02  9.9690E-02
ac ID =   33377                 1.1841E-01 -9.4017E-01  1.3585E-01  9.5728E-01
                               -3.7449E-01  1.0630E+01 -4.6968E+01  2.5147E+03

           1    1.90031E+00    -2.4953E-03 -2.4259E-03  2.0761E-01  2.0764E-01
ac ID =   33377                 2.5871E-01 -5.5331E-01 -8.2562E-02  6.1636E-01
                               -3.7454E-01  1.0635E+01 -4.6977E+01  2.5147E+03

           1    2.00030E+00     3.6010E-03 -3.1068E-03  1.6230E-01  1.6237E-01
ac ID =   33377                 2.0108E-01 -1.5353E-01 -1.4856E-01  2.9339E-01
                               -3.7458E-01  1.0639E+01 -4.6986E+01  2.5147E+03

           1    2.10029E+00    -2.3977E-02  2.2788E-03  8.4387E-03  2.5521E-02
ac ID =   33377                -7.5740E-02 -4.6989E-01  4.9253E-02  4.7850E-01
                               -3.7463E-01  1.0643E+01 -4.6994E+01  2.5147E+03

           1    2.20028E+00    -1.1102E-02  5.1343E-03  1.8933E-02  2.2541E-02
ac ID =   33377                -2.1480E-01 -4.3000E-01  4.8367E-02  4.8310E-01
                               -3.7467E-01  1.0647E+01 -4.7004E+01  2.5147E+03

           1    2.30027E+00     4.4840E-03  5.5813E-03  1.7090E-01  1.7105E-01
ac ID =   33377                -1.6799E-01 -5.9802E-01 -5.7324E-02  6.2380E-01
                               -3.7471E-01  1.0652E+01 -4.7014E+01  2.5147E+03

           1    2.40026E+00    -1.4988E-02 -1.5915E-03  1.9438E-01  1.9497E-01
ac ID =   33377                -1.4870E-01 -9.6442E-01  7.4628E-02  9.7866E-01
                               -3.7477E-01  1.0657E+01 -4.7024E+01  2.5147E+03

           1    2.50025E+00    -1.7984E-02  4.9148E-04 -1.2576E-05  1.7991E-02
ac ID =   33377                -1.5850E-01 -6.5904E-01  1.1871E-01  6.8815E-01
                               -3.7485E-01  1.0662E+01 -4.7033E+01  2.5147E+03

           1    2.60024E+00    -3.9101E-03  5.7897E-03 -5.7053E-02  5.7479E-02
ac ID =   33377                -2.3343E-01  2.7537E-02  3.9439E-02  2.3834E-01
                               -3.7495E-01  1.0667E+01 -4.7043E+01  2.5147E+03

           1    2.70023E+00    -1.0990E-02 -1.2914E-03  3.6761E-02  3.8390E-02
ac ID =   33377                 7.2254E-02 -3.8454E-02  5.4272E-02  9.8208E-02
                               -3.7504E-01  1.0672E+01 -4.7054E+01  2.5147E+03

           1    2.80022E+00    -5.3758E-03 -5.1717E-03  7.2590E-02  7.2973E-02
ac ID =   33377                 3.7393E-01  5.7383E-02  1.0195E-02  3.7844E-01
                               -3.7512E-01  1.0677E+01 -4.7065E+01  2.5147E+03

           1    2.90021E+00     8.9153E-03 -2.6174E-03 -6.1771E-03  1.1158E-02
ac ID =   33377                 1.3784E-01  5.6794E-01 -6.1330E-02  5.8763E-01
                               -3.7521E-01  1.0682E+01 -4.7075E+01  2.5147E+03

           1    3.00020E+00    -6.8316E-03  2.4361E-03 -7.4087E-02  7.4442E-02
ac ID =   33377                -2.8358E-02  2.6004E-01 -4.7870E-02  2.6592E-01
                               -3.7529E-01  1.0687E+01 -4.7085E+01  2.5147E+03

           1    3.10019E+00     1.4954E-04  1.6797E-04  8.9017E-03  8.9046E-03
ac ID =   33377                 6.7981E-02 -9.8337E-02 -4.1795E-02  1.2664E-01
                               -3.7537E-01  1.0692E+01 -4.7096E+01  2.5147E+03

           1    3.20018E+00     1.1194E-02  2.3776E-03  7.2648E-02  7.3544E-02
ac ID =   33377                -1.0205E-02 -1.7777E-03  1.1255E-02  1.5297E-02
                               -3.7544E-01  1.0698E+01 -4.7108E+01  2.5147E+03

           1    3.30017E+00     1.3431E-02  2.3599E-03  2.5719E-03  1.3877E-02
ac ID =   33377                -2.2881E-01  2.9840E-02  1.0753E-01  2.5457E-01
                               -3.7552E-01  1.0703E+01 -4.7119E+01  2.5147E+03

           1    3.40016E+00     1.5151E-02  3.8972E-03 -1.2531E-01  1.2628E-01
ac ID =   33377                -3.1584E-01  4.1027E-01  9.9367E-02  5.2721E-01
                               -3.7563E-01  1.0709E+01 -4.7130E+01  2.5147E+03

           1    3.50015E+00     1.8736E-02  4.0890E-03 -1.5513E-01  1.5631E-01
ac ID =   33377                -1.7283E-01  9.5779E-01 -2.0053E-02  9.7346E-01
                               -3.7574E-01  1.0715E+01 -4.7142E+01  2.5147E+03

           1    3.60014E+00     3.1867E-02 -1.8903E-03 -7.8560E-02  8.4798E-02
ac ID =   33377                 6.3362E-02  1.3624E+00 -1.8882E-01  1.3769E+00
                               -3.7584E-01  1.0722E+01 -4.7154E+01  2.5147E+03

           1    3.70013E+00     1.6874E-02 -3.2623E-03 -7.3497E-02  7.5479E-02
ac ID =   33377                 2.2957E-01  1.5082E+00 -1.9336E-01  1.5378E+00
                               -3.7593E-01  1.0729E+01 -4.7166E+01  2.5147E+03

           1    3.80012E+00     5.9773E-02 -2.2149E-03 -1.9100E-01  2.0014E-01
ac ID =   33377                 2.1940E-01  2.5256E+00 -1.3273E-01  2.5386E+00
                               -3.7602E-01  1.0737E+01 -4.7178E+01  2.5147E+03

           1    3.90011E+00     4.1974E-02  2.9710E-03 -2.4005E-01  2.4371E-01
ac ID =   33377                 1.2484E-02  2.2361E+00 -1.0293E-01  2.2385E+00
                               -3.7611E-01  1.0745E+01 -4.7190E+01  2.5147E+03

           1    4.00010E+00     3.2841E-02  5.9734E-04 -1.9813E-01  2.0083E-01
ac ID =   33377                -1.6666E-01  1.7743E+00 -1.3435E-01  1.7871E+00
                               -3.7615E-01  1.0755E+01 -4.7202E+01  2.5147E+03

           1    4.10009E+00     4.3952E-02 -2.4800E-04 -1.6630E-01  1.7201E-01
ac ID =   33377                -1.1085E-01  2.0215E+00 -1.7306E-01  2.0319E+00
                               -3.7620E-01  1.0765E+01 -4.7215E+01  2.5147E+03

           1    4.20008E+00     4.1604E-02  6.1308E-03 -2.3172E-01  2.3551E-01
ac ID =   33377                -2.8540E-01  1.5566E+00  1.8474E-01  1.5933E+00
                               -3.7630E-01  1.0775E+01 -4.7227E+01  2.5147E+03

           1    4.30007E+00     5.6679E-02  9.6955E-03 -3.3903E-01  3.4388E-01
ac ID =   33377                -5.0482E-01  2.3524E+00  1.4466E-01  2.4103E+00
                               -3.7640E-01  1.0786E+01 -4.7239E+01  2.5147E+03

           1    4.40006E+00     5.5549E-02  8.5527E-03 -2.9506E-01  3.0036E-01
ac ID =   33377                -2.8653E-01  2.3482E+00 -2.6604E-01  2.3805E+00
                               -3.7647E-01  1.0799E+01 -4.7252E+01  2.5147E+03

           1    4.50005E+00     8.9661E-02 -4.4023E-03 -2.1870E-01  2.3641E-01
ac ID =   33377                 2.0614E-01  2.5384E+00 -3.2262E-01  2.5671E+00
                               -3.7655E-01  1.0812E+01 -4.7265E+01  2.5147E+03

           1    4.60004E+00     6.2175E-02  3.9699E-05 -2.8306E-01  2.8981E-01
ac ID =   33377                 1.2316E-01  2.4739E+00 -1.4660E-01  2.4813E+00
                               -3.7663E-01  1.0827E+01 -4.7277E+01  2.5147E+03

           1    4.70003E+00     7.2739E-02  6.0417E-03 -3.8803E-01  3.9483E-01
ac ID =   33377                -1.4716E-01  2.5798E+00 -6.3362E-02  2.5848E+00
                               -3.7664E-01  1.0842E+01 -4.7289E+01  2.5147E+03

           1    4.80002E+00     6.6970E-02  3.0817E-03 -4.0108E-01  4.0664E-01
ac ID =   33377                 8.2417E-02  2.6060E+00 -1.2396E-01  2.6102E+00
                               -3.7665E-01  1.0859E+01 -4.7301E+01  2.5147E+03

           1    4.90001E+00     7.5635E-02 -6.9056E-04 -3.4144E-01  3.4972E-01
ac ID =   33377                -8.1516E-02  2.1667E+00  9.4446E-02  2.1703E+00
                               -3.7663E-01  1.0877E+01 -4.7313E+01  2.5147E+03

           1    5.00000E+00     7.1010E-02 -1.8202E-03 -3.4892E-01  3.5608E-01
ac ID =   33377                -4.5238E-01  2.5461E+00  1.4122E-01  2.5898E+00
                               -3.7660E-01  1.0896E+01 -4.7325E+01  2.5147E+03

           1    5.10049E+00     7.6442E-02  7.0598E-03 -4.3917E-01  4.4583E-01
ac ID =   33377                -4.4285E-01  2.5958E+00 -1.4862E-01  2.6375E+00
                               -3.7659E-01  1.0917E+01 -4.7336E+01  2.5147E+03

           1    5.20048E+00     8.3939E-02  9.3691E-03 -4.7401E-01  4.8147E-01
ac ID =   33377                -2.3903E-01  3.3329E+00 -3.5641E-01  3.3604E+00
                               -3.7659E-01  1.0939E+01 -4.7348E+01  2.5147E+03

           1    5.30047E+00     9.4159E-02 -2.4571E-04 -4.5925E-01  4.6880E-01
ac ID =   33377                -2.7714E-01  2.8346E+00  1.5770E-01  2.8525E+00
                               -3.7660E-01  1.0962E+01 -4.7359E+01  2.5147E+03

           1    5.40046E+00     8.5597E-02 -9.1009E-03 -4.3683E-01  4.4523E-01
ac ID =   33377                 2.1410E-01  2.7820E+00  1.3264E-01  2.7933E+00
                               -3.7663E-01  1.0987E+01 -4.7371E+01  2.5147E+03

           1    5.50045E+00     8.6415E-02  2.1087E-03 -5.4792E-01  5.5470E-01
ac ID =   33377                 8.1563E-02  2.6109E+00  1.5950E-02  2.6123E+00
                               -3.7668E-01  1.1013E+01 -4.7381E+01  2.5147E+03

           1    5.60044E+00     6.5561E-02 -4.5770E-03 -6.3286E-01  6.3626E-01
ac ID =   33377                 2.1153E-01  2.5747E+00 -2.1823E-01  2.5926E+00
                               -3.7674E-01  1.1040E+01 -4.7392E+01  2.5147E+03

           1    5.70043E+00     7.3251E-02  2.5085E-03 -6.3225E-01  6.3649E-01
ac ID =   33377                -4.3539E-02  2.4171E+00 -3.3491E-01  2.4406E+00
                               -3.7683E-01  1.1069E+01 -4.7402E+01  2.5147E+03

           1    5.80042E+00     7.6294E-02 -4.6431E-03 -6.0173E-01  6.0657E-01
ac ID =   33377                -6.4008E-02  1.8828E+00  2.8282E-01  1.9050E+00
                               -3.7686E-01  1.1100E+01 -4.7412E+01  2.5147E+03

           1    5.90041E+00     9.1532E-02  5.7240E-03 -6.1949E-01  6.2625E-01
ac ID =   33377                -1.8088E-01  2.0372E+00  1.0819E-02  2.0452E+00
                               -3.7693E-01  1.1131E+01 -4.7422E+01  2.5147E+03

           1    6.00040E+00     1.0424E-01 -8.7605E-03 -7.1045E-01  7.1811E-01
ac ID =   33377                -3.1493E-02  2.1631E+00  9.4406E-02  2.1654E+00
                               -3.7698E-01  1.1164E+01 -4.7431E+01  2.5147E+03

           1    6.10039E+00     6.8527E-02 -1.5555E-02 -6.8568E-01  6.8927E-01
ac ID =   33377                 3.9595E-01  1.7250E+00  2.1160E-01  1.7824E+00
                               -3.7713E-01  1.1198E+01 -4.7440E+01  2.5147E+03

           1    6.20038E+00     8.6648E-02  3.6907E-04 -6.5882E-01  6.6449E-01
ac ID =   33377                -9.4959E-03  1.4684E+00  3.8620E-01  1.5183E+00
                               -3.7726E-01  1.1234E+01 -4.7448E+01  2.5147E+03

           1    6.30037E+00     8.1884E-02 -5.8992E-03 -7.0639E-01  7.1114E-01
ac ID =   33377                 1.7210E-01  1.6334E+00  4.2682E-01  1.6970E+00
                               -3.7729E-01  1.1272E+01 -4.7456E+01  2.5147E+03

           1    6.40036E+00     9.8455E-02 -3.7687E-02 -8.1517E-01  8.2196E-01
ac ID =   33377                 1.2333E+00  1.1067E+00  3.4373E-01  1.6923E+00
                               -3.7728E-01  1.1311E+01 -4.7464E+01  2.5147E+03

           1    6.50035E+00     8.5764E-02  3.7709E-03 -8.5911E-01  8.6338E-01
ac ID =   33377                -1.5043E-01  1.2734E+00 -7.6606E-02  1.2845E+00
                               -3.7735E-01  1.1351E+01 -4.7471E+01  2.5147E+03

           1    6.60034E+00     7.0067E-02  2.2415E-02 -8.2901E-01  8.3226E-01
ac ID =   33377                -1.3135E-02  1.2080E+00 -2.0485E-01  1.2253E+00
                               -3.7733E-01  1.1393E+01 -4.7478E+01  2.5147E+03

           1    6.70033E+00     8.9660E-02 -2.5594E-02 -8.2979E-01  8.3501E-01
ac ID =   33377                 7.3921E-01  1.4986E+00  5.0538E-01  1.7458E+00
                               -3.7714E-01  1.1437E+01 -4.7485E+01  2.5147E+03

           1    6.80032E+00     7.3026E-02 -9.6782E-03 -8.9869E-01  9.0170E-01
ac ID =   33377                 3.9157E-01  5.8383E-01 -6.5221E-02  7.0600E-01
                               -3.7702E-01  1.1483E+01 -4.7491E+01  2.5147E+03

           1    6.90031E+00     1.3805E-01  1.7231E-02 -9.6237E-01  9.7238E-01
ac ID =   33377                -6.7906E-01  1.1679E+00  2.1147E-01  1.3674E+00
                               -3.7683E-01  1.1530E+01 -4.7497E+01  2.5147E+03

           1    7.00030E+00     1.0566E-01 -1.7095E-02 -9.1361E-01  9.1986E-01
ac ID =   33377                 6.6786E-01  3.6344E-01  7.7727E-01  1.0873E+00
                               -3.7662E-01  1.1578E+01 -4.7502E+01  2.5147E+03

           1    7.10029E+00     7.1370E-02  9.7504E-03 -9.7129E-01  9.7396E-01
ac ID =   33377                 5.0341E-01 -1.4113E-01  1.8017E-01  5.5299E-01
                               -3.7647E-01  1.1629E+01 -4.7507E+01  2.5147E+03

           1    7.20028E+00     6.2727E-02  1.2378E-02 -1.0673E+00  1.0692E+00
ac ID =   33377                -7.4014E-03  1.4641E-01  1.2002E-01  1.8946E-01
                               -3.7626E-01  1.1681E+01 -4.7512E+01  2.5147E+03

           1    7.30027E+00     9.0827E-02 -1.1622E-02 -1.1182E+00  1.1219E+00
ac ID =   33377                 5.5014E-01  1.9849E-01 -6.7563E-02  5.8874E-01
                               -3.7599E-01  1.1734E+01 -4.7516E+01  2.5147E+03

           1    7.40026E+00     1.1298E-01 -3.0445E-03 -1.1530E+00  1.1585E+00
ac ID =   33377                 9.8883E-01  1.0651E+00 -8.6059E-01  1.6891E+00
                               -3.7576E-01  1.1790E+01 -4.7519E+01  2.5147E+03

           1    7.50025E+00     1.1004E-01  5.2426E-03 -1.0743E+00  1.0799E+00
ac ID =   33377                 4.6688E-01  2.5317E-01 -5.6387E-01  7.7461E-01
                               -3.7548E-01  1.1847E+01 -4.7522E+01  2.5147E+03

           1    7.60024E+00     1.3857E-01  1.5227E-02 -1.1486E+00  1.1570E+00
ac ID =   33377                 2.7562E-02  1.4615E+00  9.0353E-01  1.7185E+00
                               -3.7518E-01  1.1905E+01 -4.7524E+01  2.5147E+03

           1    7.70023E+00     1.2191E-01 -4.4138E-02 -1.2379E+00  1.2447E+00
ac ID =   33377                 1.2595E+00  4.6059E-02  1.4007E+00  1.8842E+00
                               -3.7478E-01  1.1965E+01 -4.7526E+01  2.5147E+03

           1    7.80022E+00     1.4214E-01  9.1029E-03 -1.2172E+00  1.2255E+00
ac ID =   33377                 3.5590E-01  3.1117E-02 -2.8002E-01  4.5392E-01
                               -3.7462E-01  1.2027E+01 -4.7527E+01  2.5147E+03

           1    7.90021E+00     1.7140E-01  2.7531E-02 -1.1453E+00  1.1584E+00
ac ID =   33377                -5.1145E-01  1.0901E+00 -5.3490E-01  1.3175E+00
                               -3.7435E-01  1.2090E+01 -4.7527E+01  2.5147E+03

           1    8.00020E+00     1.3371E-01 -2.8432E-02 -1.2324E+00  1.2400E+00
ac ID =   33377                 1.2831E+00  5.5823E-01  4.5567E-01  1.4716E+00
                               -3.7387E-01  1.2156E+01 -4.7526E+01  2.5147E+03

           1    8.10019E+00     1.6111E-01 -4.7005E-02 -1.3764E+00  1.3866E+00
ac ID =   33377                 7.1774E-01  1.2158E+00  9.2531E-01  1.6881E+00
                               -3.7359E-01  1.2222E+01 -4.7525E+01  2.5147E+03

           1    8.20018E+00     1.8337E-01  4.7339E-02 -1.3782E+00  1.3911E+00
ac ID =   33377                -1.1499E-01  1.5465E+00  1.0140E+00  1.8528E+00
                               -3.7347E-01  1.2291E+01 -4.7522E+01  2.5147E+03

           1    8.30017E+00     1.6221E-01  4.1630E-03 -1.3225E+00  1.3324E+00
ac ID =   33377                 6.6714E-01  1.9527E+00  1.0095E+00  2.2972E+00
                               -3.7303E-01  1.2362E+01 -4.7519E+01  2.5147E+03

           1    8.40016E+00     1.7610E-01 -4.5788E-02 -1.3456E+00  1.3579E+00
ac ID =   33377                 1.4393E+00  1.6545E+00 -5.9718E-01  2.2728E+00
                               -3.7251E-01  1.2434E+01 -4.7515E+01  2.5147E+03

           1    8.50015E+00     1.9641E-01  1.8224E-02 -1.4758E+00  1.4889E+00
ac ID =   33377                 5.7179E-01  2.6677E+00 -1.3138E+00  3.0282E+00
                               -3.7243E-01  1.2508E+01 -4.7510E+01  2.5147E+03

           1    8.60014E+00     2.3386E-01  5.5487E-02 -1.5035E+00  1.5226E+00
ac ID =   33377                -4.8389E-01  3.0114E+00 -4.4108E-01  3.0818E+00
                               -3.7217E-01  1.2584E+01 -4.7503E+01  2.5147E+03

           1    8.70013E+00     1.6359E-01 -3.3475E-02 -1.4737E+00  1.4831E+00
ac ID =   33377                 4.5337E-01  1.8327E+00  3.7573E-01  1.9249E+00
                               -3.7156E-01  1.2662E+01 -4.7496E+01  2.5147E+03

           1    8.80012E+00     2.1717E-01 -4.3596E-02 -1.5240E+00  1.5400E+00
ac ID =   33377                 1.7844E+00  3.0040E+00  5.8663E-02  3.4944E+00
                               -3.7138E-01  1.2742E+01 -4.7488E+01  2.5147E+03

           1    8.90011E+00     2.5680E-01  5.5074E-02 -1.5925E+00  1.6140E+00
ac ID =   33377                -1.6324E+00  4.1326E+00  2.7153E-01  4.4516E+00
                               -3.7113E-01  1.2823E+01 -4.7479E+01  2.5147E+03

           1    9.00010E+00     1.8546E-01 -1.5751E-02 -1.6592E+00  1.6696E+00
ac ID =   33377                 8.3765E-01  2.5866E+00  2.6875E-01  2.7321E+00
                               -3.7068E-01  1.2906E+01 -4.7468E+01  2.5147E+03

           1    9.10009E+00     2.4936E-01 -3.7518E-02 -1.6221E+00  1.6416E+00
ac ID =   33377                 1.1983E+00  3.9411E+00 -2.3856E-01  4.1261E+00
                               -3.7041E-01  1.2991E+01 -4.7456E+01  2.5147E+03

           1    9.20008E+00     2.6675E-01  2.0450E-03 -1.6384E+00  1.6600E+00
ac ID =   33377                -6.1929E-02  3.8337E+00 -1.6785E-01  3.8379E+00
                               -3.7013E-01  1.3078E+01 -4.7444E+01  2.5147E+03

           1    9.30007E+00     2.5001E-01  4.3307E-02 -1.6890E+00  1.7079E+00
ac ID =   33377                -8.8156E-01  3.8892E+00  1.5449E-01  3.9908E+00
                               -3.6972E-01  1.3166E+01 -4.7429E+01  2.5147E+03

           1    9.40006E+00     2.0788E-01 -2.6659E-02 -1.7561E+00  1.7686E+00
ac ID =   33377                 1.5594E+00  3.8550E+00  5.9255E-02  4.1589E+00
                               -3.6925E-01  1.3256E+01 -4.7414E+01  2.5147E+03

           1    9.50005E+00     2.6235E-01 -2.2429E-02 -1.7447E+00  1.7645E+00
ac ID =   33377                 7.1304E-01  4.3178E+00  1.6153E-01  4.3793E+00
                               -3.6875E-01  1.3348E+01 -4.7397E+01  2.5147E+03

           1    9.60004E+00     2.8728E-01  5.7024E-02 -1.6894E+00  1.7146E+00
ac ID =   33377                -1.0203E+00  4.6750E+00 -3.7256E-01  4.7995E+00
                               -3.6844E-01  1.3441E+01 -4.7379E+01  2.5147E+03

           1    9.70003E+00     2.2103E-01 -1.2459E-02 -1.7650E+00  1.7788E+00
ac ID =   33377                 4.6809E-02  3.5236E+00  5.3431E-01  3.5642E+00
                               -3.6787E-01  1.3536E+01 -4.7360E+01  2.5147E+03

           1    9.80002E+00     2.4172E-01 -4.3941E-02 -1.8677E+00  1.8838E+00
ac ID =   33377                 1.6397E+00  4.7847E+00  1.0388E+00  5.1634E+00
                               -3.6730E-01  1.3633E+01 -4.7339E+01  2.5147E+03

           1    9.90001E+00     2.6247E-01  3.4147E-02 -1.8408E+00  1.8597E+00
ac ID =   33377                -1.0096E+00  4.6416E+00  1.2604E+00  4.9145E+00
                               -3.6677E-01  1.3732E+01 -4.7317E+01  2.5147E+03

           1    1.00005E+01     2.7944E-01  1.7069E-02 -1.8029E+00  1.8245E+00
ac ID =   33377                 2.2434E-01  4.6197E+00 -6.6932E-01  4.6733E+00
                               -3.6630E-01  1.3833E+01 -4.7294E+01  2.5147E+03

           1    1.01005E+01     2.3705E-01 -6.5360E-02 -1.8753E+00  1.8913E+00
ac ID =   33377                 1.1951E+00  3.9963E+00 -1.5585E+00  4.4528E+00
                               -3.6552E-01  1.3935E+01 -4.7269E+01  2.5147E+03

           1    1.02005E+01     3.0591E-01  4.9113E-02 -1.9707E+00  1.9949E+00
ac ID =   33377                 9.6304E-02  5.3625E+00 -1.0850E+00  5.4720E+00
                               -3.6515E-01  1.4039E+01 -4.7243E+01  2.5147E+03

           1    1.03005E+01     2.8896E-01  1.7328E-02 -1.9797E+00  2.0007E+00
ac ID =   33377                -2.1842E-01  4.8235E+00  2.5729E-01  4.8353E+00
                               -3.6438E-01  1.4144E+01 -4.7215E+01  2.5147E+03

           1    1.04005E+01     2.3251E-01  2.6180E-03 -2.0080E+00  2.0214E+00
ac ID =   33377                 1.3164E+00  4.1976E+00  4.4001E-01  4.4211E+00
                               -3.6362E-01  1.4252E+01 -4.7186E+01  2.5147E+03

           1    1.05004E+01     2.4800E-01 -5.7016E-02 -1.9509E+00  1.9675E+00
ac ID =   33377                 1.3378E+00  3.6370E+00  9.0641E-01  3.9799E+00
                               -3.6282E-01  1.4360E+01 -4.7155E+01  2.5147E+03

           1    1.06004E+01     3.0407E-01  4.0414E-02 -1.9873E+00  2.0108E+00
ac ID =   33377                -3.8328E-01  4.7227E+00 -3.8337E-01  4.7538E+00
                               -3.6232E-01  1.4470E+01 -4.7123E+01  2.5147E+03

           1    1.07004E+01     2.4345E-01 -1.4740E-02 -2.0833E+00  2.0975E+00
ac ID =   33377                 3.0530E-01  3.2748E+00 -1.4352E-01  3.2921E+00
                               -3.6122E-01  1.4582E+01 -4.7089E+01  2.5147E+03

           1    1.08004E+01     2.7662E-01 -4.0012E-02 -2.0471E+00  2.0661E+00
ac ID =   33377                 1.9631E+00  3.9958E+00  2.5677E-01  4.4594E+00
                               -3.6027E-01  1.4696E+01 -4.7053E+01  2.5147E+03

           1    1.09004E+01     2.8163E-01 -9.0662E-03 -2.0345E+00  2.0539E+00
ac ID =   33377                 1.5071E+00  3.5086E+00 -2.5189E-01  3.8269E+00
                               -3.5962E-01  1.4810E+01 -4.7016E+01  2.5147E+03

           1    1.10004E+01     2.7827E-01  4.5100E-02 -2.0878E+00  2.1067E+00
ac ID =   33377                -5.6162E-01  3.1179E+00  4.6563E-01  3.2021E+00
                               -3.5860E-01  1.4927E+01 -4.6977E+01  2.5147E+03

           1    1.11004E+01     2.8455E-01 -5.4627E-02 -2.1338E+00  2.1534E+00
ac ID =   33377                 2.2891E+00  3.7056E+00 -5.6634E-01  4.3923E+00
                               -3.5754E-01  1.5044E+01 -4.6936E+01  2.5147E+03

           1    1.12004E+01     2.9536E-01 -3.7979E-02 -2.1576E+00  2.1780E+00
ac ID =   33377                 2.0630E+00  3.7269E+00  2.0038E-01  4.2645E+00
                               -3.5663E-01  1.5163E+01 -4.6894E+01  2.5147E+03

           1    1.13004E+01     2.8242E-01  6.3253E-02 -2.0281E+00  2.0486E+00
ac ID =   33377                -7.7995E-02  2.9650E+00  8.2479E-01  3.0786E+00
                               -3.5568E-01  1.5284E+01 -4.6850E+01  2.5147E+03

           1    1.14004E+01     2.6821E-01 -7.5251E-03 -2.0788E+00  2.0961E+00
ac ID =   33377                 8.1986E-01  3.5269E+00  3.2941E-01  3.6359E+00
                               -3.5441E-01  1.5406E+01 -4.6804E+01  2.5147E+03

           1    1.15003E+01     3.0605E-01 -7.3062E-02 -2.1247E+00  2.1479E+00
ac ID =   33377                 2.7855E+00  3.7972E+00 -2.0840E-01  4.7139E+00
                               -3.5329E-01  1.5530E+01 -4.6755E+01  2.5147E+03

           1    1.16003E+01     2.7649E-01  3.8964E-03 -2.1713E+00  2.1888E+00
ac ID =   33377                 1.3937E-01  3.1288E+00  2.4020E-01  3.1411E+00
                               -3.5218E-01  1.5654E+01 -4.6705E+01  2.5147E+03

           1    1.17003E+01     2.9493E-01  6.3088E-02 -2.1498E+00  2.1709E+00
ac ID =   33377                -1.7753E-01  3.7260E+00  6.3126E-01  3.7833E+00
                               -3.5105E-01  1.5781E+01 -4.6654E+01  2.5147E+03

           1    1.18003E+01     3.3792E-01 -8.2691E-02 -2.0609E+00  2.0901E+00
ac ID =   33377                 2.6896E+00  3.7096E+00  3.8298E-01  4.5980E+00
                               -3.4957E-01  1.5909E+01 -4.6599E+01  2.5147E+03

           1    1.19003E+01     3.0079E-01 -4.2165E-03 -2.1847E+00  2.2053E+00
ac ID =   33377                 2.2002E+00  3.9813E+00  9.7007E-03  4.5488E+00
                               -3.4840E-01  1.6038E+01 -4.6543E+01  2.5147E+03

           1    1.20003E+01     3.0401E-01  4.7873E-02 -2.2822E+00  2.3029E+00
ac ID =   33377                -3.3204E-01  4.3962E+00  7.0796E-02  4.4093E+00
                               -3.4706E-01  1.6168E+01 -4.6485E+01  2.5147E+03

           1    1.21003E+01     3.2385E-01 -2.6227E-02 -2.1290E+00  2.1536E+00
ac ID =   33377                 1.5766E+00  4.8608E+00  1.1810E-01  5.1115E+00
                               -3.4558E-01  1.6301E+01 -4.6425E+01  2.5147E+03

           1    1.22003E+01     2.7300E-01 -7.4146E-02 -2.0613E+00  2.0806E+00
ac ID =   33377                 3.3672E+00  2.8693E+00 -1.0917E+00  4.5565E+00
                               -3.4407E-01  1.6434E+01 -4.6363E+01  2.5147E+03

           1    1.23003E+01     2.7094E-01  1.8643E-02 -2.1429E+00  2.1600E+00
ac ID =   33377                 2.3025E-01  2.9285E+00 -9.4989E-01  3.0873E+00
                               -3.4244E-01  1.6568E+01 -4.6298E+01  2.5147E+03

           1    1.24003E+01     3.5707E-01  4.3984E-03 -2.1824E+00  2.2114E+00
ac ID =   33377                 1.0905E-01  5.0032E+00  8.5850E-01  5.0775E+00
                               -3.4068E-01  1.6703E+01 -4.6231E+01  2.5147E+03

           1    1.25002E+01     2.7871E-01 -8.2768E-02 -2.1116E+00  2.1315E+00
ac ID =   33377                 3.7975E+00  3.3694E+00  1.1227E+00  5.1995E+00
                               -3.3908E-01  1.6840E+01 -4.6163E+01  2.5147E+03

           1    1.26002E+01     2.5936E-01  1.3918E-02 -2.0060E+00  2.0228E+00
ac ID =   33377                 6.4918E-01  3.7597E+00  1.3218E+00  4.0378E+00
                               -3.3732E-01  1.6977E+01 -4.6092E+01  2.5147E+03

           1    1.27002E+01     3.6910E-01  2.5438E-02 -2.0255E+00  2.0590E+00
ac ID =   33377                 4.6113E-01  5.5507E+00 -7.5345E-01  5.6206E+00
                               -3.3554E-01  1.7115E+01 -4.6018E+01  2.5147E+03

           1    1.28002E+01     3.0343E-01 -1.4895E-02 -2.1276E+00  2.1492E+00
ac ID =   33377                 2.4624E+00  5.0021E+00 -5.1581E-01  5.5991E+00
                               -3.3369E-01  1.7254E+01 -4.5942E+01  2.5147E+03

           1    1.29002E+01     2.6104E-01 -8.8347E-02 -2.0490E+00  2.0675E+00
ac ID =   33377                 2.3353E+00  3.7424E+00  7.1700E-01  4.4692E+00
                               -3.3158E-01  1.7393E+01 -4.5864E+01  2.5147E+03

           1    1.30002E+01     3.0970E-01  8.2527E-02 -1.8947E+00  1.9216E+00
ac ID =   33377                 3.0513E-01  4.4964E+00  1.0169E+00  4.6201E+00
                               -3.2978E-01  1.7533E+01 -4.5784E+01  2.5147E+03

           1    1.31002E+01     3.4889E-01  7.3590E-04 -1.9299E+00  1.9612E+00
ac ID =   33377                 1.1618E+00  5.0644E+00  1.4501E-01  5.1980E+00
                               -3.2754E-01  1.7673E+01 -4.5701E+01  2.5147E+03

           1    1.32002E+01     2.5243E-01 -9.3697E-02 -1.9949E+00  2.0129E+00
ac ID =   33377                 2.8138E+00  4.0497E+00 -1.0107E+00  5.0338E+00
                               -3.2530E-01  1.7814E+01 -4.5616E+01  2.5147E+03

           1    1.33002E+01     2.7248E-01  4.9044E-02 -1.9539E+00  1.9734E+00
ac ID =   33377                -3.0220E-01  4.3517E+00  2.8024E-01  4.3712E+00
                               -3.2317E-01  1.7955E+01 -4.5530E+01  2.5147E+03

           1    1.34002E+01     3.5143E-01  5.2314E-02 -1.9162E+00  1.9489E+00
ac ID =   33377                 4.2615E-01  5.9782E+00 -3.4488E-01  6.0033E+00
                               -3.2096E-01  1.8096E+01 -4.5441E+01  2.5147E+03

           1    1.35001E+01     2.7674E-01 -7.5857E-02 -1.7937E+00  1.8165E+00
ac ID =   33377                 2.1040E+00  4.4806E+00  5.3083E-01  4.9784E+00
                               -3.1840E-01  1.8238E+01 -4.5351E+01  2.5147E+03

           1    1.36001E+01     2.8939E-01 -1.7125E-02 -1.8894E+00  1.9115E+00
ac ID =   33377                 1.0870E+00  5.0501E+00 -1.8297E-01  5.1690E+00
                               -3.1622E-01  1.8380E+01 -4.5258E+01  2.5147E+03

           1    1.37001E+01     3.1823E-01  1.0097E-01 -1.9088E+00  1.9378E+00
ac ID =   33377                -8.4797E-01  5.8089E+00 -1.0038E-02  5.8705E+00
                               -3.1391E-01  1.8522E+01 -4.5163E+01  2.5147E+03

           1    1.38001E+01     3.3394E-01 -4.8891E-02 -1.7921E+00  1.8236E+00
ac ID =   33377                 1.6988E+00  4.7034E+00 -3.2371E-01  5.0112E+00
                               -3.1103E-01  1.8665E+01 -4.5067E+01  2.5147E+03

           1    1.39001E+01     2.5917E-01 -2.6610E-02 -1.6897E+00  1.7096E+00
ac ID =   33377                 1.7294E+00  4.1952E+00 -2.6939E-01  4.5456E+00
                               -3.0841E-01  1.8808E+01 -4.4969E+01  2.5147E+03

           1    1.40001E+01     3.3657E-01  6.3604E-02 -1.6933E+00  1.7275E+00
ac ID =   33377                -6.3747E-01  4.2444E+00 -1.0667E-01  4.2933E+00
                               -3.0587E-01  1.8950E+01 -4.4868E+01  2.5147E+03

           1    1.41001E+01     2.4866E-01 -7.0216E-03 -1.7636E+00  1.7811E+00
ac ID =   33377                 2.7751E-01  4.0832E+00 -4.3197E-01  4.1154E+00
                               -3.0283E-01  1.9094E+01 -4.4765E+01  2.5147E+03

           1    1.42001E+01     2.9118E-01 -3.1083E-02 -1.6359E+00  1.6619E+00
ac ID =   33377                 1.4851E+00  3.2511E+00 -3.5271E-01  3.5917E+00
                               -2.9989E-01  1.9237E+01 -4.4661E+01  2.5147E+03

           1    1.43001E+01     2.8426E-01  1.3656E-02 -1.4800E+00  1.5071E+00
ac ID =   33377                -3.3286E-01  3.4444E+00 -9.9827E-02  3.4618E+00
                               -2.9697E-01  1.9380E+01 -4.4555E+01  2.5147E+03

           1    1.44001E+01     2.9153E-01  6.5240E-02 -1.5171E+00  1.5463E+00
ac ID =   33377                -9.5628E-01  3.1163E+00 -9.6326E-01  3.3991E+00
                               -2.9416E-01  1.9524E+01 -4.4447E+01  2.5147E+03

           1    1.45000E+01     2.3472E-01 -5.8848E-02 -1.5076E+00  1.5269E+00
ac ID =   33377                 1.2436E+00  3.1095E+00  6.1368E-01  3.4048E+00
                               -2.9083E-01  1.9667E+01 -4.4336E+01  2.5147E+03

           1    1.46000E+01     3.1747E-01 -1.4165E-03 -1.4160E+00  1.4511E+00
ac ID =   33377                 8.5036E-01  4.1677E+00  1.7249E+00  4.5900E+00
                               -2.8815E-01  1.9810E+01 -4.4225E+01  2.5147E+03

           1    1.47000E+01     2.4656E-01  4.1732E-02 -1.3141E+00  1.3376E+00
ac ID =   33377                -5.0077E-01  2.7013E+00  3.4710E-01  2.7692E+00
                               -2.8525E-01  1.9954E+01 -4.4111E+01  2.5147E+03

           1    1.48005E+01     1.7986E-01  2.2375E-02 -1.3181E+00  1.3305E+00
ac ID =   33377                -3.1178E-01  9.9709E-01 -3.5354E-01  1.1029E+00
                               -2.8197E-01  2.0098E+01 -4.3994E+01  2.5147E+03

           1    1.49005E+01     3.3672E-01 -6.3182E-02 -1.2820E+00  1.3270E+00
ac ID =   33377                 2.6456E+00  2.9546E+00 -2.2441E+00  4.5569E+00
                               -2.7892E-01  2.0241E+01 -4.3877E+01  2.5147E+03

           1    1.50005E+01     2.2084E-01  7.2587E-02 -1.3000E+00  1.3206E+00
ac ID =   33377                -2.2460E+00  1.6586E+00  1.6194E-01  2.7967E+00
                               -2.7573E-01  2.0385E+01 -4.3758E+01  2.5147E+03

           1    1.51005E+01     1.6837E-01  3.1089E-02 -1.1944E+00  1.2066E+00
ac ID =   33377                 6.3478E-01  3.1995E-01  8.7054E-01  1.1239E+00
                               -2.7267E-01  2.0528E+01 -4.3637E+01  2.5147E+03

           1    1.52005E+01     2.7474E-01 -1.1008E-02 -1.1805E+00  1.2121E+00
ac ID =   33377                 4.0178E-01  1.6078E+00  6.5808E-01  1.7831E+00
                               -2.6912E-01  2.0672E+01 -4.3516E+01  2.5147E+03

           1    1.53005E+01     2.4862E-01 -1.5754E-02 -1.0805E+00  1.1089E+00
ac ID =   33377                 9.4620E-01  1.7244E+00 -1.1659E+00  2.2865E+00
                               -2.6592E-01  2.0816E+01 -4.3393E+01  2.5147E+03

           1    1.54005E+01     2.2674E-01  6.6796E-02 -1.0593E+00  1.0853E+00
ac ID =   33377                -6.3411E-01  6.0931E-01 -1.1720E+00  1.4653E+00
                               -2.6293E-01  2.0960E+01 -4.3268E+01  2.5147E+03

           1    1.55004E+01     1.6234E-01 -5.3864E-02 -1.1173E+00  1.1303E+00
ac ID =   33377                 1.0780E+00  3.0197E-01 -4.8165E-03  1.1195E+00
                               -2.5944E-01  2.1105E+01 -4.3142E+01  2.5147E+03

           1    1.56004E+01     2.0721E-01  4.1476E-03 -9.3352E-01  9.5625E-01
ac ID =   33377                 1.6830E+00  8.4179E-01 -2.5201E-01  1.8985E+00
                               -2.5625E-01  2.1249E+01 -4.3016E+01  2.5147E+03

           1    1.57004E+01     2.0993E-01  6.7420E-02 -8.6310E-01  8.9081E-01
ac ID =   33377                -1.1015E+00  4.1300E-01  1.5056E+00  1.9107E+00
                               -2.5267E-01  2.1394E+01 -4.2889E+01  2.5147E+03

           1    1.58004E+01     1.5404E-01 -2.0179E-02 -9.6842E-01  9.8080E-01
ac ID =   33377                 1.4072E+00 -4.4129E-01  2.3691E-01  1.4937E+00
                               -2.4925E-01  2.1539E+01 -4.2760E+01  2.5147E+03

           1    1.59004E+01     2.0867E-01 -8.2104E-03 -7.6926E-01  7.9710E-01
ac ID =   33377                 2.8226E-01  9.4803E-01 -3.1810E-01  1.0390E+00
                               -2.4557E-01  2.1684E+01 -4.2632E+01  2.5147E+03

           1    1.60004E+01     2.2810E-01  2.2414E-02 -6.9344E-01  7.3034E-01
ac ID =   33377                -4.3711E-01  2.1645E+00 -2.9906E-01  2.2284E+00
                               -2.4202E-01  2.1830E+01 -4.2502E+01  2.5147E+03

           1    1.61004E+01     1.2685E-01  3.1603E-02 -6.3375E-01  6.4709E-01
ac ID =   33377                 8.8255E-01  5.6009E-01  2.7576E-01  1.0810E+00
                               -2.3871E-01  2.1975E+01 -4.2372E+01  2.5147E+03

           1    1.62004E+01     2.2090E-01 -6.2784E-02 -6.0110E-01  6.4347E-01
ac ID =   33377                 1.5323E+00  1.7937E+00  8.5946E-01  2.5108E+00
                               -2.3470E-01  2.2120E+01 -4.2241E+01  2.5147E+03

           1    1.63004E+01     1.9898E-01  4.6262E-02 -6.2280E-01  6.5545E-01
ac ID =   33377                -2.3096E-01  2.3500E+00  1.4466E-01  2.3657E+00
                               -2.3125E-01  2.2266E+01 -4.2109E+01  2.5147E+03

           1    1.64004E+01     1.8110E-01  2.4548E-02 -4.1996E-01  4.5800E-01
ac ID =   33377                 1.5004E+00  1.2105E+00 -4.9777E-01  1.9910E+00
                               -2.2764E-01  2.2412E+01 -4.1978E+01  2.5147E+03

           1    1.65003E+01     1.3951E-01 -5.5681E-02 -4.1063E-01  4.3724E-01
ac ID =   33377                 1.5514E+00  9.1737E-01 -4.4462E-01  1.8564E+00
                               -2.2339E-01  2.2558E+01 -4.1846E+01  2.5147E+03

           1    1.66003E+01     2.0755E-01  1.2187E-02 -4.2602E-01  4.7404E-01
ac ID =   33377                 8.8967E-01  2.1224E+00 -3.9521E-01  2.3350E+00
                               -2.1952E-01  2.2704E+01 -4.1713E+01  2.5147E+03

           1    1.67003E+01     2.2303E-01  2.6160E-02 -3.5022E-01  4.1603E-01
ac ID =   33377                 2.4107E-01  1.7377E+00 -1.2616E+00  2.1609E+00
                               -2.1570E-01  2.2851E+01 -4.1581E+01  2.5147E+03

           1    1.68003E+01     1.5453E-01  5.7473E-04 -2.7717E-01  3.1734E-01
ac ID =   33377                 1.0276E+00  1.8348E+00  1.0014E+00  2.3292E+00
                               -2.1142E-01  2.2997E+01 -4.1448E+01  2.5147E+03

           1    1.69003E+01     2.0337E-01 -7.0870E-02 -2.0001E-01  2.9391E-01
ac ID =   33377                 1.2261E+00  2.4542E+00  9.7660E-01  2.9120E+00
                               -2.0718E-01  2.3144E+01 -4.1316E+01  2.5147E+03

           1    1.70003E+01     1.3134E-01  4.6671E-02 -1.6380E-01  2.1508E-01
ac ID =   33377                 9.1441E-01  9.3734E-01 -1.5500E+00  2.0291E+00
                               -2.0386E-01  2.3291E+01 -4.1183E+01  2.5147E+03

           1    1.71003E+01     2.3739E-01 -2.1117E-02 -1.6429E-01  2.8947E-01
ac ID =   33377                 2.1822E-01  3.2779E+00 -3.5808E-01  3.3046E+00
                               -1.9983E-01  2.3438E+01 -4.1051E+01  2.5147E+03

           1    1.72003E+01     2.6496E-02 -5.1046E-02 -8.1359E-02  9.9635E-02
ac ID =   33377                 2.7453E+00 -1.3442E+00 -5.4073E-01  3.1042E+00
                               -1.9644E-01  2.3586E+01 -4.0919E+01  2.5147E+03

           1    1.73003E+01     2.1419E-01  1.3501E-02  3.5432E-03  2.1464E-01
ac ID =   33377                 6.9821E-01  2.5104E+00  3.5768E-01  2.6301E+00
                               -1.9302E-01  2.3734E+01 -4.0787E+01  2.5147E+03

           1    1.74003E+01     1.9558E-01  4.1341E-02  2.9955E-02  2.0213E-01
ac ID =   33377                -6.1610E-01  2.1133E+00  9.1901E-01  2.3855E+00
                               -1.8924E-01  2.3881E+01 -4.0657E+01  2.5147E+03

           1    1.75002E+01     7.1226E-02 -7.7471E-02  6.7830E-02  1.2520E-01
ac ID =   33377                 2.6770E+00  2.6370E-01 -5.8062E-01  2.7519E+00
                               -1.8563E-01  2.4030E+01 -4.0525E+01  2.5147E+03

           1    1.76002E+01     2.0830E-01 -4.3140E-02  1.3120E-01  2.4993E-01
ac ID =   33377                 1.4831E+00  3.2614E+00 -1.1133E+00  3.7518E+00
                               -1.8206E-01  2.4178E+01 -4.0395E+01  2.5147E+03

           1    1.77002E+01     8.0635E-02  1.3279E-01  1.6553E-01  2.2701E-01
ac ID =   33377                -2.3302E+00  3.3927E-01 -2.3757E-01  2.3667E+00
                               -1.7868E-01  2.4327E+01 -4.0266E+01  2.5147E+03

           1    1.78002E+01     1.9579E-01 -3.2240E-02  1.9251E-01  2.7646E-01
ac ID =   33377                 1.5551E+00  2.0596E+00  6.0376E-01  2.6504E+00
                               -1.7467E-01  2.4476E+01 -4.0137E+01  2.5147E+03

           1    1.79002E+01     1.1222E-01 -1.0484E-01  3.2644E-01  3.6076E-01
ac ID =   33377                 2.3893E+00  3.4629E-01  3.2951E-01  2.4367E+00
                               -1.7084E-01  2.4626E+01 -4.0009E+01  2.5147E+03

           1    1.80002E+01     4.4499E-02  8.0177E-02  3.7964E-01  3.9055E-01
ac ID =   33377                -9.1053E-01 -1.3645E+00 -3.8155E-01  1.6842E+00
                               -1.6761E-01  2.4775E+01 -3.9881E+01  2.5147E+03

           1    1.81002E+01     1.9833E-01  3.1074E-02  2.1836E-01  2.9661E-01
ac ID =   33377                -1.1786E-01  1.7473E+00 -1.0655E-01  1.7545E+00
                               -1.6388E-01  2.4925E+01 -3.9755E+01  2.5147E+03

           1    1.82002E+01     1.0125E-01 -8.0799E-02  3.7222E-01  3.9412E-01
ac ID =   33377                 2.5428E+00 -1.4239E-01 -5.0274E-01  2.5960E+00
                               -1.5991E-01  2.5076E+01 -3.9630E+01  2.5147E+03

           1    1.83002E+01     6.0884E-02 -3.2872E-02  5.9885E-01  6.0283E-01
ac ID =   33377                 1.4785E+00 -1.4914E+00 -1.2837E-01  2.1040E+00
                               -1.5627E-01  2.5227E+01 -3.9506E+01  2.5147E+03

           1    1.84002E+01     1.5068E-01  9.4044E-02  4.0825E-01  4.4521E-01
ac ID =   33377                -2.2910E+00  9.2397E-01 -3.3955E-01  2.4936E+00
                               -1.5277E-01  2.5379E+01 -3.9383E+01  2.5147E+03

           1    1.85001E+01     1.1185E-01 -3.8326E-02  3.5541E-01  3.7456E-01
ac ID =   33377                 1.0518E+00  7.4845E-02 -6.5940E-01  1.2437E+00
                               -1.4889E-01  2.5530E+01 -3.9262E+01  2.5147E+03

           1    1.86001E+01     5.0484E-02 -4.0998E-02  6.8412E-01  6.8720E-01
ac ID =   33377                 9.2442E-01 -1.8111E+00  1.8268E-01  2.0415E+00
                               -1.4505E-01  2.5683E+01 -3.9142E+01  2.5147E+03

           1    1.87001E+01     1.0450E-01  1.0386E-01  6.3496E-01  6.5183E-01
ac ID =   33377                -2.6295E+00 -1.2087E+00  4.7541E-01  2.9328E+00
                               -1.4133E-01  2.5836E+01 -3.9023E+01  2.5147E+03

           1    1.88001E+01     1.2003E-01 -3.7547E-02  4.6168E-01  4.7850E-01
ac ID =   33377                 2.8626E-02 -1.0621E-01 -2.2570E-01  2.5108E-01
                               -1.3744E-01  2.5989E+01 -3.8905E+01  2.5147E+03

           1    1.89001E+01     1.2614E-02 -2.9845E-03  6.7983E-01  6.7995E-01
ac ID =   33377                 9.0928E-01 -3.4948E+00  3.5834E-01  3.6289E+00
                               -1.3375E-01  2.6143E+01 -3.8789E+01  2.5147E+03

           1    1.90001E+01     1.2364E-01  5.3125E-02  6.9988E-01  7.1270E-01
ac ID =   33377                -1.8076E+00 -7.5745E-01 -2.4272E-01  1.9748E+00
                               -1.2980E-01  2.6298E+01 -3.8675E+01  2.5147E+03

           1    1.91001E+01     8.2422E-02 -1.3616E-02  6.9023E-01  6.9527E-01
ac ID =   33377                 6.1990E-01 -2.1609E+00 -1.0078E+00  2.4636E+00
                               -1.2599E-01  2.6453E+01 -3.8562E+01  2.5147E+03

           1    1.92001E+01     4.7117E-02 -4.0195E-02  7.8482E-01  7.8726E-01
ac ID =   33377                 9.9504E-01 -2.9055E+00 -4.2236E-01  3.1000E+00
                               -1.2222E-01  2.6609E+01 -3.8451E+01  2.5147E+03

           1    1.93001E+01     1.0548E-01 -1.6978E-03  7.4234E-01  7.4980E-01
ac ID =   33377                 5.0132E-02 -1.5883E+00 -1.1700E-01  1.5934E+00
                               -1.1858E-01  2.6765E+01 -3.8341E+01  2.5147E+03

           1    1.94001E+01     5.4883E-02  8.3328E-02  7.7908E-01  7.8545E-01
ac ID =   33377                -2.0114E+00 -3.1501E+00  4.8154E-01  3.7684E+00
                               -1.1510E-01  2.6922E+01 -3.8234E+01  2.5147E+03

           1    1.95000E+01     7.4087E-02 -6.9414E-02  8.6646E-01  8.7239E-01
ac ID =   33377                 1.3733E+00 -2.9060E+00 -4.6632E-01  3.2478E+00
                               -1.1137E-01  2.7080E+01 -3.8128E+01  2.5147E+03

           1    1.96000E+01     5.7302E-02 -2.9856E-02  7.9114E-01  7.9377E-01
ac ID =   33377                -6.2527E-01 -3.7958E+00 -7.0948E-01  3.9118E+00
                               -1.0795E-01  2.7238E+01 -3.8024E+01  2.5147E+03

           1    1.97005E+01     6.6322E-02  7.8087E-02  8.6411E-01  8.7016E-01
ac ID =   33377                -2.1671E+00 -3.0872E+00 -3.4228E-01  3.7874E+00
                               -1.0498E-01  2.7398E+01 -3.7921E+01  2.5147E+03

           1    1.98005E+01     6.7768E-02 -1.5920E-03  8.5591E-01  8.5859E-01
ac ID =   33377                 4.6574E-02 -3.4366E+00  7.9241E-02  3.4379E+00
                               -1.0177E-01  2.7558E+01 -3.7820E+01  2.5147E+03

           1    1.99005E+01     1.9267E-02 -3.9827E-02  8.2757E-01  8.2876E-01
ac ID =   33377                 3.1398E-01 -4.2108E+00  2.3021E-01  4.2287E+00
                               -9.8522E-02  2.7718E+01 -3.7722E+01  2.5147E+03

           1    2.00005E+01     9.2217E-02  2.3101E-02  9.6577E-01  9.7044E-01
ac ID =   33377                -3.2730E-01 -3.3079E+00 -1.9359E-01  3.3297E+00
                               -9.5794E-02  2.7879E+01 -3.7625E+01  2.5147E+03

           1    2.01005E+01     4.8011E-02  2.9767E-02  9.3943E-01  9.4113E-01
ac ID =   33377                -8.9562E-01 -4.1903E+00 -6.6956E-01  4.3370E+00
                               -9.2935E-02  2.8041E+01 -3.7531E+01  2.5147E+03

           1    2.02005E+01     3.8570E-02 -5.7380E-02  8.6118E-01  8.6395E-01
ac ID =   33377                 1.3135E+00 -4.0086E+00 -9.4402E-01  4.3227E+00
                               -9.0001E-02  2.8204E+01 -3.7438E+01  2.5147E+03

           1    2.03005E+01     4.0193E-02  2.5632E-02  9.0473E-01  9.0599E-01
ac ID =   33377                -8.4268E-01 -4.8132E+00 -1.2925E-01  4.8881E+00
                               -8.7479E-02  2.8367E+01 -3.7347E+01  2.5147E+03

           1    2.04005E+01     7.4566E-02  5.3364E-02  9.8245E-01  9.8672E-01
ac ID =   33377                -9.3149E-01 -4.7781E+00  3.2602E-01  4.8789E+00
                               -8.4766E-02  2.8530E+01 -3.7258E+01  2.5147E+03

           1    2.05004E+01     5.4476E-02 -3.9305E-02  9.9730E-01  9.9956E-01
ac ID =   33377                 1.0790E-01 -4.9918E+00  3.2959E-02  4.9930E+00
                               -8.1589E-02  2.8695E+01 -3.7171E+01  2.5147E+03

           1    2.06004E+01    -1.0731E-02 -1.4185E-02  8.6958E-01  8.6976E-01
ac ID =   33377                -6.6537E-03 -6.2390E+00  8.3577E-02  6.2395E+00
                               -7.9009E-02  2.8860E+01 -3.7086E+01  2.5147E+03

           1    2.07004E+01     8.0124E-02  8.2245E-02  8.4416E-01  8.5194E-01
ac ID =   33377                -1.8168E+00 -4.5784E+00  2.3346E-02  4.9258E+00
                               -7.6530E-02  2.9026E+01 -3.7003E+01  2.5147E+03

           1    2.08004E+01     3.9389E-02 -2.9441E-02  1.0591E+00  1.0602E+00
ac ID =   33377                 1.3727E-01 -5.5951E+00 -1.2865E-01  5.5983E+00
                               -7.3472E-02  2.9192E+01 -3.6922E+01  2.5147E+03

           1    2.09004E+01    -9.1271E-03 -3.0157E-02  1.0416E+00  1.0420E+00
ac ID =   33377                 8.6719E-01 -5.9121E+00 -4.1621E-01  5.9898E+00
                               -7.0764E-02  2.9359E+01 -3.6843E+01  2.5147E+03

           1    2.10004E+01     3.1087E-02  9.4675E-03  8.3487E-01  8.3550E-01
ac ID =   33377                 2.9689E-01 -5.9535E+00 -6.0353E-01  5.9914E+00
                               -6.8383E-02  2.9527E+01 -3.6766E+01  2.5147E+03

           1    2.11004E+01     6.2522E-02  2.9938E-02  8.6412E-01  8.6690E-01
ac ID =   33377                -7.0925E-01 -5.4815E+00  2.1933E-01  5.5316E+00
                               -6.5640E-02  2.9695E+01 -3.6692E+01  2.5147E+03

           1    2.12004E+01     2.9570E-02 -4.3377E-02  1.0714E+00  1.0727E+00
ac ID =   33377                 8.3443E-01 -6.1913E+00 -3.9757E-01  6.2599E+00
                               -6.2945E-02  2.9865E+01 -3.6619E+01  2.5147E+03

           1    2.13004E+01     4.6202E-03 -7.8122E-02  1.0371E+00  1.0401E+00
ac ID =   33377                 2.0593E+00 -7.1516E+00 -3.5280E-01  7.4506E+00
                               -6.0663E-02  3.0035E+01 -3.6549E+01  2.5147E+03

           1    2.14004E+01     6.8638E-02  6.4832E-02  7.9987E-01  8.0542E-01
ac ID =   33377                -1.7014E+00 -5.1968E+00  2.8860E-01  5.4758E+00
                               -5.8670E-02  3.0205E+01 -3.6479E+01  2.5147E+03

           1    2.15003E+01     3.9583E-02  2.9098E-02  8.5535E-01  8.5676E-01
ac ID =   33377                -7.2761E-01 -5.7522E+00  1.2446E-01  5.7994E+00
                               -5.6465E-02  3.0376E+01 -3.6413E+01  2.5147E+03

           1    2.16003E+01     1.5966E-02 -7.7237E-02  1.0091E+00  1.0121E+00
ac ID =   33377                 1.4990E+00 -6.8166E+00  1.2503E-01  6.9806E+00
                               -5.4322E-02  3.0548E+01 -3.6349E+01  2.5147E+03

           1    2.17003E+01     7.2221E-02  2.8340E-02  9.4172E-01  9.4492E-01
ac ID =   33377                -4.6049E-01 -5.3469E+00 -5.8703E-01  5.3987E+00
                               -5.2550E-02  3.0720E+01 -3.6286E+01  2.5147E+03

           1    2.18003E+01     4.7154E-02  5.2818E-02  8.0847E-01  8.1157E-01
ac ID =   33377                -1.5457E+00 -6.0413E+00 -5.5025E-02  6.2362E+00
                               -5.0649E-02  3.0892E+01 -3.6225E+01  2.5147E+03

           1    2.19003E+01     6.3764E-02 -2.6882E-02  8.2717E-01  8.3006E-01
ac ID =   33377                 1.1648E+00 -5.6388E+00 -2.5578E-01  5.7635E+00
                               -4.8598E-02  3.1066E+01 -3.6165E+01  2.5147E+03

           1    2.20003E+01     2.8447E-02 -5.0001E-02  8.9266E-01  8.9452E-01
ac ID =   33377                 9.6050E-01 -6.6128E+00 -8.3849E-02  6.6827E+00
                               -4.6583E-02  3.1239E+01 -3.6108E+01  2.5147E+03

           1    2.21003E+01     7.4663E-02  7.4056E-02  8.8737E-01  8.9358E-01
ac ID =   33377                -7.3464E-01 -5.8390E+00 -1.2740E-01  5.8864E+00
                               -4.4713E-02  3.1413E+01 -3.6053E+01  2.5147E+03

           1    2.22003E+01     9.0755E-02 -9.0369E-03  7.3861E-01  7.4422E-01
ac ID =   33377                -2.9026E-01 -5.3516E+00 -9.9102E-02  5.3603E+00
                               -4.2335E-02  3.1587E+01 -3.5999E+01  2.5147E+03

           1    2.23003E+01     1.8934E-02 -4.5294E-02  7.3830E-01  7.3993E-01
ac ID =   33377                 1.6848E+00 -7.2465E+00 -2.4168E-01  7.4436E+00
                               -4.0027E-02  3.1762E+01 -3.5947E+01  2.5147E+03

           1    2.24003E+01     9.5074E-02  3.1510E-02  8.4398E-01  8.4990E-01
ac ID =   33377                -6.5458E-01 -5.7577E+00 -2.7710E-01  5.8014E+00
                               -3.7745E-02  3.1937E+01 -3.5896E+01  2.5147E+03

           1    2.25002E+01     9.1604E-02  3.4075E-02  7.7637E-01  7.8249E-01
ac ID =   33377                -6.0315E-01 -5.5258E+00 -1.2091E-01  5.5599E+00
                               -3.5305E-02  3.2113E+01 -3.5847E+01  2.5147E+03

           1    2.26002E+01     1.4992E-02 -4.6638E-02  7.0303E-01  7.0474E-01
ac ID =   33377                 1.0815E+00 -7.2130E+00  4.1577E-02  7.2938E+00
                               -3.2862E-02  3.2289E+01 -3.5799E+01  2.5147E+03

           1    2.27002E+01     1.1203E-01  1.0123E-02  6.8243E-01  6.9164E-01
ac ID =   33377                 2.2461E-01 -5.5366E+00 -5.6130E-01  5.5695E+00
                               -3.0514E-02  3.2465E+01 -3.5753E+01  2.5147E+03

           1    2.28002E+01     7.4123E-02  1.4135E-02  6.9316E-01  6.9725E-01
ac ID =   33377                -5.1645E-01 -6.4606E+00 -2.7588E-01  6.4870E+00
                               -2.8092E-02  3.2641E+01 -3.5709E+01  2.5147E+03

           1    2.29002E+01     5.7554E-02 -3.5308E-02  7.1429E-01  7.1748E-01
ac ID =   33377                 1.2963E+00 -7.2238E+00 -3.2746E-01  7.3465E+00
                               -2.5822E-02  3.2818E+01 -3.5666E+01  2.5147E+03

           1    2.30002E+01     7.4593E-02 -5.7681E-02  6.3386E-01  6.4083E-01
ac ID =   33377                 1.3736E+00 -6.9594E+00 -5.8318E-02  7.0939E+00
                               -2.3839E-02  3.2995E+01 -3.5624E+01  2.5147E+03

           1    2.31002E+01     8.3378E-02  1.5070E-02  5.3824E-01  5.4487E-01
ac ID =   33377                -2.6534E-01 -6.8385E+00  3.0374E-01  6.8503E+00
                               -2.2108E-02  3.3172E+01 -3.5583E+01  2.5147E+03

           1    2.32002E+01     8.0179E-02  1.0483E-03  5.7348E-01  5.7905E-01
ac ID =   33377                 6.3769E-02 -7.1378E+00 -4.4180E-01  7.1517E+00
                               -2.0474E-02  3.3350E+01 -3.5544E+01  2.5147E+03

           1    2.33002E+01     7.3414E-02 -4.9576E-02  5.7603E-01  5.8281E-01
ac ID =   33377                 1.3191E+00 -7.7123E+00 -6.9188E-01  7.8549E+00
                               -1.8907E-02  3.3527E+01 -3.5506E+01  2.5147E+03

           1    2.34002E+01     1.0311E-01 -9.2775E-03  5.0026E-01  5.1086E-01
ac ID =   33377                -1.1399E-01 -6.8435E+00 -4.9071E-02  6.8446E+00
                               -1.7679E-02  3.3705E+01 -3.5470E+01  2.5147E+03

           1    2.35001E+01     7.4733E-02  2.2693E-02  4.2440E-01  4.3153E-01
ac ID =   33377                -6.3164E-01 -7.6652E+00  1.8923E-01  7.6935E+00
                               -1.6715E-02  3.3883E+01 -3.5434E+01  2.5147E+03

           1    2.36001E+01     7.4376E-02 -8.0808E-04  4.0519E-01  4.1196E-01
ac ID =   33377                -1.2271E-01 -7.9118E+00  2.5575E-01  7.9169E+00
                               -1.5792E-02  3.4062E+01 -3.5400E+01  2.5147E+03

           1    2.37001E+01     1.1399E-01 -2.5069E-02  4.2608E-01  4.4177E-01
ac ID =   33377                 5.6738E-01 -7.0819E+00 -7.4768E-01  7.1438E+00
                               -1.4955E-02  3.4240E+01 -3.5367E+01  2.5147E+03

           1    2.38001E+01     6.1949E-02  2.0737E-02  4.0063E-01  4.0592E-01
ac ID =   33377                -3.6683E-01 -8.4174E+00 -8.6677E-01  8.4699E+00
                               -1.4259E-02  3.4418E+01 -3.5334E+01  2.5147E+03

           1    2.39001E+01     1.1658E-01  1.4569E-02  3.0184E-01  3.2389E-01
ac ID =   33377                -4.2903E-01 -6.9915E+00 -3.2548E-01  7.0122E+00
                               -1.3510E-02  3.4597E+01 -3.5303E+01  2.5147E+03

           1    2.40001E+01     1.1779E-01 -1.0287E-02  2.8942E-01  3.1264E-01
ac ID =   33377                 6.8735E-01 -7.1164E+00  2.0184E-03  7.1495E+00
                               -1.2764E-02  3.4775E+01 -3.5272E+01  2.5147E+03

           1    2.41001E+01     8.5917E-02  7.7398E-03  3.1472E-01  3.2632E-01
ac ID =   33377                -2.7296E-01 -7.6420E+00 -4.5310E-01  7.6603E+00
                               -1.1911E-02  3.4954E+01 -3.5242E+01  2.5147E+03

           1    2.42001E+01     1.2936E-01  2.9456E-02  2.9558E-01  3.2399E-01
ac ID =   33377                -7.4121E-01 -6.8740E+00 -1.0381E+00  6.9913E+00
                               -1.1110E-02  3.5132E+01 -3.5212E+01  2.5147E+03

           1    2.43001E+01     1.2407E-01  1.6662E-02  2.2622E-01  2.5855E-01
ac ID =   33377                -2.8338E-01 -7.2066E+00 -7.5055E-01  7.2511E+00
                               -1.0212E-02  3.5310E+01 -3.5183E+01  2.5147E+03

           1    2.44001E+01     1.0635E-01  1.0867E-02  1.5005E-01  1.8424E-01
ac ID =   33377                -7.3881E-01 -7.4747E+00 -2.4541E-01  7.5151E+00
                               -9.1751E-03  3.5489E+01 -3.5154E+01  2.5147E+03

           1    2.45005E+01     1.2537E-01  3.9154E-02  1.7913E-01  2.2212E-01
ac ID =   33377                -1.0468E+00 -7.2536E+00 -4.1071E-02  7.3289E+00
                               -8.1185E-03  3.5667E+01 -3.5125E+01  2.5147E+03

           1    2.46005E+01     1.4396E-01  1.6809E-02  1.8821E-01  2.3755E-01
ac ID =   33377                -5.2604E-01 -7.0852E+00 -2.7809E-01  7.1101E+00
                               -6.9774E-03  3.5845E+01 -3.5097E+01  2.5147E+03

           1    2.47005E+01     1.2809E-01  1.0343E-02  8.4533E-02  1.5381E-01
ac ID =   33377                -1.6643E-01 -7.2517E+00 -6.4397E-01  7.2821E+00
                               -5.7479E-03  3.6022E+01 -3.5068E+01  2.5147E+03

           1    2.48005E+01     1.3873E-01  6.7481E-03  2.4536E-02  1.4105E-01
ac ID =   33377                -2.8248E-01 -6.9854E+00 -5.8546E-01  7.0156E+00
                               -4.4929E-03  3.6199E+01 -3.5040E+01  2.5147E+03

           1    2.49005E+01     1.5045E-01  2.3338E-02  5.2647E-02  1.6110E-01
ac ID =   33377                -1.6867E-01 -7.0065E+00 -1.7527E-01  7.0107E+00
                               -3.1762E-03  3.6376E+01 -3.5012E+01  2.5147E+03

