 LSTC 50th% Full_FE H-III Dummy (Beta Version, February 17, 2019)        
                    ls-dyna smp s R16 R16.0_619_d222963 date 03/18/2025

{BEGIN LEGEND}
 Entity #        Title
    22626                                                                                     
{END LEGEND}




 n o d a l   p r i n t   o u t   f o r   t i m e  s t e p       1                              ( at time 0.0000000E+00 )

 nodal point  x-disp     y-disp      z-disp      x-vel       y-vel       z-vel      x-accl      y-accl      z-accl      x-coor      y-coor      z-coor
    22626  0.00000E+00 0.00000E+00 0.00000E+00 0.00000E+00 0.00000E+00 0.00000E+00 0.00000E+00 0.00000E+00 0.00000E+00 4.65938E+00-2.81908E+01-4.49817E+01



 n o d a l   p r i n t   o u t   f o r   t i m e  s t e p       1                              ( at time 0.0000000E+00 )

 nodal point  x-rot      y-rot       z-rot       x-rot vel   y-rot vel   z-rot vel   x-rot acc   y-rot acc   z-rot acc
    22626  0.00000E+00 0.00000E+00 0.00000E+00 0.00000E+00 0.00000E+00 0.00000E+00 0.00000E+00 0.00000E+00 0.00000E+00



 n o d a l   p r i n t   o u t   f o r   t i m e  s t e p     201                              ( at time 9.9989993E-02 )

 nodal point  x-disp     y-disp      z-disp      x-vel       y-vel       z-vel      x-accl      y-accl      z-accl      x-coor      y-coor      z-coor
    22626  2.73575E-07 1.73669E-06-5.34278E-05 4.19752E-05 2.55596E-04-1.46819E-03 4.19794E-04 2.55621E-03-1.46834E-02 4.65938E+00-2.81908E+01-4.49818E+01



 n o d a l   p r i n t   o u t   f o r   t i m e  s t e p     201                              ( at time 9.9989993E-02 )

 nodal point  x-rot      y-rot       z-rot       x-rot vel   y-rot vel   z-rot vel   x-rot acc   y-rot acc   z-rot acc
    22626 -5.98981E-08-8.38467E-09-5.45921E-09-5.86955E-06-9.69950E-07-9.27110E-07-5.87014E-05-9.70047E-06-9.27203E-06



 n o d a l   p r i n t   o u t   f o r   t i m e  s t e p     401                              ( at time 1.9997999E-01 )

 nodal point  x-disp     y-disp      z-disp      x-vel       y-vel       z-vel      x-accl      y-accl      z-accl      x-coor      y-coor      z-coor
    22626  1.73082E-05 3.61741E-04-6.67579E-04 3.04738E-05 7.81142E-03-1.21546E-02-1.15025E-04 7.55658E-02-1.06875E-01 4.65939E+00-2.81905E+01-4.49824E+01



 n o d a l   p r i n t   o u t   f o r   t i m e  s t e p     401                              ( at time 1.9997999E-01 )

 nodal point  x-rot      y-rot       z-rot       x-rot vel   y-rot vel   z-rot vel   x-rot acc   y-rot acc   z-rot acc
    22626 -2.81967E-06-3.37158E-07-3.34546E-07-3.94433E-05-1.76368E-06-2.28597E-06-3.35771E-04-7.93807E-06-1.35900E-05



 n o d a l   p r i n t   o u t   f o r   t i m e  s t e p     601                              ( at time 2.9996998E-01 )

 nodal point  x-disp     y-disp      z-disp      x-vel       y-vel       z-vel      x-accl      y-accl      z-accl      x-coor      y-coor      z-coor
    22626  2.73807E-05 1.24007E-03-2.33845E-03 4.20632E-04 8.44885E-03-1.92532E-02 3.90197E-03 6.37497E-03-7.09934E-02 4.65940E+00-2.81896E+01-4.49841E+01



 n o d a l   p r i n t   o u t   f o r   t i m e  s t e p     601                              ( at time 2.9996998E-01 )

 nodal point  x-rot      y-rot       z-rot       x-rot vel   y-rot vel   z-rot vel   x-rot acc   y-rot acc   z-rot acc
    22626 -5.38431E-06-3.90510E-07-6.42190E-07-1.53780E-05-5.44560E-06-6.69226E-06 2.40677E-04-3.68229E-05-4.40673E-05



 n o d a l   p r i n t   o u t   f o r   t i m e  s t e p     801                              ( at time 3.9995997E-01 )

 nodal point  x-disp     y-disp      z-disp      x-vel       y-vel       z-vel      x-accl      y-accl      z-accl      x-coor      y-coor      z-coor
    22626  2.60378E-05 2.16243E-03-4.28288E-03-3.16354E-04 1.07395E-02-2.10882E-02-7.37060E-03 2.29089E-02-1.83516E-02 4.65940E+00-2.81887E+01-4.49860E+01



 n o d a l   p r i n t   o u t   f o r   t i m e  s t e p     801                              ( at time 3.9995997E-01 )

 nodal point  x-rot      y-rot       z-rot       x-rot vel   y-rot vel   z-rot vel   x-rot acc   y-rot acc   z-rot acc
    22626 -7.61723E-06-1.25008E-06-9.81136E-07-4.49667E-05-6.18236E-06-1.48074E-06-2.95917E-04-7.36831E-06 5.21204E-05



 n o d a l   p r i n t   o u t   f o r   t i m e  s t e p    1001                              ( at time 4.9994997E-01 )

 nodal point  x-disp     y-disp      z-disp      x-vel       y-vel       z-vel      x-accl      y-accl      z-accl      x-coor      y-coor      z-coor
    22626  3.67630E-06 3.43652E-03-6.74479E-03-2.39341E-04 1.41518E-02-2.87071E-02 7.70208E-04 3.41268E-02-7.61969E-02 4.65938E+00-2.81874E+01-4.49885E+01



 n o d a l   p r i n t   o u t   f o r   t i m e  s t e p    1001                              ( at time 4.9994997E-01 )

 nodal point  x-rot      y-rot       z-rot       x-rot vel   y-rot vel   z-rot vel   x-rot acc   y-rot acc   z-rot acc
    22626 -1.35612E-05-1.16528E-06-9.49473E-07-8.42067E-05 3.20732E-06 4.09318E-06-3.92439E-04 9.39061E-05 5.57448E-05



 n o d a l   p r i n t   o u t   f o r   t i m e  s t e p    1201                              ( at time 5.9993996E-01 )

 nodal point  x-disp     y-disp      z-disp      x-vel       y-vel       z-vel      x-accl      y-accl      z-accl      x-coor      y-coor      z-coor
    22626 -8.67111E-07 5.01223E-03-9.71616E-03 4.54765E-05 1.67010E-02-3.09931E-02 2.84846E-03 2.54945E-02-2.28621E-02 4.65937E+00-2.81858E+01-4.49914E+01



 n o d a l   p r i n t   o u t   f o r   t i m e  s t e p    1201                              ( at time 5.9993996E-01 )

 nodal point  x-rot      y-rot       z-rot       x-rot vel   y-rot vel   z-rot vel   x-rot acc   y-rot acc   z-rot acc
    22626 -2.02879E-05-8.86720E-07-9.58051E-07-5.90313E-05 3.87706E-06-2.02970E-06 2.51779E-04 6.69809E-06-6.12349E-05



 n o d a l   p r i n t   o u t   f o r   t i m e  s t e p    1401                              ( at time 6.9992995E-01 )

 nodal point  x-disp     y-disp      z-disp      x-vel       y-vel       z-vel      x-accl      y-accl      z-accl      x-coor      y-coor      z-coor
    22626 -5.10195E-05 6.85038E-03-1.31710E-02-4.88011E-04 1.96607E-02-3.89647E-02-5.33541E-03 2.95990E-02-7.97237E-02 4.65932E+00-2.81840E+01-4.49949E+01



 n o d a l   p r i n t   o u t   f o r   t i m e  s t e p    1401                              ( at time 6.9992995E-01 )

 nodal point  x-rot      y-rot       z-rot       x-rot vel   y-rot vel   z-rot vel   x-rot acc   y-rot acc   z-rot acc
    22626 -2.62097E-05-9.01106E-07-6.32455E-07-7.08069E-05 2.21548E-07 3.81899E-06-1.17768E-04-3.65588E-05 5.84927E-05



 n o d a l   p r i n t   o u t   f o r   t i m e  s t e p    1601                              ( at time 7.9991994E-01 )

 nodal point  x-disp     y-disp      z-disp      x-vel       y-vel       z-vel      x-accl      y-accl      z-accl      x-coor      y-coor      z-coor
    22626 -8.02531E-05 8.98674E-03-1.74642E-02-4.95791E-04 2.21620E-02-4.51201E-02-7.78119E-05 2.50159E-02-6.15603E-02 4.65929E+00-2.81818E+01-4.49992E+01



 n o d a l   p r i n t   o u t   f o r   t i m e  s t e p    1601                              ( at time 7.9991994E-01 )

 nodal point  x-rot      y-rot       z-rot       x-rot vel   y-rot vel   z-rot vel   x-rot acc   y-rot acc   z-rot acc
    22626 -3.43999E-05-8.78352E-07-5.15436E-07-9.19193E-05-4.83060E-06 1.52288E-06-2.11145E-04-5.05266E-05-2.29634E-05



 n o d a l   p r i n t   o u t   f o r   t i m e  s t e p    1801                              ( at time 8.9990994E-01 )

 nodal point  x-disp     y-disp      z-disp      x-vel       y-vel       z-vel      x-accl      y-accl      z-accl      x-coor      y-coor      z-coor
    22626 -1.16868E-04 1.12542E-02-2.19905E-02-2.91239E-04 2.40418E-02-4.55840E-02 2.04573E-03 1.87999E-02-4.63950E-03 4.65926E+00-2.81796E+01-4.50037E+01



 n o d a l   p r i n t   o u t   f o r   t i m e  s t e p    1801                              ( at time 8.9990994E-01 )

 nodal point  x-rot      y-rot       z-rot       x-rot vel   y-rot vel   z-rot vel   x-rot acc   y-rot acc   z-rot acc
    22626 -4.28185E-05-9.58441E-07-5.02922E-07-8.26227E-05 1.95637E-06-6.49117E-07 9.29748E-05 6.78766E-05-2.17222E-05



 n o d a l   p r i n t   o u t   f o r   t i m e  s t e p    2001                              ( at time 9.9989993E-01 )

 nodal point  x-disp     y-disp      z-disp      x-vel       y-vel       z-vel      x-accl      y-accl      z-accl      x-coor      y-coor      z-coor
    22626 -1.52060E-04 1.37912E-02-2.67304E-02-3.55895E-05 2.64986E-02-5.00355E-02 2.55675E-03 2.45707E-02-4.45194E-02 4.65922E+00-2.81770E+01-4.50084E+01



 n o d a l   p r i n t   o u t   f o r   t i m e  s t e p    2001                              ( at time 9.9989993E-01 )

 nodal point  x-rot      y-rot       z-rot       x-rot vel   y-rot vel   z-rot vel   x-rot acc   y-rot acc   z-rot acc
    22626 -5.18503E-05-9.08494E-07-4.38022E-07-1.06196E-04 1.23287E-06-2.98726E-06-2.35756E-04-7.23578E-06-2.33838E-05



 n o d a l   p r i n t   o u t   f o r   t i m e  s t e p    2201                              ( at time 1.0998899E+00 )

 nodal point  x-disp     y-disp      z-disp      x-vel       y-vel       z-vel      x-accl      y-accl      z-accl      x-coor      y-coor      z-coor
    22626 -1.59804E-04 1.65321E-02-3.20559E-02-3.42465E-04 2.88839E-02-5.60786E-02-3.06907E-03 2.38555E-02-6.04369E-02 4.65921E+00-2.81743E+01-4.50138E+01



 n o d a l   p r i n t   o u t   f o r   t i m e  s t e p    2201                              ( at time 1.0998899E+00 )

 nodal point  x-rot      y-rot       z-rot       x-rot vel   y-rot vel   z-rot vel   x-rot acc   y-rot acc   z-rot acc
    22626 -6.29464E-05-1.00469E-06-7.50047E-07-1.03878E-04-7.59522E-06-2.10123E-06 2.31784E-05-8.82898E-05 8.86115E-06



 n o d a l   p r i n t   o u t   f o r   t i m e  s t e p    2401                              ( at time 1.1998799E+00 )

 nodal point  x-disp     y-disp      z-disp      x-vel       y-vel       z-vel      x-accl      y-accl      z-accl      x-coor      y-coor      z-coor
    22626 -1.89805E-04 1.94752E-02-3.79327E-02-1.98923E-04 3.02252E-02-6.12106E-02 1.43557E-03 1.34139E-02-5.13251E-02 4.65919E+00-2.81714E+01-4.50197E+01



 n o d a l   p r i n t   o u t   f o r   t i m e  s t e p    2401                              ( at time 1.1998799E+00 )

 nodal point  x-rot      y-rot       z-rot       x-rot vel   y-rot vel   z-rot vel   x-rot acc   y-rot acc   z-rot acc
    22626 -7.29521E-05-1.61456E-06-9.90971E-07-1.01326E-04-7.17297E-06-2.96109E-06 2.55275E-05 4.22293E-06-8.59945E-06



 n o d a l   p r i n t   o u t   f o r   t i m e  s t e p    2601                              ( at time 1.2998699E+00 )

 nodal point  x-disp     y-disp      z-disp      x-vel       y-vel       z-vel      x-accl      y-accl      z-accl      x-coor      y-coor      z-coor
    22626 -2.23866E-04 2.26249E-02-4.42080E-02-2.46702E-04 3.25997E-02-6.40512E-02-4.77836E-04 2.37474E-02-2.84092E-02 4.65915E+00-2.81682E+01-4.50259E+01



 n o d a l   p r i n t   o u t   f o r   t i m e  s t e p    2601                              ( at time 1.2998699E+00 )

 nodal point  x-rot      y-rot       z-rot       x-rot vel   y-rot vel   z-rot vel   x-rot acc   y-rot acc   z-rot acc
    22626 -8.39959E-05-2.17073E-06-1.24655E-06-1.29386E-04 1.48281E-08-1.44603E-06-2.80630E-04 7.18852E-05 1.51522E-05



 n o d a l   p r i n t   o u t   f o r   t i m e  s t e p    2801                              ( at time 1.3998599E+00 )

 nodal point  x-disp     y-disp      z-disp      x-vel       y-vel       z-vel      x-accl      y-accl      z-accl      x-coor      y-coor      z-coor
    22626 -2.51511E-04 2.59923E-02-5.07123E-02-4.47800E-04 3.45149E-02-6.66742E-02-2.01119E-03 1.91537E-02-2.62328E-02 4.65912E+00-2.81648E+01-4.50324E+01



 n o d a l   p r i n t   o u t   f o r   t i m e  s t e p    2801                              ( at time 1.3998599E+00 )

 nodal point  x-rot      y-rot       z-rot       x-rot vel   y-rot vel   z-rot vel   x-rot acc   y-rot acc   z-rot acc
    22626 -9.73998E-05-2.01042E-06-1.34492E-06-1.36927E-04-1.74092E-07 1.76777E-06-7.54199E-05-1.88939E-06 3.21412E-05



 n o d a l   p r i n t   o u t   f o r   t i m e  s t e p    3001                              ( at time 1.4998499E+00 )

 nodal point  x-disp     y-disp      z-disp      x-vel       y-vel       z-vel      x-accl      y-accl      z-accl      x-coor      y-coor      z-coor
    22626 -2.96373E-04 2.95911E-02-5.77244E-02-4.45032E-04 3.72833E-02-7.39871E-02 2.76860E-05 2.76868E-02-7.31362E-02 4.65908E+00-2.81612E+01-4.50394E+01



 n o d a l   p r i n t   o u t   f o r   t i m e  s t e p    3001                              ( at time 1.4998499E+00 )

 nodal point  x-rot      y-rot       z-rot       x-rot vel   y-rot vel   z-rot vel   x-rot acc   y-rot acc   z-rot acc
    22626 -1.10708E-04-2.03045E-06-1.27055E-06-1.28555E-04-1.11503E-06-1.71500E-06 8.37353E-05-9.41030E-06-3.48312E-05



 n o d a l   p r i n t   o u t   f o r   t i m e  s t e p    3201                              ( at time 1.5998399E+00 )

 nodal point  x-disp     y-disp      z-disp      x-vel       y-vel       z-vel      x-accl      y-accl      z-accl      x-coor      y-coor      z-coor
    22626 -3.60114E-04 3.34891E-02-6.54466E-02-5.86697E-04 4.05436E-02-7.97030E-02-1.41679E-03 3.26067E-02-5.71643E-02 4.65901E+00-2.81573E+01-4.50472E+01



 n o d a l   p r i n t   o u t   f o r   t i m e  s t e p    3201                              ( at time 1.5998399E+00 )

 nodal point  x-rot      y-rot       z-rot       x-rot vel   y-rot vel   z-rot vel   x-rot acc   y-rot acc   z-rot acc
    22626 -1.23311E-04-2.14772E-06-1.09891E-06-1.34646E-04-2.94483E-06 3.09632E-06-6.09173E-05-1.82999E-05 4.81181E-05



 n o d a l   p r i n t   o u t   f o r   t i m e  s t e p    3401                              ( at time 1.6998299E+00 )

 nodal point  x-disp     y-disp      z-disp      x-vel       y-vel       z-vel      x-accl      y-accl      z-accl      x-coor      y-coor      z-coor
    22626 -4.21782E-04 3.76417E-02-7.35824E-02-7.29944E-04 4.22414E-02-8.25936E-02-1.43262E-03 1.69796E-02-2.89094E-02 4.65895E+00-2.81532E+01-4.50553E+01



 n o d a l   p r i n t   o u t   f o r   t i m e  s t e p    3401                              ( at time 1.6998299E+00 )

 nodal point  x-rot      y-rot       z-rot       x-rot vel   y-rot vel   z-rot vel   x-rot acc   y-rot acc   z-rot acc
    22626 -1.37610E-04-2.15141E-06-9.09625E-07-1.47652E-04 1.70992E-06 3.93468E-06-1.30073E-04 4.65521E-05 8.38440E-06



 n o d a l   p r i n t   o u t   f o r   t i m e  s t e p    3601                              ( at time 1.7998199E+00 )

 nodal point  x-disp     y-disp      z-disp      x-vel       y-vel       z-vel      x-accl      y-accl      z-accl      x-coor      y-coor      z-coor
    22626 -4.84923E-04 4.19003E-02-8.19600E-02-5.10940E-04 4.32816E-02-8.48730E-02 2.19027E-03 1.04031E-02-2.27963E-02 4.65889E+00-2.81489E+01-4.50637E+01



 n o d a l   p r i n t   o u t   f o r   t i m e  s t e p    3601                              ( at time 1.7998199E+00 )

 nodal point  x-rot      y-rot       z-rot       x-rot vel   y-rot vel   z-rot vel   x-rot acc   y-rot acc   z-rot acc
    22626 -1.52821E-04-2.06266E-06-7.77709E-07-1.49697E-04 1.52003E-06-1.38367E-06-2.04551E-05-1.89910E-06-5.31888E-05



 n o d a l   p r i n t   o u t   f o r   t i m e  s t e p    3801                              ( at time 1.8998099E+00 )

 nodal point  x-disp     y-disp      z-disp      x-vel       y-vel       z-vel      x-accl      y-accl      z-accl      x-coor      y-coor      z-coor
    22626 -5.44218E-04 4.63775E-02-9.06360E-02-5.22778E-04 4.60792E-02-8.88690E-02-1.18396E-04 2.79784E-02-3.99642E-02 4.65883E+00-2.81445E+01-4.50724E+01



 n o d a l   p r i n t   o u t   f o r   t i m e  s t e p    3801                              ( at time 1.8998099E+00 )

 nodal point  x-rot      y-rot       z-rot       x-rot vel   y-rot vel   z-rot vel   x-rot acc   y-rot acc   z-rot acc
    22626 -1.67674E-04-1.85192E-06-6.48209E-07-1.49909E-04-1.60927E-06-5.32621E-07-2.11650E-06-3.12961E-05 8.51130E-06



 n o d a l   p r i n t   o u t   f o r   t i m e  s t e p    4001                              ( at time 1.9997999E+00 )

 nodal point  x-disp     y-disp      z-disp      x-vel       y-vel       z-vel      x-accl      y-accl      z-accl      x-coor      y-coor      z-coor
    22626 -5.95055E-04 5.10272E-02-9.97454E-02-5.44309E-04 4.71659E-02-9.31093E-02-2.15335E-04 1.08681E-02-4.24068E-02 4.65878E+00-2.81398E+01-4.50815E+01



 n o d a l   p r i n t   o u t   f o r   t i m e  s t e p    4001                              ( at time 1.9997999E+00 )

 nodal point  x-rot      y-rot       z-rot       x-rot vel   y-rot vel   z-rot vel   x-rot acc   y-rot acc   z-rot acc
    22626 -1.82767E-04-2.08774E-06-6.99093E-07-1.56190E-04-4.62736E-06-2.53478E-07-6.28155E-05-3.01839E-05 2.79170E-06



 n o d a l   p r i n t   o u t   f o r   t i m e  s t e p    4201                              ( at time 2.0997899E+00 )

 nodal point  x-disp     y-disp      z-disp      x-vel       y-vel       z-vel      x-accl      y-accl      z-accl      x-coor      y-coor      z-coor
    22626 -6.49197E-04 5.57836E-02-1.09162E-01-5.57834E-04 4.81936E-02-9.52992E-02-1.35258E-04 1.02782E-02-2.19012E-02 4.65873E+00-2.81350E+01-4.50909E+01



 n o d a l   p r i n t   o u t   f o r   t i m e  s t e p    4201                              ( at time 2.0997899E+00 )

 nodal point  x-rot      y-rot       z-rot       x-rot vel   y-rot vel   z-rot vel   x-rot acc   y-rot acc   z-rot acc
    22626 -1.97947E-04-2.47785E-06-8.62203E-07-1.49965E-04-1.55554E-06 2.08626E-06 6.22485E-05 3.07213E-05 2.33998E-05



 n o d a l   p r i n t   o u t   f o r   t i m e  s t e p    4401                              ( at time 2.1997798E+00 )

 nodal point  x-disp     y-disp      z-disp      x-vel       y-vel       z-vel      x-accl      y-accl      z-accl      x-coor      y-coor      z-coor
    22626 -7.07960E-04 6.06673E-02-1.18761E-01-4.98194E-04 4.91621E-02-9.67343E-02 5.96461E-04 9.68632E-03-1.43531E-02 4.65867E+00-2.81302E+01-4.51005E+01



 n o d a l   p r i n t   o u t   f o r   t i m e  s t e p    4401                              ( at time 2.1997798E+00 )

 nodal point  x-rot      y-rot       z-rot       x-rot vel   y-rot vel   z-rot vel   x-rot acc   y-rot acc   z-rot acc
    22626 -2.13320E-04-2.58341E-06-8.59611E-07-1.59165E-04-1.60826E-06-9.95691E-07-9.20051E-05-5.27298E-07-3.08227E-05



 n o d a l   p r i n t   o u t   f o r   t i m e  s t e p    4601                              ( at time 2.2997698E+00 )

 nodal point  x-disp     y-disp      z-disp      x-vel       y-vel       z-vel      x-accl      y-accl      z-accl      x-coor      y-coor      z-coor
    22626 -7.63026E-04 6.56142E-02-1.28510E-01-6.45818E-04 5.01845E-02-9.87432E-02-1.47639E-03 1.02245E-02-2.00906E-02 4.65861E+00-2.81252E+01-4.51102E+01



 n o d a l   p r i n t   o u t   f o r   t i m e  s t e p    4601                              ( at time 2.2997698E+00 )

 nodal point  x-rot      y-rot       z-rot       x-rot vel   y-rot vel   z-rot vel   x-rot acc   y-rot acc   z-rot acc
    22626 -2.29837E-04-2.51725E-06-8.67712E-07-1.61487E-04 8.79466E-07-9.95950E-07-2.32207E-05 2.48797E-05-2.59118E-09



 n o d a l   p r i n t   o u t   f o r   t i m e  s t e p    4801                              ( at time 2.3997598E+00 )

 nodal point  x-disp     y-disp      z-disp      x-vel       y-vel       z-vel      x-accl      y-accl      z-accl      x-coor      y-coor      z-coor
    22626 -8.37557E-04 7.07389E-02-1.38609E-01-7.65521E-04 5.20273E-02-1.03264E-01-1.19715E-03 1.84306E-02-4.52158E-02 4.65854E+00-2.81201E+01-4.51203E+01



 n o d a l   p r i n t   o u t   f o r   t i m e  s t e p    4801                              ( at time 2.3997598E+00 )

 nodal point  x-rot      y-rot       z-rot       x-rot vel   y-rot vel   z-rot vel   x-rot acc   y-rot acc   z-rot acc
    22626 -2.45590E-04-2.50906E-06-5.97042E-07-1.55351E-04-7.96948E-08 4.17575E-06 6.13664E-05-9.59258E-06 5.17223E-05



 n o d a l   p r i n t   o u t   f o r   t i m e  s t e p    5001                              ( at time 2.4997498E+00 )

 nodal point  x-disp     y-disp      z-disp      x-vel       y-vel       z-vel      x-accl      y-accl      z-accl      x-coor      y-coor      z-coor
    22626 -9.18770E-04 7.60400E-02-1.49107E-01-9.25426E-04 5.34322E-02-1.05954E-01-1.59921E-03 1.40495E-02-2.68954E-02 4.65846E+00-2.81148E+01-4.51308E+01



 n o d a l   p r i n t   o u t   f o r   t i m e  s t e p    5001                              ( at time 2.4997498E+00 )

 nodal point  x-rot      y-rot       z-rot       x-rot vel   y-rot vel   z-rot vel   x-rot acc   y-rot acc   z-rot acc
    22626 -2.61161E-04-2.38764E-06-3.34191E-07-1.54780E-04 1.72685E-06 4.41732E-06 5.70681E-06 1.80672E-05 2.41591E-06



 n o d a l   p r i n t   o u t   f o r   t i m e  s t e p    5201                              ( at time 2.5997398E+00 )

 nodal point  x-disp     y-disp      z-disp      x-vel       y-vel       z-vel      x-accl      y-accl      z-accl      x-coor      y-coor      z-coor
    22626 -1.00946E-03 8.13920E-02-1.59710E-01-9.92345E-04 5.34935E-02-1.06028E-01-6.69255E-04 6.13878E-04-7.44314E-04 4.65837E+00-2.81094E+01-4.51414E+01



 n o d a l   p r i n t   o u t   f o r   t i m e  s t e p    5201                              ( at time 2.5997398E+00 )

 nodal point  x-rot      y-rot       z-rot       x-rot vel   y-rot vel   z-rot vel   x-rot acc   y-rot acc   z-rot acc
    22626 -2.76669E-04-2.05986E-06 5.69385E-08-1.51600E-04 5.16189E-06 4.98496E-06 3.18086E-05 3.43539E-05 5.67696E-06



 n o d a l   p r i n t   o u t   f o r   t i m e  s t e p    5401                              ( at time 2.6997298E+00 )

 nodal point  x-disp     y-disp      z-disp      x-vel       y-vel       z-vel      x-accl      y-accl      z-accl      x-coor      y-coor      z-coor
    22626 -1.10766E-03 8.67280E-02-1.70315E-01-8.14279E-04 5.35592E-02-1.06231E-01 1.78084E-03 6.56610E-04-2.03205E-03 4.65827E+00-2.81041E+01-4.51520E+01



 n o d a l   p r i n t   o u t   f o r   t i m e  s t e p    5401                              ( at time 2.6997298E+00 )

 nodal point  x-rot      y-rot       z-rot       x-rot vel   y-rot vel   z-rot vel   x-rot acc   y-rot acc   z-rot acc
    22626 -2.92383E-04-1.62122E-06 5.82262E-07-1.63098E-04 5.38375E-06 3.61063E-06-1.14994E-04 2.21876E-06-1.37447E-05



 n o d a l   p r i n t   o u t   f o r   t i m e  s t e p    5601                              ( at time 2.7997198E+00 )

 nodal point  x-disp     y-disp      z-disp      x-vel       y-vel       z-vel      x-accl      y-accl      z-accl      x-coor      y-coor      z-coor
    22626 -1.19471E-03 9.21212E-02-1.80983E-01-8.85125E-04 5.42790E-02-1.07484E-01-7.08536E-04 7.19825E-03-1.25293E-02 4.65818E+00-2.80987E+01-4.51627E+01



 n o d a l   p r i n t   o u t   f o r   t i m e  s t e p    5601                              ( at time 2.7997198E+00 )

 nodal point  x-rot      y-rot       z-rot       x-rot vel   y-rot vel   z-rot vel   x-rot acc   y-rot acc   z-rot acc
    22626 -3.07872E-04-1.10900E-06 9.97627E-07-1.44748E-04 3.09855E-06 4.37855E-06 1.83518E-04-2.28542E-05 7.67998E-06



 n o d a l   p r i n t   o u t   f o r   t i m e  s t e p    5801                              ( at time 2.8997098E+00 )

 nodal point  x-disp     y-disp      z-disp      x-vel       y-vel       z-vel      x-accl      y-accl      z-accl      x-coor      y-coor      z-coor
    22626 -1.27585E-03 9.75419E-02-1.91832E-01-7.41173E-04 5.41981E-02-1.09469E-01 1.43967E-03-8.09029E-04-1.98559E-02 4.65810E+00-2.80933E+01-4.51736E+01



 n o d a l   p r i n t   o u t   f o r   t i m e  s t e p    5801                              ( at time 2.8997098E+00 )

 nodal point  x-rot      y-rot       z-rot       x-rot vel   y-rot vel   z-rot vel   x-rot acc   y-rot acc   z-rot acc
    22626 -3.21821E-04-9.14100E-07 1.29629E-06-1.39959E-04 5.61608E-07 3.69931E-06 4.78930E-05-2.53720E-05-6.79309E-06



 n o d a l   p r i n t   o u t   f o r   t i m e  s t e p    6001                              ( at time 2.9996998E+00 )

 nodal point  x-disp     y-disp      z-disp      x-vel       y-vel       z-vel      x-accl      y-accl      z-accl      x-coor      y-coor      z-coor
    22626 -1.35949E-03 1.02933E-01-2.02796E-01-7.27863E-04 5.35785E-02-1.09337E-01 1.33112E-04-6.19584E-03 1.32239E-03 4.65802E+00-2.80879E+01-4.51845E+01



 n o d a l   p r i n t   o u t   f o r   t i m e  s t e p    6001                              ( at time 2.9996998E+00 )

 nodal point  x-rot      y-rot       z-rot       x-rot vel   y-rot vel   z-rot vel   x-rot acc   y-rot acc   z-rot acc
    22626 -3.36598E-04-8.74798E-07 1.48057E-06-1.50241E-04 4.23132E-07 2.53249E-06-1.02828E-04-1.38490E-06-1.16693E-05



 n o d a l   p r i n t   o u t   f o r   t i m e  s t e p    6201                              ( at time 3.0996898E+00 )

 nodal point  x-disp     y-disp      z-disp      x-vel       y-vel       z-vel      x-accl      y-accl      z-accl      x-coor      y-coor      z-coor
    22626 -1.42838E-03 1.08281E-01-2.13684E-01-7.42775E-04 5.35993E-02-1.08916E-01-1.49138E-04 2.08004E-04 4.21388E-03 4.65795E+00-2.80825E+01-4.51954E+01



 n o d a l   p r i n t   o u t   f o r   t i m e  s t e p    6201                              ( at time 3.0996898E+00 )

 nodal point  x-rot      y-rot       z-rot       x-rot vel   y-rot vel   z-rot vel   x-rot acc   y-rot acc   z-rot acc
    22626 -3.51635E-04-8.01212E-07 1.73893E-06-1.49285E-04 1.16203E-07 4.47415E-06 9.56216E-06-3.06960E-06 1.94186E-05



 n o d a l   p r i n t   o u t   f o r   t i m e  s t e p    6401                              ( at time 3.1996798E+00 )

 nodal point  x-disp     y-disp      z-disp      x-vel       y-vel       z-vel      x-accl      y-accl      z-accl      x-coor      y-coor      z-coor
    22626 -1.49408E-03 1.13659E-01-2.24665E-01-6.52092E-04 5.40031E-02-1.10851E-01 9.06919E-04 4.03835E-03-1.93576E-02 4.65788E+00-2.80772E+01-4.52064E+01



 n o d a l   p r i n t   o u t   f o r   t i m e  s t e p    6401                              ( at time 3.1996798E+00 )

 nodal point  x-rot      y-rot       z-rot       x-rot vel   y-rot vel   z-rot vel   x-rot acc   y-rot acc   z-rot acc
    22626 -3.66476E-04-6.75005E-07 1.88713E-06-1.41976E-04 1.48882E-06 1.20673E-06 7.30961E-05 1.37276E-05-3.26774E-05



 n o d a l   p r i n t   o u t   f o r   t i m e  s t e p    6601                              ( at time 3.2996698E+00 )

 nodal point  x-disp     y-disp      z-disp      x-vel       y-vel       z-vel      x-accl      y-accl      z-accl      x-coor      y-coor      z-coor
    22626 -1.57232E-03 1.19081E-01-2.35856E-01-8.22970E-04 5.42949E-02-1.12741E-01-1.70895E-03 2.91817E-03-1.89011E-02 4.65780E+00-2.80717E+01-4.52176E+01



 n o d a l   p r i n t   o u t   f o r   t i m e  s t e p    6601                              ( at time 3.2996698E+00 )

 nodal point  x-rot      y-rot       z-rot       x-rot vel   y-rot vel   z-rot vel   x-rot acc   y-rot acc   z-rot acc
    22626 -3.80620E-04-5.02726E-07 2.14637E-06-1.38079E-04 2.39935E-06 2.71626E-06 3.89696E-05 9.10613E-06 1.50968E-05



 n o d a l   p r i n t   o u t   f o r   t i m e  s t e p    6801                              ( at time 3.3996598E+00 )

 nodal point  x-disp     y-disp      z-disp      x-vel       y-vel       z-vel      x-accl      y-accl      z-accl      x-coor      y-coor      z-coor
    22626 -1.65980E-03 1.24509E-01-2.47150E-01-9.68303E-04 5.40543E-02-1.13029E-01-1.45348E-03-2.40659E-03-2.87472E-03 4.65772E+00-2.80663E+01-4.52289E+01



 n o d a l   p r i n t   o u t   f o r   t i m e  s t e p    6801                              ( at time 3.3996598E+00 )

 nodal point  x-rot      y-rot       z-rot       x-rot vel   y-rot vel   z-rot vel   x-rot acc   y-rot acc   z-rot acc
    22626 -3.94344E-04-3.55123E-07 2.49755E-06-1.36790E-04 3.62925E-06 6.21566E-06 1.28927E-05 1.23003E-05 3.49975E-05



 n o d a l   p r i n t   o u t   f o r   t i m e  s t e p    7001                              ( at time 3.4996498E+00 )

 nodal point  x-disp     y-disp      z-disp      x-vel       y-vel       z-vel      x-accl      y-accl      z-accl      x-coor      y-coor      z-coor
    22626 -1.75313E-03 1.29862E-01-2.58388E-01-9.60845E-04 5.30951E-02-1.11674E-01 7.45873E-05-9.59296E-03 1.35519E-02 4.65762E+00-2.80610E+01-4.52401E+01



 n o d a l   p r i n t   o u t   f o r   t i m e  s t e p    7001                              ( at time 3.4996498E+00 )

 nodal point  x-rot      y-rot       z-rot       x-rot vel   y-rot vel   z-rot vel   x-rot acc   y-rot acc   z-rot acc
    22626 -4.08264E-04-1.70319E-08 2.94713E-06-1.37061E-04 4.52538E-06 4.18103E-06-2.70897E-06 8.96215E-06-2.03484E-05



 n o d a l   p r i n t   o u t   f o r   t i m e  s t e p    7201                              ( at time 3.5996397E+00 )

 nodal point  x-disp     y-disp      z-disp      x-vel       y-vel       z-vel      x-accl      y-accl      z-accl      x-coor      y-coor      z-coor
    22626 -1.84538E-03 1.35127E-01-2.69483E-01-8.09596E-04 5.20783E-02-1.10689E-01 1.51265E-03-1.01685E-02 9.84798E-03 4.65753E+00-2.80557E+01-4.52512E+01



 n o d a l   p r i n t   o u t   f o r   t i m e  s t e p    7201                              ( at time 3.5996397E+00 )

 nodal point  x-rot      y-rot       z-rot       x-rot vel   y-rot vel   z-rot vel   x-rot acc   y-rot acc   z-rot acc
    22626 -4.21654E-04 6.16606E-07 3.50286E-06-1.34819E-04 6.09899E-06 3.42521E-06 2.24209E-05 1.57377E-05-7.55901E-06



 n o d a l   p r i n t   o u t   f o r   t i m e  s t e p    7401                              ( at time 3.6996297E+00 )

 nodal point  x-disp     y-disp      z-disp      x-vel       y-vel       z-vel      x-accl      y-accl      z-accl      x-coor      y-coor      z-coor
    22626 -1.93004E-03 1.40291E-01-2.80551E-01-8.11574E-04 5.12287E-02-1.10764E-01-1.97885E-05-8.49718E-03-7.45579E-04 4.65744E+00-2.80505E+01-4.52623E+01



 n o d a l   p r i n t   o u t   f o r   t i m e  s t e p    7401                              ( at time 3.6996297E+00 )

 nodal point  x-rot      y-rot       z-rot       x-rot vel   y-rot vel   z-rot vel   x-rot acc   y-rot acc   z-rot acc
    22626 -4.34731E-04 1.10386E-06 3.91269E-06-1.27259E-04 2.82241E-06 3.54046E-06 7.56095E-05-3.27690E-05 1.15261E-06



 n o d a l   p r i n t   o u t   f o r   t i m e  s t e p    7601                              ( at time 3.7996197E+00 )

 nodal point  x-disp     y-disp      z-disp      x-vel       y-vel       z-vel      x-accl      y-accl      z-accl      x-coor      y-coor      z-coor
    22626 -2.00998E-03 1.45355E-01-2.91595E-01-7.56203E-04 5.00254E-02-1.09979E-01 5.53766E-04-1.20345E-02 7.84461E-03 4.65736E+00-2.80455E+01-4.52733E+01



 n o d a l   p r i n t   o u t   f o r   t i m e  s t e p    7601                              ( at time 3.7996197E+00 )

 nodal point  x-rot      y-rot       z-rot       x-rot vel   y-rot vel   z-rot vel   x-rot acc   y-rot acc   z-rot acc
    22626 -4.47015E-04 1.22625E-06 4.23767E-06-1.25473E-04 8.55216E-08 2.57910E-06 1.78615E-05-2.73716E-05-9.61452E-06



 n o d a l   p r i n t   o u t   f o r   t i m e  s t e p    7801                              ( at time 3.8996097E+00 )

 nodal point  x-disp     y-disp      z-disp      x-vel       y-vel       z-vel      x-accl      y-accl      z-accl      x-coor      y-coor      z-coor
    22626 -2.07356E-03 1.50288E-01-3.02505E-01-5.47283E-04 4.86301E-02-1.08115E-01 2.08941E-03-1.39536E-02 1.86474E-02 4.65730E+00-2.80405E+01-4.52842E+01



 n o d a l   p r i n t   o u t   f o r   t i m e  s t e p    7801                              ( at time 3.8996097E+00 )

 nodal point  x-rot      y-rot       z-rot       x-rot vel   y-rot vel   z-rot vel   x-rot acc   y-rot acc   z-rot acc
    22626 -4.59566E-04 1.24583E-06 4.46777E-06-1.32768E-04 1.12369E-06 2.30456E-06-7.29549E-05 1.03827E-05-2.74567E-06



 n o d a l   p r i n t   o u t   f o r   t i m e  s t e p    8001                              ( at time 3.9995997E+00 )

 nodal point  x-disp     y-disp      z-disp      x-vel       y-vel       z-vel      x-accl      y-accl      z-accl      x-coor      y-coor      z-coor
    22626 -2.12107E-03 1.55100E-01-3.13194E-01-4.77619E-04 4.78280E-02-1.05808E-01 6.96713E-04-8.02259E-03 2.30645E-02 4.65725E+00-2.80357E+01-4.52949E+01



 n o d a l   p r i n t   o u t   f o r   t i m e  s t e p    8001                              ( at time 3.9995997E+00 )

 nodal point  x-rot      y-rot       z-rot       x-rot vel   y-rot vel   z-rot vel   x-rot acc   y-rot acc   z-rot acc
    22626 -4.72520E-04 1.20722E-06 4.45297E-06-1.25470E-04-1.31009E-06 1.04921E-07 7.29908E-05-2.43402E-05-2.19986E-05



 n o d a l   p r i n t   o u t   f o r   t i m e  s t e p    8201                              ( at time 4.0995897E+00 )

 nodal point  x-disp     y-disp      z-disp      x-vel       y-vel       z-vel      x-accl      y-accl      z-accl      x-coor      y-coor      z-coor
    22626 -2.17250E-03 1.59870E-01-3.23732E-01-4.02910E-04 4.77181E-02-1.05160E-01 7.47162E-04-1.09847E-03 6.48190E-03 4.65720E+00-2.80310E+01-4.53055E+01



 n o d a l   p r i n t   o u t   f o r   t i m e  s t e p    8201                              ( at time 4.0995897E+00 )

 nodal point  x-rot      y-rot       z-rot       x-rot vel   y-rot vel   z-rot vel   x-rot acc   y-rot acc   z-rot acc
    22626 -4.84291E-04 1.10636E-06 4.40530E-06-1.18709E-04-3.80790E-07 8.26178E-07 6.76105E-05 9.29388E-06 7.21329E-06



 n o d a l   p r i n t   o u t   f o r   t i m e  s t e p    8401                              ( at time 4.1995797E+00 )

 nodal point  x-disp     y-disp      z-disp      x-vel       y-vel       z-vel      x-accl      y-accl      z-accl      x-coor      y-coor      z-coor
    22626 -2.20743E-03 1.64683E-01-3.34215E-01-3.01813E-04 4.87882E-02-1.04364E-01 1.01108E-03 1.07022E-02 7.96361E-03 4.65717E+00-2.80261E+01-4.53159E+01



 n o d a l   p r i n t   o u t   f o r   t i m e  s t e p    8401                              ( at time 4.1995797E+00 )

 nodal point  x-rot      y-rot       z-rot       x-rot vel   y-rot vel   z-rot vel   x-rot acc   y-rot acc   z-rot acc
    22626 -4.96215E-04 1.21333E-06 4.66574E-06-1.24707E-04 3.68991E-06 5.44823E-06-5.99796E-05 4.07111E-05 4.62252E-05



 n o d a l   p r i n t   o u t   f o r   t i m e  s t e p    8601                              ( at time 4.2995697E+00 )

 nodal point  x-disp     y-disp      z-disp      x-vel       y-vel       z-vel      x-accl      y-accl      z-accl      x-coor      y-coor      z-coor
    22626 -2.23929E-03 1.69611E-01-3.44583E-01-3.85419E-04 4.98131E-02-1.02803E-01-8.36149E-04 1.02499E-02 1.56085E-02 4.65714E+00-2.80212E+01-4.53263E+01



 n o d a l   p r i n t   o u t   f o r   t i m e  s t e p    8601                              ( at time 4.2995697E+00 )

 nodal point  x-rot      y-rot       z-rot       x-rot vel   y-rot vel   z-rot vel   x-rot acc   y-rot acc   z-rot acc
    22626 -5.08249E-04 1.51083E-06 5.23067E-06-1.21034E-04 3.74290E-06 5.41077E-06 3.67301E-05 5.29971E-07-3.74577E-07



 n o d a l   p r i n t   o u t   f o r   t i m e  s t e p    8801                              ( at time 4.3995597E+00 )

 nodal point  x-disp     y-disp      z-disp      x-vel       y-vel       z-vel      x-accl      y-accl      z-accl      x-coor      y-coor      z-coor
    22626 -2.28809E-03 1.74626E-01-3.54736E-01-3.54650E-04 5.06881E-02-1.00313E-01 3.07726E-04 8.75103E-03 2.49097E-02 4.65709E+00-2.80162E+01-4.53365E+01



 n o d a l   p r i n t   o u t   f o r   t i m e  s t e p    8801                              ( at time 4.3995597E+00 )

 nodal point  x-rot      y-rot       z-rot       x-rot vel   y-rot vel   z-rot vel   x-rot acc   y-rot acc   z-rot acc
    22626 -5.20414E-04 1.91631E-06 5.55794E-06-1.28096E-04 5.60724E-06 5.76664E-06-7.06247E-05 1.86453E-05 3.55900E-06



 n o d a l   p r i n t   o u t   f o r   t i m e  s t e p    9001                              ( at time 4.4995497E+00 )

 nodal point  x-disp     y-disp      z-disp      x-vel       y-vel       z-vel      x-accl      y-accl      z-accl      x-coor      y-coor      z-coor
    22626 -2.29979E-03 1.79827E-01-3.64673E-01 1.65067E-04 5.35453E-02-9.86896E-02 5.19766E-03 2.85742E-02 1.62318E-02 4.65708E+00-2.80110E+01-4.53464E+01



 n o d a l   p r i n t   o u t   f o r   t i m e  s t e p    9001                              ( at time 4.4995497E+00 )

 nodal point  x-rot      y-rot       z-rot       x-rot vel   y-rot vel   z-rot vel   x-rot acc   y-rot acc   z-rot acc
    22626 -5.34573E-04 2.84145E-06 6.70964E-06-1.53481E-04 1.02435E-05 1.50445E-05-2.53881E-04 4.63674E-05 9.27871E-05



 n o d a l   p r i n t   o u t   f o r   t i m e  s t e p    9201                              ( at time 4.5995397E+00 )

 nodal point  x-disp     y-disp      z-disp      x-vel       y-vel       z-vel      x-accl      y-accl      z-accl      x-coor      y-coor      z-coor
    22626 -2.26350E-03 1.85370E-01-3.74500E-01 3.99506E-04 5.75051E-02-9.77170E-02 2.34463E-03 3.96019E-02 9.72727E-03 4.65711E+00-2.80055E+01-4.53562E+01



 n o d a l   p r i n t   o u t   f o r   t i m e  s t e p    9201                              ( at time 4.5995397E+00 )

 nodal point  x-rot      y-rot       z-rot       x-rot vel   y-rot vel   z-rot vel   x-rot acc   y-rot acc   z-rot acc
    22626 -5.50942E-04 3.91751E-06 8.28126E-06-1.71237E-04 7.06373E-06 1.41334E-05-1.77578E-04-3.18012E-05-9.11098E-06



 n o d a l   p r i n t   o u t   f o r   t i m e  s t e p    9401                              ( at time 4.6995297E+00 )

 nodal point  x-disp     y-disp      z-disp      x-vel       y-vel       z-vel      x-accl      y-accl      z-accl      x-coor      y-coor      z-coor
    22626 -2.23967E-03 1.91308E-01-3.84204E-01 1.36206E-04 6.18801E-02-9.61032E-02-2.63327E-03 4.37547E-02 1.61388E-02 4.65714E+00-2.79995E+01-4.53659E+01



 n o d a l   p r i n t   o u t   f o r   t i m e  s t e p    9401                              ( at time 4.6995297E+00 )

 nodal point  x-rot      y-rot       z-rot       x-rot vel   y-rot vel   z-rot vel   x-rot acc   y-rot acc   z-rot acc
    22626 -5.69926E-04 4.37132E-06 9.20229E-06-2.12524E-04 2.62696E-06 6.22426E-06-4.12905E-04-4.43722E-05-7.90998E-05



 n o d a l   p r i n t   o u t   f o r   t i m e  s t e p    9601                              ( at time 4.7995197E+00 )

 nodal point  x-disp     y-disp      z-disp      x-vel       y-vel       z-vel      x-accl      y-accl      z-accl      x-coor      y-coor      z-coor
    22626 -2.20899E-03 1.97752E-01-3.93687E-01 6.05322E-04 6.71510E-02-9.31224E-02 4.69164E-03 5.27144E-02 2.98115E-02 4.65717E+00-2.79931E+01-4.53754E+01



 n o d a l   p r i n t   o u t   f o r   t i m e  s t e p    9601                              ( at time 4.7995197E+00 )

 nodal point  x-rot      y-rot       z-rot       x-rot vel   y-rot vel   z-rot vel   x-rot acc   y-rot acc   z-rot acc
    22626 -5.94006E-04 4.66025E-06 9.74980E-06-2.71727E-04 5.80600E-06 6.35874E-06-5.92093E-04 3.17937E-05 1.34490E-06



 n o d a l   p r i n t   o u t   f o r   t i m e  s t e p    9801                              ( at time 4.8995097E+00 )

 nodal point  x-disp     y-disp      z-disp      x-vel       y-vel       z-vel      x-accl      y-accl      z-accl      x-coor      y-coor      z-coor
    22626 -2.15074E-03 2.04821E-01-4.02841E-01 4.98783E-04 7.44045E-02-9.05015E-02-1.06550E-03 7.25426E-02 2.62121E-02 4.65722E+00-2.79860E+01-4.53846E+01



 n o d a l   p r i n t   o u t   f o r   t i m e  s t e p    9801                              ( at time 4.8995097E+00 )

 nodal point  x-rot      y-rot       z-rot       x-rot vel   y-rot vel   z-rot vel   x-rot acc   y-rot acc   z-rot acc
    22626 -6.23702E-04 4.91621E-06 9.95696E-06-3.23568E-04 4.98103E-07 6.63538E-07-5.18464E-04-5.30844E-05-5.69578E-05



 n o d a l   p r i n t   o u t   f o r   t i m e  s t e p   10001                              ( at time 4.9994997E+00 )

 nodal point  x-disp     y-disp      z-disp      x-vel       y-vel       z-vel      x-accl      y-accl      z-accl      x-coor      y-coor      z-coor
    22626 -2.10483E-03 2.12676E-01-4.11849E-01 1.81569E-04 8.28970E-02-8.99888E-02-3.17244E-03 8.49332E-02 5.12687E-03 4.65727E+00-2.79782E+01-4.53936E+01



 n o d a l   p r i n t   o u t   f o r   t i m e  s t e p   10001                              ( at time 4.9994997E+00 )

 nodal point  x-rot      y-rot       z-rot       x-rot vel   y-rot vel   z-rot vel   x-rot acc   y-rot acc   z-rot acc
    22626 -6.58760E-04 4.70297E-06 9.69576E-06-3.82657E-04-5.20807E-06-9.45576E-06-5.90941E-04-5.70672E-05-1.01203E-04



 n o d a l   p r i n t   o u t   f o r   t i m e  s t e p   10202                              ( at time 5.0999896E+00 )

 nodal point  x-disp     y-disp      z-disp      x-vel       y-vel       z-vel      x-accl      y-accl      z-accl      x-coor      y-coor      z-coor
    22626 -2.11959E-03 2.21472E-01-4.20827E-01-4.79141E-04 9.19622E-02-8.84675E-02-6.57491E-03 9.02095E-02 1.51387E-02 4.65726E+00-2.79694E+01-4.54025E+01



 n o d a l   p r i n t   o u t   f o r   t i m e  s t e p   10202                              ( at time 5.0999896E+00 )

 nodal point  x-rot      y-rot       z-rot       x-rot vel   y-rot vel   z-rot vel   x-rot acc   y-rot acc   z-rot acc
    22626 -7.00738E-04 3.89466E-06 7.99571E-06-4.59441E-04-6.88767E-06-2.04496E-05-7.64103E-04-1.67141E-05-1.09403E-04



 n o d a l   p r i n t   o u t   f o r   t i m e  s t e p   10402                              ( at time 5.1999796E+00 )

 nodal point  x-disp     y-disp      z-disp      x-vel       y-vel       z-vel      x-accl      y-accl      z-accl      x-coor      y-coor      z-coor
    22626 -2.16407E-03 2.31189E-01-4.29546E-01-1.82453E-05 1.02546E-01-8.61189E-02 4.60940E-03 1.05849E-01 2.34890E-02 4.65721E+00-2.79596E+01-4.54113E+01



 n o d a l   p r i n t   o u t   f o r   t i m e  s t e p   10402                              ( at time 5.1999796E+00 )

 nodal point  x-rot      y-rot       z-rot       x-rot vel   y-rot vel   z-rot vel   x-rot acc   y-rot acc   z-rot acc
    22626 -7.51013E-04 3.39919E-06 6.75199E-06-5.54665E-04 3.69773E-07-9.13582E-06-9.52328E-04 7.25814E-05 1.13149E-04



 n o d a l   p r i n t   o u t   f o r   t i m e  s t e p   10602                              ( at time 5.2999696E+00 )

 nodal point  x-disp     y-disp      z-disp      x-vel       y-vel       z-vel      x-accl      y-accl      z-accl      x-coor      y-coor      z-coor
    22626 -2.15925E-03 2.42026E-01-4.38043E-01-3.05240E-04 1.14255E-01-8.44353E-02-2.87023E-03 1.17097E-01 1.68372E-02 4.65722E+00-2.79488E+01-4.54198E+01



 n o d a l   p r i n t   o u t   f o r   t i m e  s t e p   10602                              ( at time 5.2999696E+00 )

 nodal point  x-rot      y-rot       z-rot       x-rot vel   y-rot vel   z-rot vel   x-rot acc   y-rot acc   z-rot acc
    22626 -8.10521E-04 3.04422E-06 5.49216E-06-6.42570E-04-7.39001E-06-1.82381E-05-8.79146E-04-7.76057E-05-9.10323E-05



 n o d a l   p r i n t   o u t   f o r   t i m e  s t e p   10802                              ( at time 5.3999596E+00 )

 nodal point  x-disp     y-disp      z-disp      x-vel       y-vel       z-vel      x-accl      y-accl      z-accl      x-coor      y-coor      z-coor
    22626 -2.23101E-03 2.54099E-01-4.46421E-01-9.96118E-04 1.27375E-01-8.34436E-02-6.90949E-03 1.31213E-01 9.91825E-03 4.65714E+00-2.79367E+01-4.54281E+01



 n o d a l   p r i n t   o u t   f o r   t i m e  s t e p   10802                              ( at time 5.3999596E+00 )

 nodal point  x-rot      y-rot       z-rot       x-rot vel   y-rot vel   z-rot vel   x-rot acc   y-rot acc   z-rot acc
    22626 -8.79089E-04 2.21810E-06 3.17257E-06-7.31767E-04-1.12357E-05-2.14214E-05-8.92060E-04-3.84607E-05-3.18355E-05



 n o d a l   p r i n t   o u t   f o r   t i m e  s t e p   11002                              ( at time 5.4999496E+00 )

 nodal point  x-disp     y-disp      z-disp      x-vel       y-vel       z-vel      x-accl      y-accl      z-accl      x-coor      y-coor      z-coor
    22626 -2.29931E-03 2.67516E-01-4.54712E-01-9.80151E-05 1.41443E-01-8.23608E-02 8.98194E-03 1.40698E-01 1.08287E-02 4.65708E+00-2.79233E+01-4.54364E+01



 n o d a l   p r i n t   o u t   f o r   t i m e  s t e p   11002                              ( at time 5.4999496E+00 )

 nodal point  x-rot      y-rot       z-rot       x-rot vel   y-rot vel   z-rot vel   x-rot acc   y-rot acc   z-rot acc
    22626 -9.57485E-04 1.36392E-06 1.18437E-06-8.39198E-04-7.15544E-06-1.98032E-05-1.07442E-03 4.08067E-05 1.61831E-05



 n o d a l   p r i n t   o u t   f o r   t i m e  s t e p   11202                              ( at time 5.5999396E+00 )

 nodal point  x-disp     y-disp      z-disp      x-vel       y-vel       z-vel      x-accl      y-accl      z-accl      x-coor      y-coor      z-coor
    22626 -2.29768E-03 2.82414E-01-4.62850E-01-1.46973E-04 1.56812E-01-8.00897E-02-4.89626E-04 1.53704E-01 2.27132E-02 4.65708E+00-2.79084E+01-4.54446E+01



 n o d a l   p r i n t   o u t   f o r   t i m e  s t e p   11202                              ( at time 5.5999396E+00 )

 nodal point  x-rot      y-rot       z-rot       x-rot vel   y-rot vel   z-rot vel   x-rot acc   y-rot acc   z-rot acc
    22626 -1.04759E-03 8.67509E-07-7.27726E-07-9.61678E-04-4.59136E-06-1.67716E-05-1.22492E-03 2.56434E-05 3.03189E-05



 n o d a l   p r i n t   o u t   f o r   t i m e  s t e p   11402                              ( at time 5.6999296E+00 )

 nodal point  x-disp     y-disp      z-disp      x-vel       y-vel       z-vel      x-accl      y-accl      z-accl      x-coor      y-coor      z-coor
    22626 -2.31883E-03 2.98861E-01-4.70729E-01-2.44677E-04 1.72201E-01-7.74339E-02-9.77133E-04 1.53906E-01 2.65606E-02 4.65706E+00-2.78920E+01-4.54524E+01



 n o d a l   p r i n t   o u t   f o r   t i m e  s t e p   11402                              ( at time 5.6999296E+00 )

 nodal point  x-rot      y-rot       z-rot       x-rot vel   y-rot vel   z-rot vel   x-rot acc   y-rot acc   z-rot acc
    22626 -1.14965E-03-3.09295E-07-2.97650E-06-1.07249E-03-1.65402E-05-2.82535E-05-1.10823E-03-1.19500E-04-1.14830E-04



 n o d a l   p r i n t   o u t   f o r   t i m e  s t e p   11602                              ( at time 5.7999195E+00 )

 nodal point  x-disp     y-disp      z-disp      x-vel       y-vel       z-vel      x-accl      y-accl      z-accl      x-coor      y-coor      z-coor
    22626 -2.33687E-03 3.16919E-01-4.78394E-01-8.45563E-05 1.89426E-01-7.59655E-02 1.60137E-03 1.72273E-01 1.46856E-02 4.65704E+00-2.78739E+01-4.54601E+01



 n o d a l   p r i n t   o u t   f o r   t i m e  s t e p   11602                              ( at time 5.7999195E+00 )

 nodal point  x-rot      y-rot       z-rot       x-rot vel   y-rot vel   z-rot vel   x-rot acc   y-rot acc   z-rot acc
    22626 -1.26267E-03-1.63643E-06-5.89972E-06-1.18858E-03-6.60092E-06-2.78551E-05-1.16100E-03 9.94029E-05 3.98448E-06



 n o d a l   p r i n t   o u t   f o r   t i m e  s t e p   11802                              ( at time 5.8999095E+00 )

 nodal point  x-disp     y-disp      z-disp      x-vel       y-vel       z-vel      x-accl      y-accl      z-accl      x-coor      y-coor      z-coor
    22626 -2.33556E-03 3.36782E-01-4.85964E-01 2.45534E-04 2.07976E-01-7.48230E-02 3.30124E-03 1.85514E-01 1.14259E-02 4.65704E+00-2.78540E+01-4.54677E+01



 n o d a l   p r i n t   o u t   f o r   t i m e  s t e p   11802                              ( at time 5.8999095E+00 )

 nodal point  x-rot      y-rot       z-rot       x-rot vel   y-rot vel   z-rot vel   x-rot acc   y-rot acc   z-rot acc
    22626 -1.38898E-03-2.24018E-06-8.74580E-06-1.33711E-03-1.07204E-05-2.76128E-05-1.48544E-03-4.11989E-05 2.42347E-06



 n o d a l   p r i n t   o u t   f o r   t i m e  s t e p   12002                              ( at time 5.9998995E+00 )

 nodal point  x-disp     y-disp      z-disp      x-vel       y-vel       z-vel      x-accl      y-accl      z-accl      x-coor      y-coor      z-coor
    22626 -2.32549E-03 3.58506E-01-4.93382E-01-8.13885E-05 2.26732E-01-7.35765E-02-3.26956E-03 1.87576E-01 1.24670E-02 4.65705E+00-2.78323E+01-4.54751E+01



 n o d a l   p r i n t   o u t   f o r   t i m e  s t e p   12002                              ( at time 5.9998995E+00 )

 nodal point  x-rot      y-rot       z-rot       x-rot vel   y-rot vel   z-rot vel   x-rot acc   y-rot acc   z-rot acc
    22626 -1.53000E-03-3.57993E-06-1.15964E-05-1.48038E-03-1.31060E-05-2.52990E-05-1.43287E-03-2.38580E-05 2.31400E-05



 n o d a l   p r i n t   o u t   f o r   t i m e  s t e p   12202                              ( at time 6.0998895E+00 )

 nodal point  x-disp     y-disp      z-disp      x-vel       y-vel       z-vel      x-accl      y-accl      z-accl      x-coor      y-coor      z-coor
    22626 -2.31416E-03 3.82190E-01-5.00685E-01 5.86489E-04 2.46761E-01-7.22583E-02 6.67942E-03 2.00310E-01 1.31825E-02 4.65706E+00-2.78086E+01-4.54824E+01



 n o d a l   p r i n t   o u t   f o r   t i m e  s t e p   12202                              ( at time 6.0998895E+00 )

 nodal point  x-rot      y-rot       z-rot       x-rot vel   y-rot vel   z-rot vel   x-rot acc   y-rot acc   z-rot acc
    22626 -1.68479E-03-3.97064E-06-1.39169E-05-1.62329E-03 2.25232E-06-2.14994E-05-1.42921E-03 1.53598E-04 3.80000E-05



 n o d a l   p r i n t   o u t   f o r   t i m e  s t e p   12402                              ( at time 6.1998795E+00 )

 nodal point  x-disp     y-disp      z-disp      x-vel       y-vel       z-vel      x-accl      y-accl      z-accl      x-coor      y-coor      z-coor
    22626 -2.25670E-03 4.07946E-01-5.07837E-01 4.71678E-04 2.68451E-01-7.12473E-02-1.14822E-03 2.16929E-01 1.01111E-02 4.65712E+00-2.77829E+01-4.54896E+01



 n o d a l   p r i n t   o u t   f o r   t i m e  s t e p   12402                              ( at time 6.1998795E+00 )

 nodal point  x-rot      y-rot       z-rot       x-rot vel   y-rot vel   z-rot vel   x-rot acc   y-rot acc   z-rot acc
    22626 -1.85459E-03-3.39133E-06-1.52026E-05-1.78258E-03 4.03461E-06-1.51022E-05-1.59313E-03 1.78247E-05 6.39784E-05



 n o d a l   p r i n t   o u t   f o r   t i m e  s t e p   12602                              ( at time 6.2998695E+00 )

 nodal point  x-disp     y-disp      z-disp      x-vel       y-vel       z-vel      x-accl      y-accl      z-accl      x-coor      y-coor      z-coor
    22626 -2.19856E-03 4.35921E-01-5.14947E-01 5.62301E-04 2.91019E-01-7.07561E-02 9.06317E-04 2.25699E-01 4.91319E-03 4.65718E+00-2.77549E+01-4.54967E+01



 n o d a l   p r i n t   o u t   f o r   t i m e  s t e p   12602                              ( at time 6.2998695E+00 )

 nodal point  x-rot      y-rot       z-rot       x-rot vel   y-rot vel   z-rot vel   x-rot acc   y-rot acc   z-rot acc
    22626 -2.04031E-03-3.30308E-06-1.71110E-05-1.93114E-03-7.68363E-06-2.84584E-05-1.48573E-03-1.17194E-04-1.33575E-04



 n o d a l   p r i n t   o u t   f o r   t i m e  s t e p   12802                              ( at time 6.3998595E+00 )

 nodal point  x-disp     y-disp      z-disp      x-vel       y-vel       z-vel      x-accl      y-accl      z-accl      x-coor      y-coor      z-coor
    22626 -2.14045E-03 4.66147E-01-5.21971E-01 7.89625E-04 3.13610E-01-6.98102E-02 2.27347E-03 2.25935E-01 9.45977E-03 4.65723E+00-2.77247E+01-4.55037E+01



 n o d a l   p r i n t   o u t   f o r   t i m e  s t e p   12802                              ( at time 6.3998595E+00 )

 nodal point  x-rot      y-rot       z-rot       x-rot vel   y-rot vel   z-rot vel   x-rot acc   y-rot acc   z-rot acc
    22626 -2.24133E-03-3.28784E-06-1.90701E-05-2.09214E-03 5.07382E-06-1.73447E-05-1.61011E-03 1.27587E-04 1.11148E-04



 n o d a l   p r i n t   o u t   f o r   t i m e  s t e p   13002                              ( at time 6.4998495E+00 )

 nodal point  x-disp     y-disp      z-disp      x-vel       y-vel       z-vel      x-accl      y-accl      z-accl      x-coor      y-coor      z-coor
    22626 -2.01786E-03 4.98689E-01-5.28897E-01 1.72995E-03 3.37209E-01-6.82406E-02 9.40422E-03 2.36010E-01 1.56973E-02 4.65736E+00-2.76921E+01-4.55106E+01



 n o d a l   p r i n t   o u t   f o r   t i m e  s t e p   13002                              ( at time 6.4998495E+00 )

 nodal point  x-rot      y-rot       z-rot       x-rot vel   y-rot vel   z-rot vel   x-rot acc   y-rot acc   z-rot acc
    22626 -2.45972E-03-2.30927E-06-2.02582E-05-2.27429E-03 6.10741E-06-1.68095E-05-1.82167E-03 1.03370E-05 5.35243E-06



 n o d a l   p r i n t   o u t   f o r   t i m e  s t e p   13202                              ( at time 6.5998395E+00 )

 nodal point  x-disp     y-disp      z-disp      x-vel       y-vel       z-vel      x-accl      y-accl      z-accl      x-coor      y-coor      z-coor
    22626 -1.86262E-03 5.33642E-01-5.35562E-01 1.21799E-03 3.61740E-01-6.57044E-02-5.12013E-03 2.45337E-01 2.53651E-02 4.65751E+00-2.76572E+01-4.55173E+01



 n o d a l   p r i n t   o u t   f o r   t i m e  s t e p   13202                              ( at time 6.5998395E+00 )

 nodal point  x-rot      y-rot       z-rot       x-rot vel   y-rot vel   z-rot vel   x-rot acc   y-rot acc   z-rot acc
    22626 -2.69549E-03-1.59977E-06-2.24417E-05-2.44441E-03 3.49978E-07-3.19310E-05-1.70136E-03-5.75799E-05-1.51230E-04



 n o d a l   p r i n t   o u t   f o r   t i m e  s t e p   13402                              ( at time 6.6998295E+00 )

 nodal point  x-disp     y-disp      z-disp      x-vel       y-vel       z-vel      x-accl      y-accl      z-accl      x-coor      y-coor      z-coor
    22626 -1.76609E-03 5.71059E-01-5.42096E-01 8.19112E-04 3.86227E-01-6.51555E-02-3.98917E-03 2.44893E-01 5.48932E-03 4.65761E+00-2.76198E+01-4.55238E+01



 n o d a l   p r i n t   o u t   f o r   t i m e  s t e p   13402                              ( at time 6.6998295E+00 )

 nodal point  x-rot      y-rot       z-rot       x-rot vel   y-rot vel   z-rot vel   x-rot acc   y-rot acc   z-rot acc
    22626 -2.94805E-03-2.01170E-06-2.55793E-05-2.61074E-03-3.68644E-06-3.39675E-05-1.66350E-03-4.03682E-05-2.03671E-05



 n o d a l   p r i n t   o u t   f o r   t i m e  s t e p   13602                              ( at time 6.7998195E+00 )

 nodal point  x-disp     y-disp      z-disp      x-vel       y-vel       z-vel      x-accl      y-accl      z-accl      x-coor      y-coor      z-coor
    22626 -1.65135E-03 6.10980E-01-5.48551E-01 1.81919E-03 4.12039E-01-6.40277E-02 1.00018E-02 2.58143E-01 1.12793E-02 4.65772E+00-2.75798E+01-4.55303E+01



 n o d a l   p r i n t   o u t   f o r   t i m e  s t e p   13602                              ( at time 6.7998195E+00 )

 nodal point  x-rot      y-rot       z-rot       x-rot vel   y-rot vel   z-rot vel   x-rot acc   y-rot acc   z-rot acc
    22626 -3.21818E-03-1.64999E-06-2.88008E-05-2.79898E-03 9.79058E-06-3.00187E-05-1.88261E-03 1.34784E-04 3.94922E-05



 n o d a l   p r i n t   o u t   f o r   t i m e  s t e p   13802                              ( at time 6.8998095E+00 )

 nodal point  x-disp     y-disp      z-disp      x-vel       y-vel       z-vel      x-accl      y-accl      z-accl      x-coor      y-coor      z-coor
    22626 -1.45589E-03 6.53490E-01-5.54847E-01 1.50503E-03 4.37548E-01-6.19996E-02-3.14194E-03 2.55121E-01 2.02825E-02 4.65792E+00-2.75373E+01-4.55366E+01



 n o d a l   p r i n t   o u t   f o r   t i m e  s t e p   13802                              ( at time 6.8998095E+00 )

 nodal point  x-rot      y-rot       z-rot       x-rot vel   y-rot vel   z-rot vel   x-rot acc   y-rot acc   z-rot acc
    22626 -3.50764E-03-7.88020E-07-3.14347E-05-2.99066E-03 5.79023E-06-2.77507E-05-1.91700E-03-4.00076E-05 2.26816E-05



 n o d a l   p r i n t   o u t   f o r   t i m e  s t e p   14002                              ( at time 6.9997995E+00 )

 nodal point  x-disp     y-disp      z-disp      x-vel       y-vel       z-vel      x-accl      y-accl      z-accl      x-coor      y-coor      z-coor
    22626 -1.35407E-03 6.98582E-01-5.60874E-01 7.96939E-04 4.64191E-01-5.93081E-02-7.08162E-03 2.66455E-01 2.69181E-02 4.65802E+00-2.74922E+01-4.55426E+01



 n o d a l   p r i n t   o u t   f o r   t i m e  s t e p   14002                              ( at time 6.9997995E+00 )

 nodal point  x-rot      y-rot       z-rot       x-rot vel   y-rot vel   z-rot vel   x-rot acc   y-rot acc   z-rot acc
    22626 -3.81535E-03-1.00586E-06-3.54641E-05-3.16881E-03-5.84401E-06-4.80746E-05-1.78164E-03-1.16354E-04-2.03259E-04



 n o d a l   p r i n t   o u t   f o r   t i m e  s t e p   14202                              ( at time 7.0997895E+00 )

 nodal point  x-disp     y-disp      z-disp      x-vel       y-vel       z-vel      x-accl      y-accl      z-accl      x-coor      y-coor      z-coor
    22626 -1.21852E-03 7.46349E-01-5.66725E-01 1.83574E-03 4.90811E-01-5.78475E-02 1.03891E-02 2.66225E-01 1.46071E-02 4.65816E+00-2.74445E+01-4.55484E+01



 n o d a l   p r i n t   o u t   f o r   t i m e  s t e p   14202                              ( at time 7.0997895E+00 )

 nodal point  x-rot      y-rot       z-rot       x-rot vel   y-rot vel   z-rot vel   x-rot acc   y-rot acc   z-rot acc
    22626 -4.14111E-03-2.66873E-07-3.94667E-05-3.35528E-03 2.39425E-05-2.39867E-05-1.86491E-03 2.97894E-04 2.40903E-04



 n o d a l   p r i n t   o u t   f o r   t i m e  s t e p   14402                              ( at time 7.1997794E+00 )

 nodal point  x-disp     y-disp      z-disp      x-vel       y-vel       z-vel      x-accl      y-accl      z-accl      x-coor      y-coor      z-coor
    22626 -9.94049E-04 7.96760E-01-5.72319E-01 2.52139E-03 5.17617E-01-5.40213E-02 6.85711E-03 2.68089E-01 3.82663E-02 4.65838E+00-2.73941E+01-4.55540E+01



 n o d a l   p r i n t   o u t   f o r   t i m e  s t e p   14402                              ( at time 7.1997794E+00 )

 nodal point  x-rot      y-rot       z-rot       x-rot vel   y-rot vel   z-rot vel   x-rot acc   y-rot acc   z-rot acc
    22626 -4.48591E-03 1.47031E-06-4.20735E-05-3.54784E-03 4.70065E-06-3.11017E-05-1.92584E-03-1.92438E-04-7.11577E-05



 n o d a l   p r i n t   o u t   f o r   t i m e  s t e p   14602                              ( at time 7.2997694E+00 )

 nodal point  x-disp     y-disp      z-disp      x-vel       y-vel       z-vel      x-accl      y-accl      z-accl      x-coor      y-coor      z-coor
    22626 -7.94786E-04 8.49860E-01-5.77473E-01 1.56991E-03 5.43773E-01-4.92068E-02-9.51571E-03 2.61590E-01 4.81495E-02 4.65858E+00-2.73410E+01-4.55592E+01



 n o d a l   p r i n t   o u t   f o r   t i m e  s t e p   14602                              ( at time 7.2997694E+00 )

 nodal point  x-rot      y-rot       z-rot       x-rot vel   y-rot vel   z-rot vel   x-rot acc   y-rot acc   z-rot acc
    22626 -4.85055E-03 1.18002E-06-4.64339E-05-3.74427E-03-1.32353E-06-4.40992E-05-1.96443E-03-6.02479E-05-1.29988E-04



 n o d a l   p r i n t   o u t   f o r   t i m e  s t e p   14802                              ( at time 7.3997594E+00 )

 nodal point  x-disp     y-disp      z-disp      x-vel       y-vel       z-vel      x-accl      y-accl      z-accl      x-coor      y-coor      z-coor
    22626 -5.82991E-04 9.05542E-01-5.82168E-01 3.40466E-03 5.69878E-01-4.44613E-02 1.83493E-02 2.61074E-01 4.74594E-02 4.65879E+00-2.72853E+01-4.55639E+01



 n o d a l   p r i n t   o u t   f o r   t i m e  s t e p   14802                              ( at time 7.3997594E+00 )

 nodal point  x-rot      y-rot       z-rot       x-rot vel   y-rot vel   z-rot vel   x-rot acc   y-rot acc   z-rot acc
    22626 -5.23495E-03 2.03989E-06-5.04927E-05-3.93603E-03 1.25731E-05-3.69122E-05-1.91784E-03 1.38980E-04 7.18776E-05



 n o d a l   p r i n t   o u t   f o r   t i m e  s t e p   15002                              ( at time 7.4997494E+00 )

 nodal point  x-disp     y-disp      z-disp      x-vel       y-vel       z-vel      x-accl      y-accl      z-accl      x-coor      y-coor      z-coor
    22626 -2.34603E-04 9.63882E-01-5.86312E-01 3.14790E-03 5.96802E-01-3.81464E-02-2.56781E-03 2.69260E-01 6.31550E-02 4.65914E+00-2.72269E+01-4.55680E+01



 n o d a l   p r i n t   o u t   f o r   t i m e  s t e p   15002                              ( at time 7.4997494E+00 )

 nodal point  x-rot      y-rot       z-rot       x-rot vel   y-rot vel   z-rot vel   x-rot acc   y-rot acc   z-rot acc
    22626 -5.63835E-03 3.11494E-06-5.41039E-05-4.13183E-03 6.63265E-06-3.81260E-05-1.95812E-03-5.94099E-05-1.21394E-05



 n o d a l   p r i n t   o u t   f o r   t i m e  s t e p   15202                              ( at time 7.5997394E+00 )

 nodal point  x-disp     y-disp      z-disp      x-vel       y-vel       z-vel      x-accl      y-accl      z-accl      x-coor      y-coor      z-coor
    22626  7.39765E-05 1.02484E+00-5.89839E-01 2.98595E-03 6.22740E-01-3.26389E-02-1.61961E-03 2.59410E-01 5.50813E-02 4.65945E+00-2.71660E+01-4.55716E+01



 n o d a l   p r i n t   o u t   f o r   t i m e  s t e p   15202                              ( at time 7.5997394E+00 )

 nodal point  x-rot      y-rot       z-rot       x-rot vel   y-rot vel   z-rot vel   x-rot acc   y-rot acc   z-rot acc
    22626 -6.06226E-03 3.25982E-06-5.89980E-05-4.34617E-03-6.85020E-06-5.53226E-05-2.14366E-03-1.34842E-04-1.71983E-04



 n o d a l   p r i n t   o u t   f o r   t i m e  s t e p   15402                              ( at time 7.6997294E+00 )

 nodal point  x-disp     y-disp      z-disp      x-vel       y-vel       z-vel      x-accl      y-accl      z-accl      x-coor      y-coor      z-coor
    22626  4.10658E-04 1.08846E+00-5.92791E-01 3.70874E-03 6.49947E-01-2.63222E-02 7.22855E-03 2.72096E-01 6.31733E-02 4.65979E+00-2.71024E+01-4.55745E+01



 n o d a l   p r i n t   o u t   f o r   t i m e  s t e p   15402                              ( at time 7.6997294E+00 )

 nodal point  x-rot      y-rot       z-rot       x-rot vel   y-rot vel   z-rot vel   x-rot acc   y-rot acc   z-rot acc
    22626 -6.50713E-03 2.71888E-06-6.42566E-05-4.54719E-03 6.68881E-06-5.04201E-05-2.01040E-03 1.35404E-04 4.90300E-05



 n o d a l   p r i n t   o u t   f o r   t i m e  s t e p   15602                              ( at time 7.7997194E+00 )

 nodal point  x-disp     y-disp      z-disp      x-vel       y-vel       z-vel      x-accl      y-accl      z-accl      x-coor      y-coor      z-coor
    22626  7.92843E-04 1.15475E+00-5.95079E-01 3.64981E-03 6.75982E-01-1.89547E-02-5.89307E-04 2.60374E-01 7.36820E-02 4.66017E+00-2.70361E+01-4.55768E+01



 n o d a l   p r i n t   o u t   f o r   t i m e  s t e p   15602                              ( at time 7.7997194E+00 )

 nodal point  x-rot      y-rot       z-rot       x-rot vel   y-rot vel   z-rot vel   x-rot acc   y-rot acc   z-rot acc
    22626 -6.97214E-03 3.98568E-06-6.87704E-05-4.74335E-03 1.37870E-05-4.72976E-05-1.96176E-03 7.09893E-05 3.12279E-05



 n o d a l   p r i n t   o u t   f o r   t i m e  s t e p   15802                              ( at time 7.8997094E+00 )

 nodal point  x-disp     y-disp      z-disp      x-vel       y-vel       z-vel      x-accl      y-accl      z-accl      x-coor      y-coor      z-coor
    22626  1.14839E-03 1.22363E+00-5.96599E-01 2.95554E-03 7.02554E-01-1.06879E-02-6.94342E-03 2.65753E-01 8.26767E-02 4.66052E+00-2.69672E+01-4.55783E+01



 n o d a l   p r i n t   o u t   f o r   t i m e  s t e p   15802                              ( at time 7.8997094E+00 )

 nodal point  x-rot      y-rot       z-rot       x-rot vel   y-rot vel   z-rot vel   x-rot acc   y-rot acc   z-rot acc
    22626 -7.45723E-03 4.54194E-06-7.40459E-05-4.95079E-03 2.05103E-06-5.84079E-05-2.07466E-03-1.17372E-04-1.11114E-04



 n o d a l   p r i n t   o u t   f o r   t i m e  s t e p   16002                              ( at time 7.9996994E+00 )

 nodal point  x-disp     y-disp      z-disp      x-vel       y-vel       z-vel      x-accl      y-accl      z-accl      x-coor      y-coor      z-coor
    22626  1.44562E-03 1.29518E+00-5.97330E-01 3.38986E-03 7.28639E-01-3.50164E-03 4.34361E-03 2.60871E-01 7.18693E-02 4.66082E+00-2.68957E+01-4.55790E+01



 n o d a l   p r i n t   o u t   f o r   t i m e  s t e p   16002                              ( at time 7.9996994E+00 )

 nodal point  x-rot      y-rot       z-rot       x-rot vel   y-rot vel   z-rot vel   x-rot acc   y-rot acc   z-rot acc
    22626 -7.96314E-03 6.07782E-06-8.00214E-05-5.16125E-03 2.54244E-05-6.12050E-05-2.10475E-03 2.33756E-04-2.79742E-05



 n o d a l   p r i n t   o u t   f o r   t i m e  s t e p   16202                              ( at time 8.0996894E+00 )

 nodal point  x-disp     y-disp      z-disp      x-vel       y-vel       z-vel      x-accl      y-accl      z-accl      x-coor      y-coor      z-coor
    22626  1.81274E-03 1.36933E+00-5.97272E-01 3.95355E-03 7.54132E-01 5.51296E-03 5.63749E-03 2.54956E-01 9.01552E-02 4.66119E+00-2.68215E+01-4.55790E+01



 n o d a l   p r i n t   o u t   f o r   t i m e  s t e p   16202                              ( at time 8.0996894E+00 )

 nodal point  x-rot      y-rot       z-rot       x-rot vel   y-rot vel   z-rot vel   x-rot acc   y-rot acc   z-rot acc
    22626 -8.49007E-03 7.93383E-06-8.61842E-05-5.37718E-03 8.32255E-06-6.12915E-05-2.15952E-03-1.71036E-04-8.64544E-07



 n o d a l   p r i n t   o u t   f o r   t i m e  s t e p   16402                              ( at time 8.1996794E+00 )

 nodal point  x-disp     y-disp      z-disp      x-vel       y-vel       z-vel      x-accl      y-accl      z-accl      x-coor      y-coor      z-coor
    22626  2.23355E-03 1.44602E+00-5.96176E-01 4.26891E-03 7.79540E-01 1.56481E-02 3.15395E-03 2.54113E-01 1.01362E-01 4.66161E+00-2.67448E+01-4.55779E+01



 n o d a l   p r i n t   o u t   f o r   t i m e  s t e p   16402                              ( at time 8.1996794E+00 )

 nodal point  x-rot      y-rot       z-rot       x-rot vel   y-rot vel   z-rot vel   x-rot acc   y-rot acc   z-rot acc
    22626 -9.03777E-03 8.40145E-06-9.29752E-05-5.58089E-03 2.28284E-06-7.25536E-05-2.03739E-03-6.04031E-05-1.12633E-04



 n o d a l   p r i n t   o u t   f o r   t i m e  s t e p   16602                              ( at time 8.2996694E+00 )

 nodal point  x-disp     y-disp      z-disp      x-vel       y-vel       z-vel      x-accl      y-accl      z-accl      x-coor      y-coor      z-coor
    22626  2.70458E-03 1.52529E+00-5.94109E-01 5.13004E-03 8.05271E-01 2.61452E-02 8.61208E-03 2.57333E-01 1.04981E-01 4.66208E+00-2.66655E+01-4.55758E+01



 n o d a l   p r i n t   o u t   f o r   t i m e  s t e p   16602                              ( at time 8.2996694E+00 )

 nodal point  x-rot      y-rot       z-rot       x-rot vel   y-rot vel   z-rot vel   x-rot acc   y-rot acc   z-rot acc
    22626 -9.60607E-03 9.10613E-06-1.00778E-04-5.77941E-03 8.16670E-06-8.56918E-05-1.98538E-03 5.88445E-05-1.31395E-04



 n o d a l   p r i n t   o u t   f o r   t i m e  s t e p   16802                              ( at time 8.3996594E+00 )

 nodal point  x-disp     y-disp      z-disp      x-vel       y-vel       z-vel      x-accl      y-accl      z-accl      x-coor      y-coor      z-coor
    22626  3.23502E-03 1.60712E+00-5.90940E-01 5.28213E-03 8.31257E-01 3.74261E-02 1.52112E-03 2.59882E-01 1.12821E-01 4.66261E+00-2.65837E+01-4.55727E+01



 n o d a l   p r i n t   o u t   f o r   t i m e  s t e p   16802                              ( at time 8.3996594E+00 )

 nodal point  x-rot      y-rot       z-rot       x-rot vel   y-rot vel   z-rot vel   x-rot acc   y-rot acc   z-rot acc
    22626 -1.01945E-02 9.75491E-06-1.08674E-04-5.97986E-03 1.04370E-05-7.12359E-05-2.00467E-03 2.27055E-05 1.44574E-04



 n o d a l   p r i n t   o u t   f o r   t i m e  s t e p   17002                              ( at time 8.4996494E+00 )

 nodal point  x-disp     y-disp      z-disp      x-vel       y-vel       z-vel      x-accl      y-accl      z-accl      x-coor      y-coor      z-coor
    22626  3.77065E-03 1.69150E+00-5.86664E-01 5.79232E-03 8.56412E-01 4.80305E-02 5.10245E-03 2.51578E-01 1.06055E-01 4.66315E+00-2.64993E+01-4.55684E+01



 n o d a l   p r i n t   o u t   f o r   t i m e  s t e p   17002                              ( at time 8.4996494E+00 )

 nodal point  x-rot      y-rot       z-rot       x-rot vel   y-rot vel   z-rot vel   x-rot acc   y-rot acc   z-rot acc
    22626 -1.08023E-02 1.04762E-05-1.16219E-04-6.17493E-03 6.38461E-06-8.63399E-05-1.95095E-03-4.05282E-05-1.51056E-04



 n o d a l   p r i n t   o u t   f o r   t i m e  s t e p   17202                              ( at time 8.5996394E+00 )

 nodal point  x-disp     y-disp      z-disp      x-vel       y-vel       z-vel      x-accl      y-accl      z-accl      x-coor      y-coor      z-coor
    22626  4.36085E-03 1.77842E+00-5.81235E-01 6.13318E-03 8.81890E-01 6.06791E-02 3.40887E-03 2.54808E-01 1.26499E-01 4.66374E+00-2.64124E+01-4.55630E+01



 n o d a l   p r i n t   o u t   f o r   t i m e  s t e p   17202                              ( at time 8.5996394E+00 )

 nodal point  x-rot      y-rot       z-rot       x-rot vel   y-rot vel   z-rot vel   x-rot acc   y-rot acc   z-rot acc
    22626 -1.14303E-02 1.06141E-05-1.25104E-04-6.37429E-03-1.11606E-06-9.12832E-05-1.99374E-03-7.50143E-05-4.94384E-05



 n o d a l   p r i n t   o u t   f o r   t i m e  s t e p   17402                              ( at time 8.6996293E+00 )

 nodal point  x-disp     y-disp      z-disp      x-vel       y-vel       z-vel      x-accl      y-accl      z-accl      x-coor      y-coor      z-coor
    22626  4.97962E-03 1.86785E+00-5.74503E-01 6.36705E-03 9.06869E-01 7.38292E-02 2.33897E-03 2.49812E-01 1.31513E-01 4.66435E+00-2.63230E+01-4.55562E+01



 n o d a l   p r i n t   o u t   f o r   t i m e  s t e p   17402                              ( at time 8.6996293E+00 )

 nodal point  x-rot      y-rot       z-rot       x-rot vel   y-rot vel   z-rot vel   x-rot acc   y-rot acc   z-rot acc
    22626 -1.20771E-02 1.15283E-05-1.33279E-04-6.54769E-03 3.04922E-06-8.92061E-05-1.73417E-03 4.16567E-05 2.07734E-05



 n o d a l   p r i n t   o u t   f o r   t i m e  s t e p   17602                              ( at time 8.7996193E+00 )

 nodal point  x-disp     y-disp      z-disp      x-vel       y-vel       z-vel      x-accl      y-accl      z-accl      x-coor      y-coor      z-coor
    22626  5.63464E-03 1.95976E+00-5.66481E-01 6.89233E-03 9.31466E-01 8.74519E-02 5.25332E-03 2.45992E-01 1.36241E-01 4.66501E+00-2.62311E+01-4.55482E+01



 n o d a l   p r i n t   o u t   f o r   t i m e  s t e p   17602                              ( at time 8.7996193E+00 )

 nodal point  x-rot      y-rot       z-rot       x-rot vel   y-rot vel   z-rot vel   x-rot acc   y-rot acc   z-rot acc
    22626 -1.27415E-02 1.20470E-05-1.42432E-04-6.72639E-03 8.38236E-06-9.14858E-05-1.78723E-03 5.33368E-05-2.27996E-05



 n o d a l   p r i n t   o u t   f o r   t i m e  s t e p   17802                              ( at time 8.8996093E+00 )

 nodal point  x-disp     y-disp      z-disp      x-vel       y-vel       z-vel      x-accl      y-accl      z-accl      x-coor      y-coor      z-coor
    22626  6.31787E-03 2.05414E+00-5.57077E-01 7.13678E-03 9.55855E-01 1.00431E-01 2.44473E-03 2.43919E-01 1.29808E-01 4.66569E+00-2.61367E+01-4.55388E+01



 n o d a l   p r i n t   o u t   f o r   t i m e  s t e p   17802                              ( at time 8.8996093E+00 )

 nodal point  x-rot      y-rot       z-rot       x-rot vel   y-rot vel   z-rot vel   x-rot acc   y-rot acc   z-rot acc
    22626 -1.34237E-02 1.28906E-05-1.51139E-04-6.90904E-03 1.01777E-05-8.07499E-05-1.82662E-03 1.79548E-05 1.07370E-04



 n o d a l   p r i n t   o u t   f o r   t i m e  s t e p   18002                              ( at time 8.9995993E+00 )

 nodal point  x-disp     y-disp      z-disp      x-vel       y-vel       z-vel      x-accl      y-accl      z-accl      x-coor      y-coor      z-coor
    22626  7.08658E-03 2.15093E+00-5.46289E-01 7.62021E-03 9.79420E-01 1.14842E-01 4.83478E-03 2.35674E-01 1.44116E-01 4.66646E+00-2.60399E+01-4.55280E+01



 n o d a l   p r i n t   o u t   f o r   t i m e  s t e p   18002                              ( at time 8.9995993E+00 )

 nodal point  x-rot      y-rot       z-rot       x-rot vel   y-rot vel   z-rot vel   x-rot acc   y-rot acc   z-rot acc
    22626 -1.41218E-02 1.36641E-05-1.60114E-04-7.06484E-03 5.60805E-06-9.21775E-05-1.55814E-03-4.57007E-05-1.14288E-04



 n o d a l   p r i n t   o u t   f o r   t i m e  s t e p   18202                              ( at time 9.0995893E+00 )

 nodal point  x-disp     y-disp      z-disp      x-vel       y-vel       z-vel      x-accl      y-accl      z-accl      x-coor      y-coor      z-coor
    22626  7.86708E-03 2.25007E+00-5.34001E-01 8.08157E-03 1.00262E+00 1.30181E-01 4.61409E-03 2.32016E-01 1.53408E-01 4.66724E+00-2.59408E+01-4.55157E+01



 n o d a l   p r i n t   o u t   f o r   t i m e  s t e p   18202                              ( at time 9.0995893E+00 )

 nodal point  x-rot      y-rot       z-rot       x-rot vel   y-rot vel   z-rot vel   x-rot acc   y-rot acc   z-rot acc
    22626 -1.48355E-02 1.44290E-05-1.68626E-04-7.21788E-03 1.20047E-05-8.33199E-05-1.53061E-03 6.39733E-05 8.85849E-05



 n o d a l   p r i n t   o u t   f o r   t i m e  s t e p   18402                              ( at time 9.1995793E+00 )

 nodal point  x-disp     y-disp      z-disp      x-vel       y-vel       z-vel      x-accl      y-accl      z-accl      x-coor      y-coor      z-coor
    22626  8.73391E-03 2.35154E+00-5.20201E-01 8.82954E-03 1.02647E+00 1.45443E-01 7.48039E-03 2.38508E-01 1.52639E-01 4.66811E+00-2.58393E+01-4.55019E+01



 n o d a l   p r i n t   o u t   f o r   t i m e  s t e p   18402                              ( at time 9.1995793E+00 )

 nodal point  x-rot      y-rot       z-rot       x-rot vel   y-rot vel   z-rot vel   x-rot acc   y-rot acc   z-rot acc
    22626 -1.55637E-02 1.56851E-05-1.77553E-04-7.35306E-03 1.67902E-05-8.81295E-05-1.35197E-03 4.78595E-05-4.81005E-05



 n o d a l   p r i n t   o u t   f o r   t i m e  s t e p   18602                              ( at time 9.2995693E+00 )

 nodal point  x-disp     y-disp      z-disp      x-vel       y-vel       z-vel      x-accl      y-accl      z-accl      x-coor      y-coor      z-coor
    22626  9.65105E-03 2.45528E+00-5.04883E-01 9.56712E-03 1.04876E+00 1.60868E-01 7.37660E-03 2.22950E-01 1.54267E-01 4.66903E+00-2.57355E+01-4.54866E+01



 n o d a l   p r i n t   o u t   f o r   t i m e  s t e p   18602                              ( at time 9.2995693E+00 )

 nodal point  x-rot      y-rot       z-rot       x-rot vel   y-rot vel   z-rot vel   x-rot acc   y-rot acc   z-rot acc
    22626 -1.63054E-02 1.73707E-05-1.86175E-04-7.48589E-03 2.06596E-05-7.21481E-05-1.32843E-03 3.86979E-05 1.59830E-04



 n o d a l   p r i n t   o u t   f o r   t i m e  s t e p   18802                              ( at time 9.3995593E+00 )

 nodal point  x-disp     y-disp      z-disp      x-vel       y-vel       z-vel      x-accl      y-accl      z-accl      x-coor      y-coor      z-coor
    22626  1.06253E-02 2.56129E+00-4.88034E-01 1.01290E-02 1.07130E+00 1.76447E-01 5.61964E-03 2.25450E-01 1.55800E-01 4.67000E+00-2.56295E+01-4.54698E+01



 n o d a l   p r i n t   o u t   f o r   t i m e  s t e p   18802                              ( at time 9.3995593E+00 )

 nodal point  x-rot      y-rot       z-rot       x-rot vel   y-rot vel   z-rot vel   x-rot acc   y-rot acc   z-rot acc
    22626 -1.70597E-02 1.90888E-05-1.93451E-04-7.60137E-03 1.96146E-05-7.74093E-05-1.15485E-03-1.04514E-05-5.26170E-05



 n o d a l   p r i n t   o u t   f o r   t i m e  s t e p   19002                              ( at time 9.4995493E+00 )

 nodal point  x-disp     y-disp      z-disp      x-vel       y-vel       z-vel      x-accl      y-accl      z-accl      x-coor      y-coor      z-coor
    22626  1.16548E-02 2.66948E+00-4.69534E-01 1.03892E-02 1.09285E+00 1.93661E-01 2.60214E-03 2.15490E-01 1.72161E-01 4.67103E+00-2.55214E+01-4.54513E+01



 n o d a l   p r i n t   o u t   f o r   t i m e  s t e p   19002                              ( at time 9.4995493E+00 )

 nodal point  x-rot      y-rot       z-rot       x-rot vel   y-rot vel   z-rot vel   x-rot acc   y-rot acc   z-rot acc
    22626 -1.78256E-02 2.15795E-05-2.01219E-04-7.71334E-03 3.05715E-05-7.19037E-05-1.11987E-03 1.09580E-04 5.50611E-05



 n o d a l   p r i n t   o u t   f o r   t i m e  s t e p   19202                              ( at time 9.5995393E+00 )

 nodal point  x-disp     y-disp      z-disp      x-vel       y-vel       z-vel      x-accl      y-accl      z-accl      x-coor      y-coor      z-coor
    22626  1.27505E-02 2.77981E+00-4.49290E-01 1.15506E-02 1.11379E+00 2.11329E-01 1.16147E-02 2.09410E-01 1.76690E-01 4.67213E+00-2.54110E+01-4.54310E+01



 n o d a l   p r i n t   o u t   f o r   t i m e  s t e p   19202                              ( at time 9.5995393E+00 )

 nodal point  x-rot      y-rot       z-rot       x-rot vel   y-rot vel   z-rot vel   x-rot acc   y-rot acc   z-rot acc
    22626 -1.86026E-02 2.50112E-05-2.07664E-04-7.81685E-03 3.33503E-05-5.98851E-05-1.03516E-03 2.77903E-05 1.20197E-04



 n o d a l   p r i n t   o u t   f o r   t i m e  s t e p   19402                              ( at time 9.6995293E+00 )

 nodal point  x-disp     y-disp      z-disp      x-vel       y-vel       z-vel      x-accl      y-accl      z-accl      x-coor      y-coor      z-coor
    22626  1.39415E-02 2.89216E+00-4.27269E-01 1.21837E-02 1.13362E+00 2.29741E-01 6.33157E-03 1.98276E-01 1.84142E-01 4.67332E+00-2.52987E+01-4.54090E+01



 n o d a l   p r i n t   o u t   f o r   t i m e  s t e p   19402                              ( at time 9.6995293E+00 )

 nodal point  x-rot      y-rot       z-rot       x-rot vel   y-rot vel   z-rot vel   x-rot acc   y-rot acc   z-rot acc
    22626 -1.93901E-02 2.88003E-05-2.13426E-04-7.92577E-03 4.37727E-05-5.47537E-05-1.08928E-03 1.04235E-04 5.13191E-05



 n o d a l   p r i n t   o u t   f o r   t i m e  s t e p   19602                              ( at time 9.7995193E+00 )

 nodal point  x-disp     y-disp      z-disp      x-vel       y-vel       z-vel      x-accl      y-accl      z-accl      x-coor      y-coor      z-coor
    22626  1.51834E-02 3.00644E+00-4.03334E-01 1.30725E-02 1.15224E+00 2.48928E-01 8.88917E-03 1.86270E-01 1.91895E-01 4.67456E+00-2.51844E+01-4.53851E+01



 n o d a l   p r i n t   o u t   f o r   t i m e  s t e p   19602                              ( at time 9.7995193E+00 )

 nodal point  x-rot      y-rot       z-rot       x-rot vel   y-rot vel   z-rot vel   x-rot acc   y-rot acc   z-rot acc
    22626 -2.01885E-02 3.34349E-05-2.18087E-04-8.03858E-03 5.37257E-05-4.07199E-05-1.12827E-03 9.95400E-05 1.40353E-04



 n o d a l   p r i n t   o u t   f o r   t i m e  s t e p   19802                              ( at time 9.8995093E+00 )

 nodal point  x-disp     y-disp      z-disp      x-vel       y-vel       z-vel      x-accl      y-accl      z-accl      x-coor      y-coor      z-coor
    22626  1.65620E-02 3.12262E+00-3.77414E-01 1.44907E-02 1.17116E+00 2.69654E-01 1.41840E-02 1.89211E-01 2.07281E-01 4.67594E+00-2.50682E+01-4.53591E+01



 n o d a l   p r i n t   o u t   f o r   t i m e  s t e p   19802                              ( at time 9.8995093E+00 )

 nodal point  x-rot      y-rot       z-rot       x-rot vel   y-rot vel   z-rot vel   x-rot acc   y-rot acc   z-rot acc
    22626 -2.09973E-02 3.98437E-05-2.20626E-04-8.14162E-03 6.62128E-05-2.53190E-05-1.03044E-03 1.24883E-04 1.54024E-04



 n o d a l   p r i n t   o u t   f o r   t i m e  s t e p   20003                              ( at time 9.9999992E+00 )

 nodal point  x-disp     y-disp      z-disp      x-vel       y-vel       z-vel      x-accl      y-accl      z-accl      x-coor      y-coor      z-coor
[...]
    22626 -1.96158E-01 3.64960E-03 4.05226E-03-1.92651E-02 1.21401E-04 2.83497E-04-4.19730E-04 2.56882E-05-5.04864E-05



 n o d a l   p r i n t   o u t   f o r   t i m e  s t e p   45205                              ( at time 2.2599738E+01 )

 nodal point  x-disp     y-disp      z-disp      x-vel       y-vel       z-vel      x-accl      y-accl      z-accl      x-coor      y-coor      z-coor
    22626  7.39352E-01 2.08683E+01 1.76581E+01 5.74623E-02 1.75252E+00 8.20004E-01-2.47121E-03 3.59735E-02-1.33792E-01 5.39873E+00-7.32249E+00-2.73237E+01



 n o d a l   p r i n t   o u t   f o r   t i m e  s t e p   45205                              ( at time 2.2599738E+01 )

 nodal point  x-rot      y-rot       z-rot       x-rot vel   y-rot vel   z-rot vel   x-rot acc   y-rot acc   z-rot acc
    22626 -1.98085E-01 3.66056E-03 4.08046E-03-1.92809E-02 1.05745E-04 2.77860E-04-1.58377E-04-1.56580E-04-5.63732E-05



 n o d a l   p r i n t   o u t   f o r   t i m e  s t e p   45405                              ( at time 2.2699728E+01 )

 nodal point  x-disp     y-disp      z-disp      x-vel       y-vel       z-vel      x-accl      y-accl      z-accl      x-coor      y-coor      z-coor
    22626  7.45107E-01 2.10437E+01 1.77394E+01 5.73714E-02 1.75489E+00 8.06677E-01-9.09668E-04 2.36919E-02-1.33287E-01 5.40448E+00-7.14714E+00-2.72423E+01



 n o d a l   p r i n t   o u t   f o r   t i m e  s t e p   45405                              ( at time 2.2699728E+01 )

 nodal point  x-rot      y-rot       z-rot       x-rot vel   y-rot vel   z-rot vel   x-rot acc   y-rot acc   z-rot acc
    22626 -2.00013E-01 3.67139E-03 4.10873E-03-1.92984E-02 1.13904E-04 2.90152E-04-1.74456E-04 8.16000E-05 1.22929E-04



 n o d a l   p r i n t   o u t   f o r   t i m e  s t e p   45605                              ( at time 2.2799718E+01 )

 nodal point  x-disp     y-disp      z-disp      x-vel       y-vel       z-vel      x-accl      y-accl      z-accl      x-coor      y-coor      z-coor
    22626  7.50885E-01 2.12193E+01 1.78195E+01 5.74234E-02 1.75689E+00 7.95721E-01 5.20769E-04 2.00505E-02-1.09569E-01 5.41026E+00-6.97157E+00-2.71622E+01



 n o d a l   p r i n t   o u t   f o r   t i m e  s t e p   45605                              ( at time 2.2799718E+01 )

 nodal point  x-rot      y-rot       z-rot       x-rot vel   y-rot vel   z-rot vel   x-rot acc   y-rot acc   z-rot acc
    22626 -2.01944E-01 3.68286E-03 4.13728E-03-1.93219E-02 1.06228E-04 2.77759E-04-2.35944E-04-7.67641E-05-1.23944E-04



 n o d a l   p r i n t   o u t   f o r   t i m e  s t e p   45805                              ( at time 2.2899708E+01 )

 nodal point  x-disp     y-disp      z-disp      x-vel       y-vel       z-vel      x-accl      y-accl      z-accl      x-coor      y-coor      z-coor
    22626  7.56544E-01 2.13950E+01 1.78985E+01 5.66127E-02 1.75852E+00 7.85162E-01-8.10799E-03 1.62953E-02-1.05598E-01 5.41592E+00-6.79579E+00-2.70832E+01



 n o d a l   p r i n t   o u t   f o r   t i m e  s t e p   45805                              ( at time 2.2899708E+01 )

 nodal point  x-rot      y-rot       z-rot       x-rot vel   y-rot vel   z-rot vel   x-rot acc   y-rot acc   z-rot acc
    22626 -2.03877E-01 3.69304E-03 4.16483E-03-1.93265E-02 1.00036E-04 2.74429E-04-4.59565E-05-6.19242E-05-3.33005E-05



 n o d a l   p r i n t   o u t   f o r   t i m e  s t e p   46005                              ( at time 2.2999698E+01 )

 nodal point  x-disp     y-disp      z-disp      x-vel       y-vel       z-vel      x-accl      y-accl      z-accl      x-coor      y-coor      z-coor
    22626  7.62220E-01 2.15709E+01 1.79764E+01 5.65128E-02 1.75953E+00 7.74739E-01-9.99512E-04 1.00801E-02-1.04246E-01 5.42159E+00-6.61990E+00-2.70053E+01



 n o d a l   p r i n t   o u t   f o r   t i m e  s t e p   46005                              ( at time 2.2999698E+01 )

 nodal point  x-rot      y-rot       z-rot       x-rot vel   y-rot vel   z-rot vel   x-rot acc   y-rot acc   z-rot acc
    22626 -2.05811E-01 3.70324E-03 4.19292E-03-1.93461E-02 1.03911E-04 2.89366E-04-1.95950E-04 3.87522E-05 1.49379E-04



 n o d a l   p r i n t   o u t   f o r   t i m e  s t e p   46205                              ( at time 2.3099688E+01 )

 nodal point  x-disp     y-disp      z-disp      x-vel       y-vel       z-vel      x-accl      y-accl      z-accl      x-coor      y-coor      z-coor
    22626  7.67917E-01 2.17469E+01 1.80535E+01 5.73943E-02 1.76050E+00 7.66389E-01 8.81591E-03 9.68444E-03-8.35124E-02 5.42729E+00-6.44390E+00-2.69283E+01



 n o d a l   p r i n t   o u t   f o r   t i m e  s t e p   46205                              ( at time 2.3099688E+01 )

 nodal point  x-rot      y-rot       z-rot       x-rot vel   y-rot vel   z-rot vel   x-rot acc   y-rot acc   z-rot acc
    22626 -2.07746E-01 3.71423E-03 4.22095E-03-1.93603E-02 1.05036E-04 2.77387E-04-1.41595E-04 1.12530E-05-1.19799E-04



 n o d a l   p r i n t   o u t   f o r   t i m e  s t e p   46405                              ( at time 2.3199678E+01 )

 nodal point  x-disp     y-disp      z-disp      x-vel       y-vel       z-vel      x-accl      y-accl      z-accl      x-coor      y-coor      z-coor
    22626  7.73555E-01 2.19230E+01 1.81297E+01 5.61487E-02 1.76051E+00 7.59396E-01-1.24572E-02 8.34541E-05-6.99352E-02 5.43293E+00-6.26785E+00-2.68520E+01



 n o d a l   p r i n t   o u t   f o r   t i m e  s t e p   46405                              ( at time 2.3199678E+01 )

 nodal point  x-rot      y-rot       z-rot       x-rot vel   y-rot vel   z-rot vel   x-rot acc   y-rot acc   z-rot acc
    22626 -2.09683E-01 3.72481E-03 4.24936E-03-1.93604E-02 9.62420E-05 2.74747E-04-1.00592E-06-8.79526E-05-2.64016E-05



 n o d a l   p r i n t   o u t   f o r   t i m e  s t e p   46605                              ( at time 2.3299668E+01 )

 nodal point  x-disp     y-disp      z-disp      x-vel       y-vel       z-vel      x-accl      y-accl      z-accl      x-coor      y-coor      z-coor
    22626  7.79137E-01 2.20991E+01 1.82053E+01 5.58177E-02 1.76121E+00 7.52347E-01-3.30947E-03 7.00432E-03-7.04897E-02 5.43851E+00-6.09178E+00-2.67764E+01



 n o d a l   p r i n t   o u t   f o r   t i m e  s t e p   46605                              ( at time 2.3299668E+01 )

 nodal point  x-rot      y-rot       z-rot       x-rot vel   y-rot vel   z-rot vel   x-rot acc   y-rot acc   z-rot acc
    22626 -2.11618E-01 3.73475E-03 4.27678E-03-1.93526E-02 1.00980E-04 2.81374E-04 7.79976E-05 4.73887E-05 6.62733E-05



 n o d a l   p r i n t   o u t   f o r   t i m e  s t e p   46805                              ( at time 2.3399658E+01 )

 nodal point  x-disp     y-disp      z-disp      x-vel       y-vel       z-vel      x-accl      y-accl      z-accl      x-coor      y-coor      z-coor
    22626  7.84795E-01 2.22751E+01 1.82802E+01 5.70044E-02 1.76059E+00 7.47125E-01 1.18680E-02-6.22210E-03-5.22328E-02 5.44417E+00-5.91575E+00-2.67015E+01



 n o d a l   p r i n t   o u t   f o r   t i m e  s t e p   46805                              ( at time 2.3399658E+01 )

 nodal point  x-rot      y-rot       z-rot       x-rot vel   y-rot vel   z-rot vel   x-rot acc   y-rot acc   z-rot acc
    22626 -2.13554E-01 3.74565E-03 4.30506E-03-1.93564E-02 1.15460E-04 2.91792E-04-3.85044E-05 1.44809E-04 1.04196E-04



 n o d a l   p r i n t   o u t   f o r   t i m e  s t e p   47005                              ( at time 2.3499648E+01 )

 nodal point  x-disp     y-disp      z-disp      x-vel       y-vel       z-vel      x-accl      y-accl      z-accl      x-coor      y-coor      z-coor
    22626  7.90374E-01 2.24511E+01 1.83547E+01 5.58251E-02 1.76047E+00 7.43290E-01-1.17945E-02-1.12425E-03-3.83525E-02 5.44975E+00-5.73971E+00-2.66270E+01



 n o d a l   p r i n t   o u t   f o r   t i m e  s t e p   47005                              ( at time 2.3499648E+01 )

 nodal point  x-rot      y-rot       z-rot       x-rot vel   y-rot vel   z-rot vel   x-rot acc   y-rot acc   z-rot acc
    22626 -2.15488E-01 3.75643E-03 4.33357E-03-1.93419E-02 9.96057E-05 2.71670E-04 1.45467E-04-1.58557E-04-2.01242E-04



 n o d a l   p r i n t   o u t   f o r   t i m e  s t e p   47205                              ( at time 2.3599638E+01 )

 nodal point  x-disp     y-disp      z-disp      x-vel       y-vel       z-vel      x-accl      y-accl      z-accl      x-coor      y-coor      z-coor
    22626  7.95934E-01 2.26270E+01 1.84288E+01 5.48004E-02 1.75910E+00 7.38760E-01-1.02479E-02-1.37905E-02-4.53010E-02 5.45531E+00-5.56378E+00-2.65529E+01



 n o d a l   p r i n t   o u t   f o r   t i m e  s t e p   47205                              ( at time 2.3599638E+01 )

 nodal point  x-rot      y-rot       z-rot       x-rot vel   y-rot vel   z-rot vel   x-rot acc   y-rot acc   z-rot acc
    22626 -2.17421E-01 3.76673E-03 4.36103E-03-1.93321E-02 1.03519E-04 2.86110E-04 9.80046E-05 3.91403E-05 1.44418E-04



 n o d a l   p r i n t   o u t   f o r   t i m e  s t e p   47405                              ( at time 2.3699628E+01 )

 nodal point  x-disp     y-disp      z-disp      x-vel       y-vel       z-vel      x-accl      y-accl      z-accl      x-coor      y-coor      z-coor
    22626  8.01488E-01 2.28029E+01 1.85026E+01 5.59940E-02 1.75829E+00 7.37498E-01 1.19366E-02-8.06286E-03-1.26201E-02 5.46086E+00-5.38796E+00-2.64791E+01



 n o d a l   p r i n t   o u t   f o r   t i m e  s t e p   47405                              ( at time 2.3699628E+01 )

 nodal point  x-rot      y-rot       z-rot       x-rot vel   y-rot vel   z-rot vel   x-rot acc   y-rot acc   z-rot acc
    22626 -2.19352E-01 3.77788E-03 4.38972E-03-1.93062E-02 1.13415E-04 2.88415E-04 2.58764E-04 9.89637E-05 2.30512E-05



 n o d a l   p r i n t   o u t   f o r   t i m e  s t e p   47605                              ( at time 2.3799618E+01 )

 nodal point  x-disp     y-disp      z-disp      x-vel       y-vel       z-vel      x-accl      y-accl      z-accl      x-coor      y-coor      z-coor
    22626  8.07044E-01 2.29786E+01 1.85762E+01 5.57044E-02 1.75680E+00 7.35303E-01-2.89644E-03-1.49088E-02-2.19512E-02 5.46642E+00-5.21220E+00-2.64055E+01



 n o d a l   p r i n t   o u t   f o r   t i m e  s t e p   47605                              ( at time 2.3799618E+01 )

 nodal point  x-rot      y-rot       z-rot       x-rot vel   y-rot vel   z-rot vel   x-rot acc   y-rot acc   z-rot acc
    22626 -2.21280E-01 3.78901E-03 4.41835E-03-1.92767E-02 1.20694E-04 2.84827E-04 2.95616E-04 7.28038E-05-3.58858E-05



 n o d a l   p r i n t   o u t   f o r   t i m e  s t e p   47805                              ( at time 2.3899608E+01 )

 nodal point  x-disp     y-disp      z-disp      x-vel       y-vel       z-vel      x-accl      y-accl      z-accl      x-coor      y-coor      z-coor
    22626  8.12523E-01 2.31542E+01 1.86497E+01 5.42425E-02 1.75528E+00 7.34956E-01-1.46200E-02-1.51910E-02-3.47765E-03 5.47190E+00-5.03666E+00-2.63320E+01



 n o d a l   p r i n t   o u t   f o r   t i m e  s t e p   47805                              ( at time 2.3899608E+01 )

 nodal point  x-rot      y-rot       z-rot       x-rot vel   y-rot vel   z-rot vel   x-rot acc   y-rot acc   z-rot acc
    22626 -2.23205E-01 3.80089E-03 4.44719E-03-1.92362E-02 1.11406E-04 2.89190E-04 4.04529E-04-9.28895E-05 4.36391E-05



 n o d a l   p r i n t   o u t   f o r   t i m e  s t e p   48005                              ( at time 2.3999598E+01 )

 nodal point  x-disp     y-disp      z-disp      x-vel       y-vel       z-vel      x-accl      y-accl      z-accl      x-coor      y-coor      z-coor
    22626  8.17991E-01 2.33296E+01 1.87232E+01 5.48468E-02 1.75325E+00 7.35130E-01 6.04406E-03-2.03405E-02 1.73946E-03 5.47737E+00-4.86124E+00-2.62585E+01



 n o d a l   p r i n t   o u t   f o r   t i m e  s t e p   48005                              ( at time 2.3999598E+01 )

 nodal point  x-rot      y-rot       z-rot       x-rot vel   y-rot vel   z-rot vel   x-rot acc   y-rot acc   z-rot acc
    22626 -2.25127E-01 3.81242E-03 4.47565E-03-1.92012E-02 1.14951E-04 2.89451E-04 3.49899E-04 3.54532E-05 2.61032E-06



 n o d a l   p r i n t   o u t   f o r   t i m e  s t e p   48205                              ( at time 2.4099588E+01 )

 nodal point  x-disp     y-disp      z-disp      x-vel       y-vel       z-vel      x-accl      y-accl      z-accl      x-coor      y-coor      z-coor
    22626  8.23503E-01 2.35048E+01 1.87968E+01 5.50006E-02 1.75130E+00 7.36675E-01 1.53783E-03-1.94186E-02 1.54599E-02 5.48288E+00-4.68602E+00-2.61849E+01



 n o d a l   p r i n t   o u t   f o r   t i m e  s t e p   48205                              ( at time 2.4099588E+01 )

 nodal point  x-rot      y-rot       z-rot       x-rot vel   y-rot vel   z-rot vel   x-rot acc   y-rot acc   z-rot acc
    22626 -2.27044E-01 3.82508E-03 4.50542E-03-1.91534E-02 1.25075E-04 3.00040E-04 4.78110E-04 1.01245E-04 1.05895E-04



 n o d a l   p r i n t   o u t   f o r   t i m e  s t e p   48405                              ( at time 2.4199578E+01 )

 nodal point  x-disp     y-disp      z-disp      x-vel       y-vel       z-vel      x-accl      y-accl      z-accl      x-coor      y-coor      z-coor
    22626  8.28941E-01 2.36798E+01 1.88706E+01 5.41167E-02 1.74862E+00 7.39136E-01-8.84020E-03-2.68453E-02 2.46099E-02 5.48832E+00-4.51102E+00-2.61112E+01



 n o d a l   p r i n t   o u t   f o r   t i m e  s t e p   48405                              ( at time 2.4199578E+01 )

 nodal point  x-rot      y-rot       z-rot       x-rot vel   y-rot vel   z-rot vel   x-rot acc   y-rot acc   z-rot acc
    22626 -2.28957E-01 3.83754E-03 4.53493E-03-1.91159E-02 1.26459E-04 2.87263E-04 3.75309E-04 1.38416E-05-1.27784E-04



 n o d a l   p r i n t   o u t   f o r   t i m e  s t e p   48605                              ( at time 2.4299568E+01 )

 nodal point  x-disp     y-disp      z-disp      x-vel       y-vel       z-vel      x-accl      y-accl      z-accl      x-coor      y-coor      z-coor
    22626  8.34351E-01 2.38545E+01 1.89447E+01 5.43623E-02 1.74605E+00 7.43186E-01 2.45623E-03-2.57456E-02 4.04997E-02 5.49373E+00-4.33633E+00-2.60371E+01



 n o d a l   p r i n t   o u t   f o r   t i m e  s t e p   48605                              ( at time 2.4299568E+01 )

 nodal point  x-rot      y-rot       z-rot       x-rot vel   y-rot vel   z-rot vel   x-rot acc   y-rot acc   z-rot acc
    22626 -2.30865E-01 3.85031E-03 4.56388E-03-1.90649E-02 1.34104E-04 2.98115E-04 5.10169E-04 7.64571E-05 1.08528E-04



 n o d a l   p r i n t   o u t   f o r   t i m e  s t e p   48805                              ( at time 2.4399558E+01 )

 nodal point  x-disp     y-disp      z-disp      x-vel       y-vel       z-vel      x-accl      y-accl      z-accl      x-coor      y-coor      z-coor
    22626  8.39834E-01 2.40289E+01 1.90192E+01 5.47882E-02 1.74289E+00 7.48484E-01 4.25937E-03-3.15194E-02 5.29874E-02 5.49921E+00-4.16190E+00-2.59625E+01



 n o d a l   p r i n t   o u t   f o r   t i m e  s t e p   48805                              ( at time 2.4399558E+01 )

 nodal point  x-rot      y-rot       z-rot       x-rot vel   y-rot vel   z-rot vel   x-rot acc   y-rot acc   z-rot acc
    22626 -2.32768E-01 3.86347E-03 4.59413E-03-1.90084E-02 1.31549E-04 3.04235E-04 5.65383E-04-2.55460E-05 6.12127E-05



 n o d a l   p r i n t   o u t   f o r   t i m e  s t e p   49006                              ( at time 2.4500048E+01 )

 nodal point  x-disp     y-disp      z-disp      x-vel       y-vel       z-vel      x-accl      y-accl      z-accl      x-coor      y-coor      z-coor
    22626  8.45330E-01 2.42039E+01 1.90948E+01 5.44429E-02 1.73879E+00 7.55044E-01-3.43570E-03-4.08359E-02 6.52836E-02 5.50470E+00-3.98698E+00-2.58869E+01



 n o d a l   p r i n t   o u t   f o r   t i m e  s t e p   49006                              ( at time 2.4500048E+01 )

 nodal point  x-rot      y-rot       z-rot       x-rot vel   y-rot vel   z-rot vel   x-rot acc   y-rot acc   z-rot acc
    22626 -2.34675E-01 3.87704E-03 4.62460E-03-1.89562E-02 1.38581E-04 2.98167E-04 5.18597E-04 6.99765E-05-6.03838E-05



 n o d a l   p r i n t   o u t   f o r   t i m e  s t e p   49206                              ( at time 2.4600038E+01 )

 nodal point  x-disp     y-disp      z-disp      x-vel       y-vel       z-vel      x-accl      y-accl      z-accl      x-coor      y-coor      z-coor
    22626  8.50765E-01 2.43775E+01 1.91706E+01 5.39816E-02 1.73489E+00 7.61964E-01-4.61408E-03-3.90208E-02 6.92073E-02 5.51014E+00-3.81332E+00-2.58111E+01



 n o d a l   p r i n t   o u t   f o r   t i m e  s t e p   49206                              ( at time 2.4600038E+01 )

 nodal point  x-rot      y-rot       z-rot       x-rot vel   y-rot vel   z-rot vel   x-rot acc   y-rot acc   z-rot acc
    22626 -2.36567E-01 3.89121E-03 4.65460E-03-1.88979E-02 1.44723E-04 3.00293E-04 5.83751E-04 6.14198E-05 2.12576E-05



 n o d a l   p r i n t   o u t   f o r   t i m e  s t e p   49406                              ( at time 2.4700028E+01 )

 nodal point  x-disp     y-disp      z-disp      x-vel       y-vel       z-vel      x-accl      y-accl      z-accl      x-coor      y-coor      z-coor
    22626  8.56179E-01 2.45508E+01 1.92472E+01 5.42849E-02 1.73059E+00 7.69627E-01 3.03388E-03-4.30059E-02 7.66380E-02 5.51555E+00-3.64007E+00-2.57346E+01



 n o d a l   p r i n t   o u t   f o r   t i m e  s t e p   49406                              ( at time 2.4700028E+01 )

 nodal point  x-rot      y-rot       z-rot       x-rot vel   y-rot vel   z-rot vel   x-rot acc   y-rot acc   z-rot acc
    22626 -2.38453E-01 3.90555E-03 4.68483E-03-1.88333E-02 1.52120E-04 3.05617E-04 6.46260E-04 7.39792E-05 5.32479E-05



 n o d a l   p r i n t   o u t   f o r   t i m e  s t e p   49606                              ( at time 2.4800018E+01 )

 nodal point  x-disp     y-disp      z-disp      x-vel       y-vel       z-vel      x-accl      y-accl      z-accl      x-coor      y-coor      z-coor
    22626  8.61578E-01 2.47236E+01 1.93246E+01 5.40279E-02 1.72578E+00 7.78325E-01-2.57024E-03-4.80469E-02 8.69831E-02 5.52095E+00-3.46726E+00-2.56572E+01



 n o d a l   p r i n t   o u t   f o r   t i m e  s t e p   49606                              ( at time 2.4800018E+01 )

 nodal point  x-rot      y-rot       z-rot       x-rot vel   y-rot vel   z-rot vel   x-rot acc   y-rot acc   z-rot acc
    22626 -2.40333E-01 3.92088E-03 4.71581E-03-1.87690E-02 1.60079E-04 3.09734E-04 6.42448E-04 7.96012E-05 4.11755E-05



 n o d a l   p r i n t   o u t   f o r   t i m e  s t e p   49806                              ( at time 2.4900008E+01 )

 nodal point  x-disp     y-disp      z-disp      x-vel       y-vel       z-vel      x-accl      y-accl      z-accl      x-coor      y-coor      z-coor
    22626  8.66953E-01 2.48959E+01 1.94028E+01 5.32771E-02 1.72044E+00 7.86930E-01-7.50882E-03-5.34761E-02 8.60572E-02 5.52633E+00-3.29497E+00-2.55789E+01



 n o d a l   p r i n t   o u t   f o r   t i m e  s t e p   49806                              ( at time 2.4900008E+01 )

 nodal point  x-rot      y-rot       z-rot       x-rot vel   y-rot vel   z-rot vel   x-rot acc   y-rot acc   z-rot acc
    22626 -2.42206E-01 3.93671E-03 4.74614E-03-1.87049E-02 1.56783E-04 3.02909E-04 6.40821E-04-3.29698E-05-6.82636E-05



 n o d a l   p r i n t   o u t   f o r   t i m e  s t e p   50006                              ( at time 2.4999998E+01 )

 nodal point  x-disp     y-disp      z-disp      x-vel       y-vel       z-vel      x-accl      y-accl      z-accl      x-coor      y-coor      z-coor
    22626  8.72283E-01 2.50676E+01 1.94820E+01 5.31884E-02 1.71584E+00 7.96942E-01-8.87669E-04-4.59499E-02 1.00132E-01 5.53166E+00-3.12318E+00-2.54997E+01



 n o d a l   p r i n t   o u t   f o r   t i m e  s t e p   50006                              ( at time 2.4999998E+01 )

 nodal point  x-rot      y-rot       z-rot       x-rot vel   y-rot vel   z-rot vel   x-rot acc   y-rot acc   z-rot acc
    22626 -2.44073E-01 3.95293E-03 4.77642E-03-1.86367E-02 1.59958E-04 3.06384E-04 6.82610E-04 3.17594E-05 3.47529E-05
