 LSTC 50th% Full_FE H-III Dummy (Beta Version, February 17, 2019)        
                    ls-dyna smp s R16 R16.0_619_d222963 date 03/18/2025

{BEGIN LEGEND}
 Entity #        Title
        1     Upper_Neck_Force_INJURY                                              
{END LEGEND}



 line#1  section#     time        x-force     y-force     z-force    magnitude
 line#2  resultant  moments       x-moment    y-moment    z-moment   magnitude
 line#3  centroids                x           y           z            area  
           1    0.00000E+00     0.0000E+00  0.0000E+00  0.0000E+00  0.0000E+00
ac ID =   33377                 0.0000E+00  0.0000E+00  0.0000E+00  0.0000E+00
                               -3.7437E-01  1.0501E+01 -4.6940E+01  0.0000E+00

           1    1.00490E-01     1.3625E-04 -4.9880E-03  2.5983E-01  2.5988E-01
ac ID =   33377                 4.2544E-01 -1.2521E+00 -2.7100E-02  1.3227E+00
                               -3.7387E-01  1.0590E+01 -4.6886E+01  2.5147E+03

           1    2.00480E-01    -4.4280E-02  5.2626E-04  4.4115E-01  4.4337E-01
ac ID =   33377                 3.0572E-01 -1.5969E+00  2.1988E-02  1.6260E+00
                               -3.7386E-01  1.0591E+01 -4.6888E+01  2.5147E+03

           1    3.00470E-01     1.4751E-02 -2.9912E-03  2.1776E-01  2.1828E-01
ac ID =   33377                 3.3330E-02 -3.3651E-01  6.4604E-02  3.4427E-01
                               -3.7382E-01  1.0591E+01 -4.6889E+01  2.5147E+03

           1    4.00460E-01     2.8265E-03  1.0534E-02  8.7895E-02  8.8569E-02
ac ID =   33377                -5.0048E-01 -9.4174E-01 -2.2243E-03  1.0665E+00
                               -3.7384E-01  1.0592E+01 -4.6890E+01  2.5147E+03

           1    5.00450E-01    -4.0892E-02  4.3781E-03  1.6173E-01  1.6687E-01
ac ID =   33377                -3.9868E-01 -1.5042E+00 -1.0580E-01  1.5598E+00
                               -3.7385E-01  1.0594E+01 -4.6893E+01  2.5147E+03

           1    6.00440E-01    -1.0860E-02  3.7580E-03  3.4352E-01  3.4371E-01
ac ID =   33377                 9.3408E-02 -1.3248E+00 -3.4021E-02  1.3285E+00
                               -3.7385E-01  1.0595E+01 -4.6897E+01  2.5147E+03

           1    7.00430E-01     2.8079E-03 -5.3848E-03  2.9438E-01  2.9444E-01
ac ID =   33377                 1.3567E-01 -5.0183E-01  8.2477E-02  5.2635E-01
                               -3.7389E-01  1.0597E+01 -4.6901E+01  2.5147E+03

           1    8.00420E-01    -3.0976E-02 -1.2145E-03  1.0083E-01  1.0549E-01
ac ID =   33377                 8.9676E-02 -1.0562E+00  5.3667E-02  1.0614E+00
                               -3.7394E-01  1.0599E+01 -4.6905E+01  2.5147E+03

           1    9.00410E-01    -3.9238E-02  6.4464E-04  6.2492E-02  7.3792E-02
ac ID =   33377                 9.1282E-02 -1.0774E+00 -1.5078E-03  1.0812E+00
                               -3.7399E-01  1.0601E+01 -4.6909E+01  2.5147E+03

           1    1.00040E+00     1.4721E-02 -4.0101E-03  2.2015E-01  2.2068E-01
ac ID =   33377                 3.7065E-01 -2.8646E-01 -5.8579E-02  4.7209E-01
                               -3.7400E-01  1.0604E+01 -4.6915E+01  2.5147E+03

           1    1.10039E+00    -8.0802E-05 -3.1226E-03  2.7094E-01  2.7096E-01
ac ID =   33377                 3.4887E-01 -8.8379E-01 -5.2400E-02  9.5160E-01
                               -3.7401E-01  1.0607E+01 -4.6921E+01  2.5147E+03

           1    1.20038E+00    -3.2437E-02 -4.9930E-04  1.2889E-01  1.3291E-01
ac ID =   33377                -1.5665E-01 -1.1826E+00  9.1264E-03  1.1930E+00
                               -3.7403E-01  1.0610E+01 -4.6927E+01  2.5147E+03

           1    1.30037E+00    -1.0885E-02  4.7308E-03  7.4769E-02  7.5705E-02
ac ID =   33377                -3.0118E-01 -8.8576E-01  1.7411E-02  9.3573E-01
                               -3.7407E-01  1.0612E+01 -4.6933E+01  2.5147E+03

           1    1.40036E+00     7.7420E-03  3.3747E-03  1.7367E-01  1.7388E-01
ac ID =   33377                -2.9110E-01 -8.3579E-01  3.1201E-02  8.8558E-01
                               -3.7409E-01  1.0616E+01 -4.6941E+01  2.5147E+03

           1    1.50035E+00    -2.7010E-02  1.0968E-03  3.2857E-01  3.2968E-01
ac ID =   33377                -2.2032E-02 -1.5800E+00 -4.4934E-02  1.5807E+00
                               -3.7413E-01  1.0620E+01 -4.6949E+01  2.5147E+03

           1    1.60034E+00    -1.8905E-02 -2.2773E-03  2.2102E-01  2.2184E-01
ac ID =   33377                -1.9601E-02 -1.3732E+00 -8.7744E-03  1.3733E+00
                               -3.7420E-01  1.0624E+01 -4.6957E+01  2.5147E+03

           1    1.70033E+00    -2.8270E-03 -5.7135E-04  5.8389E-02  5.8460E-02
ac ID =   33377                -4.5151E-02 -6.6880E-01  8.6752E-02  6.7592E-01
                               -3.7427E-01  1.0627E+01 -4.6965E+01  2.5147E+03

           1    1.80032E+00    -1.9975E-02  9.8000E-04  7.7890E-02  8.0416E-02
ac ID =   33377                 8.4719E-02 -1.1159E+00  1.2434E-01  1.1260E+00
                               -3.7434E-01  1.0632E+01 -4.6974E+01  2.5147E+03

           1    1.90031E+00    -7.8777E-03 -2.8437E-03  1.9164E-01  1.9182E-01
ac ID =   33377                 2.6956E-01 -8.1710E-01 -7.2161E-02  8.6344E-01
                               -3.7439E-01  1.0636E+01 -4.6984E+01  2.5147E+03

           1    2.00030E+00    -2.0070E-03 -4.2601E-03  1.5597E-01  1.5604E-01
ac ID =   33377                 2.0278E-01 -4.4048E-01 -1.4218E-01  5.0533E-01
                               -3.7444E-01  1.0641E+01 -4.6993E+01  2.5147E+03

           1    2.10029E+00    -2.4996E-02  2.1463E-03  3.2791E-03  2.5301E-02
ac ID =   33377                -7.5708E-02 -6.9465E-01  4.0464E-02  6.9993E-01
                               -3.7450E-01  1.0645E+01 -4.7003E+01  2.5147E+03

           1    2.20028E+00    -1.3137E-02  5.1428E-03  3.0571E-03  1.4435E-02
ac ID =   33377                -2.3763E-01 -6.5088E-01  2.3213E-02  6.9329E-01
                               -3.7456E-01  1.0650E+01 -4.7013E+01  2.5147E+03

           1    2.30027E+00     1.2535E-03  4.5818E-03  1.4880E-01  1.4887E-01
ac ID =   33377                -1.5020E-01 -8.1600E-01 -6.2935E-02  8.3210E-01
                               -3.7462E-01  1.0655E+01 -4.7024E+01  2.5147E+03

           1    2.40026E+00    -1.7760E-02 -1.5851E-03  1.8884E-01  1.8968E-01
ac ID =   33377                -1.5087E-01 -1.1895E+00  7.3433E-02  1.2013E+00
                               -3.7469E-01  1.0661E+01 -4.7035E+01  2.5147E+03

           1    2.50025E+00    -1.8653E-02  1.2342E-03 -2.7296E-04  1.8696E-02
ac ID =   33377                -2.0063E-01 -8.9173E-01  1.3709E-01  9.2424E-01
                               -3.7479E-01  1.0665E+01 -4.7045E+01  2.5147E+03

           1    2.60024E+00    -7.0226E-03  5.8826E-03 -7.6451E-02  7.6997E-02
ac ID =   33377                -2.0829E-01 -1.8496E-01  4.1052E-02  2.8157E-01
                               -3.7490E-01  1.0671E+01 -4.7056E+01  2.5147E+03

           1    2.70023E+00    -1.1900E-02 -1.9068E-03  9.9045E-03  1.5600E-02
ac ID =   33377                 2.9401E-02 -2.1271E-01  3.5072E-02  2.1758E-01
                               -3.7501E-01  1.0676E+01 -4.7068E+01  2.5147E+03

           1    2.80022E+00    -5.3958E-03 -4.6042E-03  6.3459E-02  6.3854E-02
ac ID =   33377                 3.6753E-01 -1.4166E-01 -1.3195E-02  3.9411E-01
                               -3.7511E-01  1.0682E+01 -4.7079E+01  2.5147E+03

           1    2.90021E+00     5.6047E-03 -2.6909E-03 -9.8554E-03  1.1653E-02
ac ID =   33377                 1.4697E-01  3.1004E-01 -8.5341E-02  3.5357E-01
                               -3.7520E-01  1.0687E+01 -4.7090E+01  2.5147E+03

           1    3.00020E+00    -7.3550E-03  1.8661E-03 -8.8656E-02  8.8980E-02
ac ID =   33377                -3.2927E-02  7.8739E-02 -5.0892E-02  9.9368E-02
                               -3.7530E-01  1.0692E+01 -4.7101E+01  2.5147E+03

           1    3.10019E+00    -3.3551E-03  4.8221E-04 -9.1769E-03  9.7829E-03
ac ID =   33377                 3.8557E-02 -2.4991E-01 -2.7636E-02  2.5437E-01
                               -3.7538E-01  1.0698E+01 -4.7113E+01  2.5147E+03

           1    3.20018E+00     3.7031E-03  2.0560E-03  6.9690E-02  6.9818E-02
ac ID =   33377                -1.8973E-02 -3.4232E-01  2.6244E-02  3.4385E-01
                               -3.7545E-01  1.0703E+01 -4.7125E+01  2.5147E+03

           1    3.30017E+00     6.0083E-04  1.0303E-03  1.3450E-02  1.3503E-02
ac ID =   33377                -2.3047E-01 -3.6181E-01  1.0790E-01  4.4234E-01
                               -3.7554E-01  1.0708E+01 -4.7137E+01  2.5147E+03

           1    3.40016E+00    -2.5194E-03  2.7804E-03 -1.0130E-01  1.0137E-01
ac ID =   33377                -3.0864E-01 -3.2067E-02  1.1907E-01  3.3236E-01
                               -3.7565E-01  1.0713E+01 -4.7148E+01  2.5147E+03

           1    3.50015E+00    -4.9123E-03  3.2792E-03 -1.3144E-01  1.3157E-01
ac ID =   33377                -1.5865E-01  2.7175E-01  4.8385E-02  3.1837E-01
                               -3.7576E-01  1.0719E+01 -4.7160E+01  2.5147E+03

           1    3.60014E+00     5.5717E-03 -3.0965E-03 -5.3037E-02  5.3419E-02
ac ID =   33377                 1.2122E-01  7.4762E-01 -9.5039E-02  7.6333E-01
                               -3.7586E-01  1.0724E+01 -4.7172E+01  2.5147E+03

           1    3.70013E+00     1.0682E-02 -5.0112E-03 -4.6376E-02  4.7854E-02
ac ID =   33377                 3.1024E-01  8.6162E-01 -1.6556E-01  9.3061E-01
                               -3.7596E-01  1.0729E+01 -4.7183E+01  2.5147E+03

           1    3.80012E+00     8.7320E-03 -2.8302E-03 -1.3048E-01  1.3080E-01
ac ID =   33377                 2.5192E-01  1.1015E+00 -6.1864E-02  1.1316E+00
                               -3.7605E-01  1.0734E+01 -4.7195E+01  2.5147E+03

           1    3.90011E+00     1.0299E-02 -2.0541E-04 -1.9318E-01  1.9346E-01
ac ID =   33377                 1.6873E-01  1.1633E+00 -6.1995E-02  1.1771E+00
                               -3.7613E-01  1.0739E+01 -4.7206E+01  2.5147E+03

           1    4.00010E+00     6.9419E-03 -3.9138E-04 -1.4136E-01  1.4153E-01
ac ID =   33377                -4.9229E-02  7.8042E-01 -5.4624E-02  7.8387E-01
                               -3.7618E-01  1.0744E+01 -4.7217E+01  2.5147E+03

           1    4.10009E+00     1.2524E-02 -2.1195E-04 -1.0938E-01  1.1009E-01
ac ID =   33377                -8.0979E-02  6.6720E-01  2.6125E-03  6.7211E-01
                               -3.7623E-01  1.0749E+01 -4.7228E+01  2.5147E+03

           1    4.20008E+00     1.0697E-02  3.1743E-03 -1.6107E-01  1.6146E-01
ac ID =   33377                -2.0707E-01  7.3403E-01  1.3322E-01  7.7422E-01
                               -3.7628E-01  1.0753E+01 -4.7239E+01  2.5147E+03

           1    4.30007E+00     1.6496E-02  6.6223E-03 -2.6623E-01  2.6683E-01
ac ID =   33377                -3.6775E-01  1.2604E+00  1.2357E-01  1.3187E+00
                               -3.7634E-01  1.0758E+01 -4.7249E+01  2.5147E+03

           1    4.40006E+00     2.9196E-02  4.7068E-03 -2.3944E-01  2.4126E-01
ac ID =   33377                -1.5816E-01  1.6451E+00  3.6481E-02  1.6531E+00
                               -3.7640E-01  1.0763E+01 -4.7260E+01  2.5147E+03

           1    4.50005E+00     3.0542E-02 -4.4027E-03 -1.6135E-01  1.6427E-01
ac ID =   33377                 2.8441E-01  1.5061E+00 -1.1311E-01  1.5369E+00
                               -3.7644E-01  1.0768E+01 -4.7271E+01  2.5147E+03

           1    4.60004E+00     3.4808E-02 -3.3262E-03 -2.0829E-01  2.1121E-01
ac ID =   33377                 2.9648E-01  1.6291E+00 -1.3720E-01  1.6615E+00
                               -3.7647E-01  1.0774E+01 -4.7281E+01  2.5147E+03

           1    4.70003E+00     3.9444E-02  2.8042E-03 -2.9928E-01  3.0188E-01
ac ID =   33377                 1.6928E-01  1.6393E+00 -3.1943E-02  1.6483E+00
                               -3.7649E-01  1.0779E+01 -4.7291E+01  2.5147E+03

           1    4.80002E+00     4.1258E-02  7.9275E-04 -3.3556E-01  3.3808E-01
ac ID =   33377                 1.0767E-01  1.6808E+00  3.2996E-04  1.6842E+00
                               -3.7649E-01  1.0786E+01 -4.7302E+01  2.5147E+03

           1    4.90001E+00     4.5226E-02  3.5877E-05 -2.7296E-01  2.7668E-01
ac ID =   33377                -1.2847E-02  1.6614E+00 -4.8746E-03  1.6614E+00
                               -3.7643E-01  1.0793E+01 -4.7312E+01  2.5147E+03

           1    5.00000E+00     5.2294E-02  2.5159E-03 -2.7168E-01  2.7668E-01
ac ID =   33377                -3.1380E-01  1.8271E+00 -6.5783E-02  1.8550E+00
                               -3.7638E-01  1.0801E+01 -4.7323E+01  2.5147E+03

           1    5.10049E+00     5.8348E-02  1.0190E-02 -3.7012E-01  3.7482E-01
ac ID =   33377                -4.7607E-01  2.1015E+00  3.2063E-02  2.1550E+00
                               -3.7635E-01  1.0809E+01 -4.7333E+01  2.5147E+03

           1    5.20048E+00     6.3974E-02  1.9731E-03 -3.9727E-01  4.0239E-01
ac ID =   33377                -2.8129E-01  2.3745E+00  6.1720E-02  2.3919E+00
                               -3.7631E-01  1.0819E+01 -4.7343E+01  2.5147E+03

           1    5.30047E+00     7.3036E-02  5.3164E-03 -3.8655E-01  3.9343E-01
ac ID =   33377                -3.3245E-01  2.5279E+00  3.0602E-02  2.5499E+00
                               -3.7628E-01  1.0829E+01 -4.7354E+01  2.5147E+03

           1    5.40046E+00     8.0765E-02  3.9226E-03 -3.8560E-01  3.9399E-01
ac ID =   33377                 1.0485E-02  2.6621E+00 -3.1609E-02  2.6623E+00
                               -3.7626E-01  1.0841E+01 -4.7365E+01  2.5147E+03

           1    5.50045E+00     8.3557E-02 -5.0157E-03 -4.7342E-01  4.8077E-01
ac ID =   33377                 2.1868E-01  2.9561E+00 -9.6361E-02  2.9658E+00
                               -3.7622E-01  1.0854E+01 -4.7376E+01  2.5147E+03

           1    5.60044E+00     8.2241E-02  1.7369E-03 -5.5885E-01  5.6487E-01
ac ID =   33377                 8.5961E-02  3.1645E+00 -1.2582E-02  3.1657E+00
                               -3.7617E-01  1.0869E+01 -4.7388E+01  2.5147E+03

           1    5.70043E+00     9.1313E-02  2.5191E-03 -5.7388E-01  5.8111E-01
ac ID =   33377                -8.8401E-02  3.2723E+00  4.0109E-02  3.2737E+00
                               -3.7609E-01  1.0885E+01 -4.7400E+01  2.5147E+03

           1    5.80042E+00     9.8952E-02  4.6196E-03 -5.4141E-01  5.5039E-01
ac ID =   33377                -6.2355E-02  3.3350E+00  4.0242E-02  3.3358E+00
                               -3.7601E-01  1.0903E+01 -4.7412E+01  2.5147E+03

           1    5.90041E+00     1.0861E-01  2.3929E-03 -5.6866E-01  5.7895E-01
ac ID =   33377                -2.6142E-01  3.6808E+00 -2.4451E-02  3.6902E+00
                               -3.7589E-01  1.0923E+01 -4.7424E+01  2.5147E+03

           1    6.00040E+00     1.0360E-01  8.9481E-03 -6.4347E-01  6.5182E-01
ac ID =   33377                -6.0579E-01  3.7786E+00 -1.1755E-01  3.8286E+00
                               -3.7577E-01  1.0944E+01 -4.7437E+01  2.5147E+03

           1    6.10039E+00     1.1507E-01  8.6173E-03 -6.5674E-01  6.6680E-01
ac ID =   33377                -3.4284E-01  3.6810E+00 -1.5861E-01  3.7004E+00
                               -3.7569E-01  1.0967E+01 -4.7450E+01  2.5147E+03

           1    6.20038E+00     1.2173E-01 -4.4614E-04 -6.4175E-01  6.5319E-01
ac ID =   33377                -3.1450E-01  3.7226E+00 -1.2789E-01  3.7380E+00
                               -3.7555E-01  1.0993E+01 -4.7464E+01  2.5147E+03

           1    6.30037E+00     1.2134E-01  3.6871E-03 -6.8043E-01  6.9118E-01
ac ID =   33377                -1.0173E-01  3.6618E+00 -8.2211E-02  3.6641E+00
                               -3.7543E-01  1.1020E+01 -4.7478E+01  2.5147E+03

           1    6.40036E+00     1.2058E-01  3.4437E-03 -7.8115E-01  7.9041E-01
ac ID =   33377                -1.3106E-01  4.1839E+00  2.2971E-02  4.1860E+00
                               -3.7530E-01  1.1050E+01 -4.7493E+01  2.5147E+03

           1    6.50035E+00     1.3561E-01 -6.9965E-04 -8.4406E-01  8.5489E-01
ac ID =   33377                 7.7276E-02  4.5630E+00 -1.9025E-01  4.5676E+00
                               -3.7512E-01  1.1082E+01 -4.7508E+01  2.5147E+03

           1    6.60034E+00     1.4755E-01  5.7238E-03 -8.4272E-01  8.5556E-01
ac ID =   33377                -3.8190E-01  4.9608E+00 -1.7719E-01  4.9787E+00
                               -3.7489E-01  1.1116E+01 -4.7524E+01  2.5147E+03

           1    6.70033E+00     1.3904E-01  3.2701E-03 -8.5405E-01  8.6530E-01
ac ID =   33377                -2.3634E-01  4.9199E+00 -7.4818E-02  4.9261E+00
                               -3.7468E-01  1.1153E+01 -4.7540E+01  2.5147E+03

           1    6.80032E+00     1.5164E-01  3.3005E-03 -9.0914E-01  9.2170E-01
ac ID =   33377                -3.1254E-01  5.2133E+00  2.6240E-01  5.2293E+00
                               -3.7444E-01  1.1193E+01 -4.7557E+01  2.5147E+03

           1    6.90031E+00     1.5998E-01  1.2855E-02 -9.8471E-01  9.9771E-01
ac ID =   33377                -8.7447E-01  5.5249E+00  1.1149E-01  5.5948E+00
                               -3.7415E-01  1.1234E+01 -4.7574E+01  2.5147E+03

           1    7.00030E+00     1.5382E-01  6.7487E-03 -9.9639E-01  1.0082E+00
ac ID =   33377                -5.6569E-01  5.3325E+00 -2.0943E-01  5.3665E+00
                               -3.7391E-01  1.1279E+01 -4.7592E+01  2.5147E+03

           1    7.10029E+00     1.5707E-01  4.9512E-03 -1.0381E+00  1.0500E+00
ac ID =   33377                -3.8198E-01  5.4587E+00 -1.1478E-01  5.4733E+00
                               -3.7359E-01  1.1326E+01 -4.7610E+01  2.5147E+03

           1    7.20028E+00     1.6477E-01  3.1044E-03 -1.1154E+00  1.1275E+00
ac ID =   33377                -3.7030E-01  5.7370E+00 -7.3056E-02  5.7494E+00
                               -3.7326E-01  1.1376E+01 -4.7629E+01  2.5147E+03

           1    7.30027E+00     1.7502E-01  1.5776E-02 -1.2038E+00  1.2165E+00
ac ID =   33377                -5.4408E-01  6.5088E+00  4.7762E-02  6.5316E+00
                               -3.7292E-01  1.1428E+01 -4.7648E+01  2.5147E+03

           1    7.40026E+00     1.7335E-01  2.6817E-03 -1.2589E+00  1.2708E+00
ac ID =   33377                -5.4873E-02  6.7477E+00  6.0591E-02  6.7482E+00
                               -3.7253E-01  1.1483E+01 -4.7668E+01  2.5147E+03

           1    7.50025E+00     1.8680E-01 -5.2282E-04 -1.2781E+00  1.2917E+00
ac ID =   33377                -2.2588E-01  7.2573E+00 -1.0692E-01  7.2616E+00
                               -3.7204E-01  1.1540E+01 -4.7687E+01  2.5147E+03

           1    7.60024E+00     1.9611E-01  6.9155E-03 -1.3030E+00  1.3177E+00
ac ID =   33377                -3.7466E-01  7.4310E+00 -2.9490E-01  7.4463E+00
                               -3.7157E-01  1.1600E+01 -4.7707E+01  2.5147E+03

           1    7.70023E+00     1.8900E-01  1.6536E-02 -1.3661E+00  1.3792E+00
ac ID =   33377                -7.0256E-01  7.1499E+00 -8.5880E-02  7.1849E+00
                               -3.7105E-01  1.1663E+01 -4.7727E+01  2.5147E+03

           1    7.80022E+00     1.9660E-01 -6.1424E-03 -1.4370E+00  1.4504E+00
ac ID =   33377                -3.7603E-01  7.5604E+00 -2.6286E-02  7.5698E+00
                               -3.7044E-01  1.1728E+01 -4.7747E+01  2.5147E+03

           1    7.90021E+00     1.9541E-01  6.4216E-03 -1.4457E+00  1.4589E+00
ac ID =   33377                -5.3624E-01  7.4915E+00 -4.2516E-02  7.5108E+00
                               -3.6991E-01  1.1796E+01 -4.7768E+01  2.5147E+03

           1    8.00020E+00     2.1186E-01  1.5269E-02 -1.5121E+00  1.5269E+00
ac ID =   33377                -6.8401E-01  8.2204E+00  8.2189E-02  8.2492E+00
                               -3.6938E-01  1.1866E+01 -4.7788E+01  2.5147E+03

           1    8.10019E+00     2.1482E-01  1.2117E-02 -1.6220E+00  1.6362E+00
ac ID =   33377                -6.1012E-01  8.4816E+00  8.6138E-02  8.5039E+00
                               -3.6877E-01  1.1939E+01 -4.7808E+01  2.5147E+03

           1    8.20018E+00     2.2740E-01  7.3420E-03 -1.6810E+00  1.6963E+00
ac ID =   33377                -3.3590E-01  9.0314E+00 -9.8820E-02  9.0382E+00
                               -3.6811E-01  1.2014E+01 -4.7828E+01  2.5147E+03

           1    8.30017E+00     2.3594E-01  6.0367E-03 -1.7281E+00  1.7441E+00
ac ID =   33377                -4.6598E-01  9.4907E+00 -2.0633E-03  9.5021E+00
                               -3.6731E-01  1.2092E+01 -4.7848E+01  2.5147E+03

           1    8.40016E+00     2.3757E-01  1.3006E-02 -1.7780E+00  1.7938E+00
ac ID =   33377                -5.7809E-01  9.8469E+00  1.5928E-01  9.8652E+00
                               -3.6650E-01  1.2173E+01 -4.7867E+01  2.5147E+03

           1    8.50015E+00     2.4425E-01  6.8648E-04 -1.8488E+00  1.8649E+00
ac ID =   33377                -3.7218E-01  1.0326E+01  7.7483E-02  1.0333E+01
                               -3.6564E-01  1.2256E+01 -4.7886E+01  2.5147E+03

           1    8.60014E+00     2.5230E-01  1.6248E-02 -1.9346E+00  1.9510E+00
ac ID =   33377                -8.0264E-01  1.0623E+01 -1.5551E-01  1.0654E+01
                               -3.6476E-01  1.2341E+01 -4.7905E+01  2.5147E+03

           1    8.70013E+00     2.5554E-01  1.2700E-02 -1.9958E+00  2.0122E+00
ac ID =   33377                -8.6214E-01  1.1035E+01 -4.4294E-01  1.1078E+01
                               -3.6379E-01  1.2429E+01 -4.7923E+01  2.5147E+03

           1    8.80012E+00     2.5886E-01  1.1898E-02 -2.0505E+00  2.0668E+00
ac ID =   33377                -7.2549E-01  1.1140E+01 -2.7175E-01  1.1167E+01
                               -3.6280E-01  1.2519E+01 -4.7941E+01  2.5147E+03

           1    8.90011E+00     2.6335E-01  6.8529E-03 -2.1352E+00  2.1514E+00
ac ID =   33377                -7.9444E-01  1.1788E+01  1.8324E-01  1.1817E+01
                               -3.6175E-01  1.2612E+01 -4.7958E+01  2.5147E+03

           1    9.00010E+00     2.8659E-01  2.0269E-02 -2.2194E+00  2.2379E+00
ac ID =   33377                -8.7893E-01  1.2440E+01  3.7052E-01  1.2477E+01
                               -3.6068E-01  1.2707E+01 -4.7974E+01  2.5147E+03

           1    9.10009E+00     2.9315E-01  4.3981E-03 -2.2688E+00  2.2877E+00
ac ID =   33377                -6.0887E-01  1.2884E+01  4.7787E-02  1.2899E+01
                               -3.5954E-01  1.2804E+01 -4.7989E+01  2.5147E+03

           1    9.20008E+00     3.0222E-01  7.6866E-03 -2.3282E+00  2.3478E+00
ac ID =   33377                -5.5474E-01  1.3279E+01 -1.2989E-01  1.3291E+01
                               -3.5833E-01  1.2904E+01 -4.8003E+01  2.5147E+03

           1    9.30007E+00     3.0325E-01  5.8799E-03 -2.3908E+00  2.4100E+00
ac ID =   33377                -6.6524E-01  1.3446E+01 -2.2737E-01  1.3464E+01
                               -3.5708E-01  1.3006E+01 -4.8017E+01  2.5147E+03

           1    9.40006E+00     3.0569E-01  1.0544E-02 -2.4685E+00  2.4874E+00
ac ID =   33377                -7.5174E-01  1.3792E+01 -9.0651E-02  1.3813E+01
                               -3.5584E-01  1.3110E+01 -4.8029E+01  2.5147E+03

           1    9.50005E+00     3.1488E-01  1.0279E-02 -2.5366E+00  2.5561E+00
ac ID =   33377                -7.9707E-01  1.4437E+01  1.2704E-01  1.4460E+01
                               -3.5453E-01  1.3216E+01 -4.8040E+01  2.5147E+03

           1    9.60004E+00     3.3170E-01  8.2290E-03 -2.5854E+00  2.6066E+00
ac ID =   33377                -6.9422E-01  1.5055E+01 -9.8481E-02  1.5072E+01
                               -3.5316E-01  1.3324E+01 -4.8049E+01  2.5147E+03

           1    9.70003E+00     3.3210E-01  1.0549E-02 -2.6219E+00  2.6429E+00
ac ID =   33377                -9.0636E-01  1.5464E+01 -8.4586E-02  1.5491E+01
                               -3.5179E-01  1.3434E+01 -4.8058E+01  2.5147E+03

           1    9.80002E+00     3.3215E-01  8.0091E-03 -2.6769E+00  2.6975E+00
ac ID =   33377                -9.2764E-01  1.5877E+01 -6.6604E-02  1.5905E+01
                               -3.5037E-01  1.3546E+01 -4.8065E+01  2.5147E+03

           1    9.90001E+00     3.5187E-01 -6.3152E-04 -2.7498E+00  2.7722E+00
ac ID =   33377                -6.4252E-01  1.6384E+01 -5.9672E-02  1.6396E+01
                               -3.4889E-01  1.3660E+01 -4.8070E+01  2.5147E+03

           1    1.00005E+01     3.5218E-01  5.4368E-03 -2.8194E+00  2.8413E+00
ac ID =   33377                -7.6352E-01  1.7034E+01 -2.4830E-02  1.7051E+01
                               -3.4736E-01  1.3776E+01 -4.8073E+01  2.5147E+03

           1    1.01005E+01     3.4865E-01  7.6884E-03 -2.8644E+00  2.8855E+00
ac ID =   33377                -7.5127E-01  1.7274E+01  1.5376E-01  1.7291E+01
                               -3.4578E-01  1.3894E+01 -4.8075E+01  2.5147E+03

           1    1.02005E+01     3.6509E-01  6.8351E-03 -2.9265E+00  2.9492E+00
ac ID =   33377                -7.6127E-01  1.7910E+01  1.5137E-01  1.7927E+01
                               -3.4413E-01  1.4012E+01 -4.8074E+01  2.5147E+03

           1    1.03005E+01     3.7101E-01  6.2108E-04 -3.0007E+00  3.0235E+00
ac ID =   33377                -6.6566E-01  1.8508E+01  6.9926E-02  1.8520E+01
                               -3.4238E-01  1.4132E+01 -4.8071E+01  2.5147E+03

           1    1.04005E+01     3.5859E-01  5.9267E-03 -3.0431E+00  3.0641E+00
ac ID =   33377                -8.0737E-01  1.8608E+01 -7.4985E-02  1.8625E+01
                               -3.4062E-01  1.4253E+01 -4.8066E+01  2.5147E+03

           1    1.05004E+01     3.6745E-01  1.6306E-02 -3.0583E+00  3.0803E+00
ac ID =   33377                -7.9866E-01  1.8700E+01 -4.2133E-01  1.8722E+01
                               -3.3876E-01  1.4376E+01 -4.8058E+01  2.5147E+03

           1    1.06004E+01     3.7515E-01  4.9330E-03 -3.0692E+00  3.0921E+00
ac ID =   33377                -8.2056E-01  1.8999E+01 -2.2110E-01  1.9018E+01
                               -3.3673E-01  1.4499E+01 -4.8048E+01  2.5147E+03

           1    1.07004E+01     3.8258E-01  5.3736E-03 -3.1114E+00  3.1349E+00
ac ID =   33377                -5.5287E-01  1.9096E+01 -1.4248E-02  1.9104E+01
                               -3.3472E-01  1.4623E+01 -4.8034E+01  2.5147E+03

           1    1.08004E+01     3.6803E-01 -3.0678E-04 -3.1620E+00  3.1833E+00
ac ID =   33377                -6.4485E-01  1.9069E+01  1.3694E-01  1.9080E+01
                               -3.3261E-01  1.4748E+01 -4.8017E+01  2.5147E+03

           1    1.09004E+01     3.8266E-01  8.3524E-04 -3.2066E+00  3.2293E+00
ac ID =   33377                -5.2899E-01  1.9564E+01 -5.5712E-03  1.9571E+01
                               -3.3041E-01  1.4873E+01 -4.7998E+01  2.5147E+03

           1    1.10004E+01     4.0413E-01  2.3610E-03 -3.2503E+00  3.2753E+00
ac ID =   33377                -4.4421E-01  2.0243E+01 -3.1493E-01  2.0250E+01
                               -3.2814E-01  1.4999E+01 -4.7975E+01  2.5147E+03

           1    1.11004E+01     4.0525E-01  3.5654E-03 -3.2996E+00  3.3244E+00
ac ID =   33377                -4.7494E-01  2.0761E+01 -3.1065E-01  2.0769E+01
                               -3.2582E-01  1.5125E+01 -4.7949E+01  2.5147E+03

           1    1.12004E+01     4.0392E-01 -1.7646E-03 -3.3259E+00  3.3503E+00
ac ID =   33377                -2.9960E-01  2.1313E+01 -1.6337E-01  2.1316E+01
                               -3.2342E-01  1.5252E+01 -4.7919E+01  2.5147E+03

           1    1.13004E+01     4.3406E-01 -2.4016E-04 -3.3504E+00  3.3784E+00
ac ID =   33377                -3.2917E-01  2.2179E+01 -6.4726E-02  2.2181E+01
                               -3.2097E-01  1.5380E+01 -4.7887E+01  2.5147E+03

           1    1.14004E+01     4.2527E-01  3.5885E-03 -3.3571E+00  3.3839E+00
ac ID =   33377                -3.0976E-01  2.1964E+01  1.1226E-01  2.1966E+01
                               -3.1846E-01  1.5508E+01 -4.7852E+01  2.5147E+03

           1    1.15003E+01     4.2366E-01 -8.3885E-03 -3.3743E+00  3.4008E+00
ac ID =   33377                -3.7753E-01  2.2123E+01  2.8405E-01  2.2128E+01
                               -3.1585E-01  1.5638E+01 -4.7813E+01  2.5147E+03

           1    1.16003E+01     4.2579E-01  9.5077E-04 -3.4069E+00  3.4334E+00
ac ID =   33377                -7.1127E-02  2.2614E+01 -1.0584E-01  2.2614E+01
                               -3.1324E-01  1.5767E+01 -4.7771E+01  2.5147E+03

           1    1.17003E+01     4.4268E-01  1.4689E-03 -3.4425E+00  3.4709E+00
ac ID =   33377                -3.7894E-01  2.3357E+01 -1.8566E-01  2.3361E+01
                               -3.1053E-01  1.5897E+01 -4.7726E+01  2.5147E+03

           1    1.18003E+01     4.3308E-01  5.1899E-03 -3.4590E+00  3.4860E+00
ac ID =   33377                -4.3387E-01  2.3438E+01  1.1759E-02  2.3442E+01
                               -3.0779E-01  1.6028E+01 -4.7678E+01  2.5147E+03

           1    1.19003E+01     4.4865E-01 -7.5064E-03 -3.4557E+00  3.4847E+00
ac ID =   33377                 6.7668E-02  2.4113E+01 -8.3323E-02  2.4113E+01
                               -3.0495E-01  1.6158E+01 -4.7626E+01  2.5147E+03

           1    1.20003E+01     4.5541E-01 -1.8186E-03 -3.4539E+00  3.4838E+00
ac ID =   33377                 6.4505E-02  2.4549E+01 -1.7897E-01  2.4550E+01
                               -3.0206E-01  1.6289E+01 -4.7571E+01  2.5147E+03

           1    1.21003E+01     4.5334E-01  2.7743E-03 -3.4560E+00  3.4856E+00
ac ID =   33377                -1.6938E-01  2.4562E+01 -3.3773E-02  2.4563E+01
                               -2.9911E-01  1.6421E+01 -4.7513E+01  2.5147E+03

           1    1.22003E+01     4.4650E-01 -1.8465E-03 -3.4226E+00  3.4516E+00
ac ID =   33377                 6.5579E-02  2.4443E+01  2.3921E-01  2.4444E+01
                               -2.9610E-01  1.6552E+01 -4.7451E+01  2.5147E+03

           1    1.23003E+01     4.5819E-01 -1.7083E-02 -3.3847E+00  3.4157E+00
ac ID =   33377                 3.8379E-01  2.4380E+01 -1.5526E-02  2.4383E+01
                               -2.9295E-01  1.6684E+01 -4.7386E+01  2.5147E+03

           1    1.24003E+01     4.6009E-01 -3.9811E-04 -3.3765E+00  3.4077E+00
ac ID =   33377                -2.8198E-01  2.4484E+01 -1.0084E-01  2.4486E+01
                               -2.8979E-01  1.6816E+01 -4.7317E+01  2.5147E+03

           1    1.25002E+01     4.5476E-01  7.7545E-03 -3.3654E+00  3.3960E+00
ac ID =   33377                -2.7707E-01  2.4493E+01 -2.5588E-02  2.4495E+01
                               -2.8656E-01  1.6948E+01 -4.7245E+01  2.5147E+03

           1    1.26002E+01     4.5234E-01 -1.3319E-02 -3.3299E+00  3.3605E+00
ac ID =   33377                 1.9552E-01  2.4507E+01 -2.4548E-01  2.4509E+01
                               -2.8327E-01  1.7080E+01 -4.7170E+01  2.5147E+03

           1    1.27002E+01     4.6728E-01  4.0709E-03 -3.2987E+00  3.3316E+00
ac ID =   33377                -1.2780E-02  2.4891E+01 -1.8474E-01  2.4891E+01
                               -2.7994E-01  1.7212E+01 -4.7091E+01  2.5147E+03

           1    1.28002E+01     4.6962E-01  8.0346E-03 -3.2694E+00  3.3030E+00
ac ID =   33377                -2.3186E-01  2.4965E+01 -2.8335E-01  2.4967E+01
                               -2.7654E-01  1.7344E+01 -4.7009E+01  2.5147E+03

           1    1.29002E+01     4.6182E-01 -7.9825E-03 -3.2344E+00  3.2672E+00
ac ID =   33377                 4.5750E-01  2.4717E+01 -3.3294E-01  2.4724E+01
                               -2.7313E-01  1.7476E+01 -4.6924E+01  2.5147E+03

           1    1.30002E+01     4.6826E-01 -6.6576E-03 -3.2117E+00  3.2457E+00
ac ID =   33377                 2.8230E-01  2.4882E+01 -2.5447E-01  2.4885E+01
                               -2.6963E-01  1.7608E+01 -4.6835E+01  2.5147E+03

           1    1.31002E+01     4.0827E-01  2.4941E-02 -3.0804E+00  3.1075E+00
ac ID =   33377                -3.3100E-01  2.4079E+01 -2.5241E-01  2.4083E+01
                               -2.6608E-01  1.7740E+01 -4.6744E+01  2.5147E+03

           1    1.32002E+01     4.0982E-01 -4.5387E-03 -2.9363E+00  2.9648E+00
ac ID =   33377                 4.7322E-01  2.2856E+01 -2.0768E-01  2.2862E+01
                               -2.6247E-01  1.7871E+01 -4.6648E+01  2.5147E+03

           1    1.33002E+01     4.4664E-01 -1.1436E-02 -3.0136E+00  3.0466E+00
ac ID =   33377                 1.7225E-01  2.4096E+01 -3.7256E-01  2.4099E+01
                               -2.5882E-01  1.8001E+01 -4.6548E+01  2.5147E+03

           1    1.34002E+01     3.9332E-01  2.9578E-02 -2.9252E+00  2.9517E+00
ac ID =   33377                -7.2417E-01  2.2522E+01  8.9520E-02  2.2534E+01
                               -2.5509E-01  1.8130E+01 -4.6444E+01  2.5147E+03

           1    1.35001E+01     3.9176E-01  1.3583E-02 -2.8753E+00  2.9019E+00
ac ID =   33377                -4.0115E-01  2.2030E+01 -3.6111E-01  2.2037E+01
                               -2.5132E-01  1.8258E+01 -4.6337E+01  2.5147E+03

           1    1.36001E+01     4.0628E-01 -5.8727E-03 -2.6968E+00  2.7272E+00
ac ID =   33377                 6.1154E-01  2.2904E+01 -7.0439E-01  2.2923E+01
                               -2.4747E-01  1.8385E+01 -4.6226E+01  2.5147E+03

           1    1.37001E+01     3.8902E-01  7.0681E-03 -2.6103E+00  2.6391E+00
ac ID =   33377                 8.0311E-02  2.0917E+01  4.9308E-02  2.0917E+01
                               -2.4354E-01  1.8510E+01 -4.6111E+01  2.5147E+03

           1    1.38001E+01     4.0575E-01  2.4018E-02 -2.7129E+00  2.7432E+00
ac ID =   33377                -5.8080E-01  2.2711E+01  4.1818E-02  2.2719E+01
                               -2.3962E-01  1.8635E+01 -4.5993E+01  2.5147E+03

           1    1.39001E+01     3.4627E-01 -5.2742E-03 -2.5021E+00  2.5259E+00
ac ID =   33377                 7.5591E-01  1.9844E+01  1.7815E-02  1.9859E+01
                               -2.3558E-01  1.8759E+01 -4.5871E+01  2.5147E+03

           1    1.40001E+01     3.8793E-01  5.2383E-04 -2.4023E+00  2.4334E+00
ac ID =   33377                 5.8579E-01  2.0849E+01 -3.5505E-01  2.0861E+01
                               -2.3149E-01  1.8882E+01 -4.5746E+01  2.5147E+03

           1    1.41001E+01     3.6535E-01  9.5208E-03 -2.3502E+00  2.3784E+00
ac ID =   33377                -3.6598E-01  1.9802E+01 -3.8938E-01  1.9809E+01
                               -2.2734E-01  1.9003E+01 -4.5618E+01  2.5147E+03

           1    1.42001E+01     3.7256E-01  3.0218E-02 -2.3084E+00  2.3385E+00
ac ID =   33377                -3.5835E-01  1.9745E+01 -4.7446E-01  1.9754E+01
                               -2.2324E-01  1.9125E+01 -4.5486E+01  2.5147E+03

           1    1.43001E+01     3.4024E-01  2.4735E-03 -2.1962E+00  2.2224E+00
ac ID =   33377                 1.7918E-01  1.9240E+01  1.7043E-02  1.9241E+01
                               -2.1897E-01  1.9245E+01 -4.5353E+01  2.5147E+03

           1    1.44001E+01     4.0197E-01  9.1125E-03 -2.1094E+00  2.1474E+00
ac ID =   33377                -8.0847E-02  1.9064E+01  2.9572E-01  1.9066E+01
                               -2.1475E-01  1.9365E+01 -4.5216E+01  2.5147E+03

           1    1.45000E+01     3.4381E-01  1.7497E-02 -2.0341E+00  2.0630E+00
ac ID =   33377                -3.3029E-01  1.9373E+01 -1.2297E-01  1.9376E+01
                               -2.1053E-01  1.9485E+01 -4.5078E+01  2.5147E+03

           1    1.46000E+01     3.1922E-01  1.1144E-02 -1.9143E+00  1.9408E+00
ac ID =   33377                 2.4256E-01  1.6166E+01 -2.7140E-01  1.6170E+01
                               -2.0622E-01  1.9603E+01 -4.4936E+01  2.5147E+03

           1    1.47000E+01     3.8179E-01 -1.2866E-02 -1.9540E+00  1.9910E+00
ac ID =   33377                 5.0419E-01  1.7892E+01 -2.6425E-01  1.7901E+01
                               -2.0190E-01  1.9722E+01 -4.4793E+01  2.5147E+03

           1    1.48005E+01     3.6116E-01  5.5303E-03 -1.8126E+00  1.8482E+00
ac ID =   33377                 4.9643E-01  1.6336E+01 -6.2575E-02  1.6344E+01
                               -1.9751E-01  1.9841E+01 -4.4648E+01  2.5147E+03

           1    1.49005E+01     2.7914E-01  3.2721E-02 -1.6595E+00  1.6831E+00
ac ID =   33377                -4.1464E-01  1.4275E+01  3.2895E-01  1.4285E+01
                               -1.9311E-01  1.9960E+01 -4.4501E+01  2.5147E+03

           1    1.50005E+01     3.4451E-01 -2.3271E-02 -1.5957E+00  1.6326E+00
ac ID =   33377                 1.0837E+00  1.5037E+01  6.7212E-02  1.5076E+01
                               -1.8862E-01  2.0078E+01 -4.4353E+01  2.5147E+03

           1    1.51005E+01     3.5179E-01 -4.6771E-03 -1.5678E+00  1.6068E+00
ac ID =   33377                 4.6221E-01  1.4250E+01 -3.0892E-01  1.4260E+01
                               -1.8413E-01  2.0196E+01 -4.4203E+01  2.5147E+03

           1    1.52005E+01     2.5683E-01  4.2287E-02 -1.4123E+00  1.4361E+00
ac ID =   33377                -8.7838E-01  1.2192E+01 -1.1326E-01  1.2224E+01
                               -1.7961E-01  2.0314E+01 -4.4052E+01  2.5147E+03

           1    1.53005E+01     2.8604E-01  8.5167E-03 -1.2583E+00  1.2905E+00
ac ID =   33377                 1.7136E-01  1.1260E+01  1.6835E-04  1.1261E+01
                               -1.7505E-01  2.0433E+01 -4.3900E+01  2.5147E+03

           1    1.54005E+01     3.0427E-01 -3.1735E-02 -1.2085E+00  1.2466E+00
ac ID =   33377                 1.5503E+00  1.1982E+01 -1.8676E-01  1.2083E+01
                               -1.7041E-01  2.0552E+01 -4.3748E+01  2.5147E+03

           1    1.55004E+01     2.2148E-01  2.2389E-02 -1.0992E+00  1.1215E+00
ac ID =   33377                -4.4387E-02  8.7538E+00  1.1955E-01  8.7547E+00
                               -1.6575E-01  2.0670E+01 -4.3593E+01  2.5147E+03

           1    1.56004E+01     2.3010E-01  2.7600E-02 -1.0622E+00  1.0872E+00
ac ID =   33377                 4.0329E-02  9.0251E+00 -4.7504E-01  9.0377E+00
                               -1.6119E-01  2.0789E+01 -4.3439E+01  2.5147E+03

           1    1.57004E+01     2.5880E-01 -3.0959E-02 -8.7596E-01  9.1391E-01
ac ID =   33377                 1.9668E+00  8.7083E+00  1.3201E-02  8.9276E+00
                               -1.5646E-01  2.0909E+01 -4.3284E+01  2.5147E+03

           1    1.58004E+01     1.9528E-01 -1.3180E-02 -7.9761E-01  8.2127E-01
ac ID =   33377                 9.3157E-01  6.9885E+00  8.6923E-02  7.0509E+00
                               -1.5164E-01  2.1029E+01 -4.3129E+01  2.5147E+03

           1    1.59004E+01     1.6889E-01  3.8820E-02 -7.1464E-01  7.3535E-01
ac ID =   33377                 9.9720E-02  6.5005E+00 -2.7231E-01  6.5070E+00
                               -1.4697E-01  2.1149E+01 -4.2973E+01  2.5147E+03

           1    1.60004E+01     2.1951E-01  1.3712E-03 -6.2774E-01  6.6502E-01
ac ID =   33377                 6.9055E-01  6.2630E+00 -1.0186E-02  6.3010E+00
                               -1.4212E-01  2.1269E+01 -4.2817E+01  2.5147E+03

           1    1.61004E+01     1.3625E-01 -3.6349E-02 -5.2701E-01  5.4555E-01
ac ID =   33377                 1.2904E+00  5.2639E+00  7.9584E-02  5.4204E+00
                               -1.3725E-01  2.1390E+01 -4.2660E+01  2.5147E+03

           1    1.62004E+01     1.1983E-01  3.3265E-02 -4.1978E-01  4.3781E-01
ac ID =   33377                -1.8083E-01  3.6442E+00  6.3455E-01  3.7035E+00
                               -1.3240E-01  2.1511E+01 -4.2504E+01  2.5147E+03

           1    1.63004E+01     1.5011E-01  1.0149E-02 -3.5275E-01  3.8349E-01
ac ID =   33377                 8.4264E-01  5.2721E+00 -1.8143E-01  5.3421E+00
                               -1.2759E-01  2.1632E+01 -4.2348E+01  2.5147E+03

           1    1.64004E+01     1.4754E-01 -2.4911E-02 -2.4981E-01  2.9119E-01
ac ID =   33377                 1.3825E+00  4.3743E+00 -3.3581E-01  4.5999E+00
                               -1.2261E-01  2.1754E+01 -4.2192E+01  2.5147E+03

           1    1.65003E+01     1.2448E-01 -1.3009E-02 -2.4644E-01  2.7640E-01
ac ID =   33377                 7.4980E-01  5.9002E+00 -2.3305E-01  5.9522E+00
                               -1.1766E-01  2.1876E+01 -4.2037E+01  2.5147E+03

           1    1.66003E+01     1.5344E-01  2.7404E-02 -1.2470E-01  1.9961E-01
ac ID =   33377                 4.6292E-01  6.3255E+00  4.1712E-01  6.3561E+00
                               -1.1280E-01  2.1999E+01 -4.1882E+01  2.5147E+03

           1    1.67003E+01     1.5053E-01 -1.9651E-02 -9.6160E-03  1.5211E-01
ac ID =   33377                 1.6201E+00  6.3137E+00  2.5197E-01  6.5231E+00
                               -1.0775E-01  2.2121E+01 -4.1727E+01  2.5147E+03

           1    1.68003E+01     1.2641E-01 -2.8644E-02  3.9577E-02  1.3553E-01
ac ID =   33377                 1.6721E+00  6.4142E+00 -5.9412E-01  6.6552E+00
                               -1.0264E-01  2.2244E+01 -4.1574E+01  2.5147E+03

           1    1.69003E+01     1.8548E-01  2.9736E-02  1.0963E-01  2.1750E-01
ac ID =   33377                 1.5860E-01  7.0379E+00 -3.7388E-01  7.0496E+00
                               -9.7639E-02  2.2367E+01 -4.1421E+01  2.5147E+03

           1    1.70003E+01     8.7831E-02 -1.2582E-02  2.2495E-01  2.4181E-01
ac ID =   33377                 1.0740E+00  6.7566E+00 -1.8999E-01  6.8441E+00
                               -9.2528E-02  2.2491E+01 -4.1269E+01  2.5147E+03

           1    1.71003E+01     1.6215E-01  4.6174E-03  2.8669E-01  3.2940E-01
ac ID =   33377                 1.3535E+00  8.0695E+00  3.5209E-01  8.1898E+00
                               -8.7359E-02  2.2614E+01 -4.1119E+01  2.5147E+03

           1    1.72003E+01     1.5049E-01 -1.4790E-02  3.7025E-01  3.9994E-01
ac ID =   33377                 1.2111E+00  8.4009E+00  2.7915E-01  8.4923E+00
                               -8.2154E-02  2.2738E+01 -4.0970E+01  2.5147E+03

           1    1.73003E+01     1.5804E-01  2.8670E-02  4.2832E-01  4.5745E-01
ac ID =   33377                 1.5037E-01  8.5632E+00 -2.4567E-01  8.5681E+00
                               -7.7049E-02  2.2862E+01 -4.0822E+01  2.5147E+03

           1    1.74003E+01     1.3548E-01 -1.0054E-02  4.7923E-01  4.9812E-01
ac ID =   33377                 1.2573E+00  8.2630E+00 -4.3637E-01  8.3695E+00
                               -7.1762E-02  2.2986E+01 -4.0677E+01  2.5147E+03

           1    1.75002E+01     1.3791E-01 -2.8340E-02  5.6252E-01  5.7987E-01
ac ID =   33377                 2.0331E+00  8.1497E+00  7.8866E-02  8.3999E+00
                               -6.6527E-02  2.3111E+01 -4.0533E+01  2.5147E+03

           1    1.76002E+01     1.7538E-01  2.2787E-02  6.3510E-01  6.5926E-01
ac ID =   33377                 4.1494E-01  8.6062E+00  4.5026E-01  8.6280E+00
                               -6.1259E-02  2.3235E+01 -4.0391E+01  2.5147E+03

           1    1.77002E+01     9.9730E-02 -6.7640E-03  6.8804E-01  6.9527E-01
ac ID =   33377                 1.1585E+00  7.2266E+00  1.0901E-01  7.3197E+00
                               -5.5947E-02  2.3361E+01 -4.0251E+01  2.5147E+03

           1    1.78002E+01     1.4310E-01 -2.4075E-02  7.2635E-01  7.4071E-01
ac ID =   33377                 1.7259E+00  7.6489E+00 -1.3609E-02  7.8412E+00
                               -5.0623E-02  2.3486E+01 -4.0113E+01  2.5147E+03

           1    1.79002E+01     1.2638E-01  2.4662E-04  8.0806E-01  8.1788E-01
ac ID =   33377                 7.7015E-01  7.6083E+00 -3.0344E-01  7.6532E+00
                               -4.5209E-02  2.3612E+01 -3.9978E+01  2.5147E+03

           1    1.80002E+01     7.5055E-02  1.9065E-02  8.5887E-01  8.6235E-01
ac ID =   33377                 4.9462E-01  6.0678E+00  9.8237E-03  6.0879E+00
                               -3.9918E-02  2.3738E+01 -3.9844E+01  2.5147E+03

           1    1.81002E+01     1.1847E-01 -1.5388E-02  8.9881E-01  9.0671E-01
ac ID =   33377                 1.3000E+00  6.8095E+00  3.4313E-03  6.9325E+00
                               -3.4549E-02  2.3865E+01 -3.9714E+01  2.5147E+03

           1    1.82002E+01     1.1429E-01 -7.5173E-03  9.3971E-01  9.4666E-01
ac ID =   33377                 1.1271E+00  6.4038E+00  2.1281E-01  6.5058E+00
                               -2.9133E-02  2.3992E+01 -3.9586E+01  2.5147E+03

           1    1.83002E+01     7.9697E-02  2.2011E-02  9.8156E-01  9.8504E-01
ac ID =   33377                 5.8880E-01  5.3397E+00  3.6294E-01  5.3843E+00
                               -2.3779E-02  2.4120E+01 -3.9461E+01  2.5147E+03

           1    1.84002E+01     5.5086E-02  4.3695E-03  1.0166E+00  1.0181E+00
ac ID =   33377                 9.3045E-01  4.4992E+00 -2.4068E-01  4.6007E+00
                               -1.8479E-02  2.4248E+01 -3.9338E+01  2.5147E+03

           1    1.85001E+01     9.6581E-02 -3.0879E-02  1.0752E+00  1.0800E+00
ac ID =   33377                 1.6889E+00  4.5940E+00 -2.7670E-01  4.9025E+00
                               -1.3011E-02  2.4377E+01 -3.9218E+01  2.5147E+03

           1    1.86001E+01     3.8566E-02  1.0302E-02  1.0772E+00  1.0779E+00
ac ID =   33377                 6.6596E-01  3.3868E+00  1.4772E-03  3.4516E+00
                               -7.6749E-03  2.4507E+01 -3.9101E+01  2.5147E+03

           1    1.87001E+01     3.8234E-02  1.9209E-02  1.1112E+00  1.1121E+00
ac ID =   33377                 4.4263E-01  2.6920E+00  6.0696E-01  2.7949E+00
                               -2.3010E-03  2.4637E+01 -3.8987E+01  2.5147E+03

           1    1.88001E+01     6.6536E-02 -9.6457E-03  1.1700E+00  1.1719E+00
ac ID =   33377                 1.3305E+00  3.2823E+00  4.7734E-01  3.5737E+00
                                3.1000E-03  2.4768E+01 -3.8875E+01  2.5147E+03

           1    1.89001E+01     4.3219E-02 -1.6934E-02  1.1591E+00  1.1600E+00
ac ID =   33377                 7.6138E-01  1.8490E+00 -9.6485E-02  2.0020E+00
                                8.5438E-03  2.4900E+01 -3.8767E+01  2.5147E+03

           1    1.90001E+01    -1.5554E-02  3.3481E-02  1.2125E+00  1.2131E+00
ac ID =   33377                 1.2472E-01  7.8303E-01 -7.1895E-01  1.0703E+00
                                1.3790E-02  2.5032E+01 -3.8662E+01  2.5147E+03

           1    1.91001E+01     6.0337E-02 -2.9232E-03  1.2148E+00  1.2163E+00
ac ID =   33377                 6.9859E-01  1.3934E+00 -2.3715E-02  1.5589E+00
                                1.9183E-02  2.5165E+01 -3.8559E+01  2.5147E+03

           1    1.92001E+01     6.3487E-03 -1.9592E-02  1.2333E+00  1.2335E+00
ac ID =   33377                 1.4016E+00  3.9039E-01  5.6448E-01  1.5606E+00
                                2.4493E-02  2.5299E+01 -3.8460E+01  2.5147E+03

           1    1.93001E+01     3.0316E-03  2.4362E-02  1.2636E+00  1.2639E+00
ac ID =   33377                 2.5317E-01 -6.2070E-01  2.0809E-01  7.0190E-01
                                2.9742E-02  2.5434E+01 -3.8363E+01  2.5147E+03

           1    1.94001E+01     2.2901E-02  2.6485E-03  1.2820E+00  1.2822E+00
ac ID =   33377                 6.9203E-01 -2.7545E-01 -2.8678E-01  7.9814E-01
                                3.5035E-02  2.5569E+01 -3.8270E+01  2.5147E+03

           1    1.95000E+01     1.9316E-02 -1.6740E-02  1.2632E+00  1.2635E+00
ac ID =   33377                 1.1910E+00 -1.2075E+00 -5.8562E-01  1.7943E+00
                                4.0258E-02  2.5705E+01 -3.8180E+01  2.5147E+03

           1    1.96000E+01    -3.1443E-02  3.9916E-03  1.2972E+00  1.2976E+00
ac ID =   33377                 7.0437E-01 -2.1949E+00  7.9452E-03  2.3052E+00
                                4.5481E-02  2.5842E+01 -3.8093E+01  2.5147E+03

           1    1.97005E+01     9.3714E-03  1.8492E-02  1.3072E+00  1.3073E+00
ac ID =   33377                 2.6442E-01 -2.1405E+00  3.4653E-01  2.1844E+00
                                5.0704E-02  2.5981E+01 -3.8008E+01  2.5147E+03

           1    1.98005E+01     1.4792E-02  9.9500E-04  1.3089E+00  1.3090E+00
ac ID =   33377                 6.6357E-01 -2.4353E+00  1.5312E-01  2.5287E+00
                                5.5844E-02  2.6120E+01 -3.7928E+01  2.5147E+03

           1    1.99005E+01    -2.1076E-02 -6.8047E-03  1.3175E+00  1.3177E+00
ac ID =   33377                 7.0290E-01 -3.4876E+00 -2.6438E-01  3.5675E+00
                                6.0995E-02  2.6259E+01 -3.7850E+01  2.5147E+03

           1    2.00005E+01    -7.0661E-03  1.3631E-02  1.3438E+00  1.3439E+00
ac ID =   33377                 2.1987E-01 -3.4008E+00 -1.3585E-01  3.4106E+00
                                6.6087E-02  2.6400E+01 -3.7776E+01  2.5147E+03

           1    2.01005E+01    -1.2241E-02  1.3957E-02  1.3272E+00  1.3273E+00
ac ID =   33377                 2.6926E-01 -3.8698E+00  1.9732E-01  3.8841E+00
                                7.1112E-02  2.6541E+01 -3.7704E+01  2.5147E+03

           1    2.02005E+01    -1.8312E-02 -1.7278E-02  1.3100E+00  1.3102E+00
ac ID =   33377                 1.1176E+00 -4.6717E+00  2.3595E-01  4.8093E+00
                                7.6153E-02  2.6683E+01 -3.7636E+01  2.5147E+03

           1    2.03005E+01    -2.7287E-02  6.4715E-03  1.3302E+00  1.3305E+00
ac ID =   33377                 4.6322E-01 -4.8544E+00  2.8799E-01  4.8849E+00
                                8.1162E-02  2.6826E+01 -3.7571E+01  2.5147E+03

           1    2.04005E+01     9.4160E-03  1.1878E-02  1.2814E+00  1.2815E+00
ac ID =   33377                 7.1512E-01 -4.9439E+00 -1.5774E-01  4.9978E+00
                                8.6078E-02  2.6970E+01 -3.7509E+01  2.5147E+03

           1    2.05004E+01    -3.1560E-02  2.4411E-03  1.2896E+00  1.2900E+00
ac ID =   33377                 6.3850E-01 -5.3450E+00  1.0776E-01  5.3840E+00
                                9.1047E-02  2.7115E+01 -3.7450E+01  2.5147E+03

           1    2.06004E+01    -7.6114E-03 -1.6764E-02  1.2722E+00  1.2723E+00
ac ID =   33377                 1.3965E+00 -5.6358E+00 -3.9316E-03  5.8063E+00
                                9.5976E-02  2.7260E+01 -3.7393E+01  2.5147E+03

           1    2.07004E+01    -7.5520E-03  1.7074E-02  1.2276E+00  1.2277E+00
ac ID =   33377                 8.3658E-02 -5.5302E+00  1.2826E-01  5.5323E+00
                                1.0087E-01  2.7406E+01 -3.7340E+01  2.5147E+03

           1    2.08004E+01    -1.8615E-02  9.5898E-03  1.2247E+00  1.2249E+00
ac ID =   33377                 5.8536E-01 -5.8283E+00  2.0928E-01  5.8614E+00
                                1.0571E-01  2.7553E+01 -3.7290E+01  2.5147E+03

           1    2.09004E+01    -7.9064E-03 -1.1835E-02  1.2154E+00  1.2154E+00
ac ID =   33377                 8.7240E-01 -5.9065E+00  1.8959E-01  5.9736E+00
                                1.1061E-01  2.7701E+01 -3.7243E+01  2.5147E+03

           1    2.10004E+01    -1.8294E-02  9.3859E-03  1.1757E+00  1.1759E+00
ac ID =   33377                 7.0294E-01 -6.1589E+00 -1.5129E-01  6.2008E+00
                                1.1539E-01  2.7850E+01 -3.7198E+01  2.5147E+03

           1    2.11004E+01    -6.1862E-03  1.4973E-02  1.1307E+00  1.1308E+00
ac ID =   33377                 2.7024E-01 -6.4175E+00 -8.5424E-02  6.4238E+00
                                1.2021E-01  2.7999E+01 -3.7156E+01  2.5147E+03

           1    2.12004E+01    -1.1686E-02 -6.6371E-03  1.1082E+00  1.1082E+00
ac ID =   33377                 9.6926E-01 -6.3849E+00  1.2140E-01  6.4591E+00
                                1.2497E-01  2.8149E+01 -3.7117E+01  2.5147E+03

           1    2.13004E+01    -7.4540E-03 -5.3305E-03  1.0834E+00  1.0834E+00
ac ID =   33377                 9.6971E-01 -6.8000E+00  2.2046E-01  6.8723E+00
                                1.2975E-01  2.8300E+01 -3.7080E+01  2.5147E+03

           1    2.14004E+01    -3.8939E-03  9.0610E-03  1.0290E+00  1.0290E+00
ac ID =   33377                 5.0201E-01 -6.7322E+00  5.8967E-02  6.7511E+00
                                1.3448E-01  2.8451E+01 -3.7046E+01  2.5147E+03

           1    2.15003E+01    -6.5826E-03  4.8319E-03  1.0182E+00  1.0182E+00
ac ID =   33377                 7.8042E-01 -7.3066E+00 -1.1918E-01  7.3492E+00
                                1.3920E-01  2.8603E+01 -3.7014E+01  2.5147E+03

           1    2.16003E+01    -1.0555E-02 -1.3184E-02  9.8888E-01  9.8902E-01
ac ID =   33377                 1.0945E+00 -7.9460E+00  9.3752E-03  8.0211E+00
                                1.4395E-01  2.8756E+01 -3.6985E+01  2.5147E+03

           1    2.17003E+01     5.9135E-03  9.1169E-03  9.5021E-01  9.5028E-01
ac ID =   33377                 3.9900E-01 -7.7159E+00  2.2088E-01  7.7293E+00
                                1.4864E-01  2.8909E+01 -3.6958E+01  2.5147E+03

           1    2.18003E+01    -1.4343E-02  3.9675E-03  9.3655E-01  9.3667E-01
ac ID =   33377                 4.7104E-01 -8.3027E+00  1.4674E-01  8.3174E+00
                                1.5333E-01  2.9063E+01 -3.6933E+01  2.5147E+03

           1    2.19003E+01     7.6268E-03 -1.7903E-03  9.0249E-01  9.0253E-01
ac ID =   33377                 8.5901E-01 -8.1087E+00 -1.6621E-01  8.1557E+00
                                1.5800E-01  2.9217E+01 -3.6910E+01  2.5147E+03

           1    2.20003E+01     1.6597E-02  5.3282E-03  8.4114E-01  8.4132E-01
ac ID =   33377                 4.6096E-01 -7.9301E+00  2.6805E-03  7.9435E+00
                                1.6266E-01  2.9372E+01 -3.6889E+01  2.5147E+03

           1    2.21003E+01     1.1556E-02  2.8477E-03  8.2967E-01  8.2975E-01
ac ID =   33377                 7.1320E-01 -8.1495E+00  2.4665E-01  8.1844E+00
                                1.6728E-01  2.9527E+01 -3.6870E+01  2.5147E+03

           1    2.22003E+01     2.1579E-02  9.7070E-03  7.9742E-01  7.9777E-01
ac ID =   33377                 4.4476E-01 -7.9191E+00  3.9551E-01  7.9414E+00
                                1.7192E-01  2.9683E+01 -3.6854E+01  2.5147E+03

           1    2.23003E+01     4.0351E-02 -9.7989E-03  7.2066E-01  7.2186E-01
ac ID =   33377                 1.0284E+00 -7.4608E+00  9.0703E-02  7.5319E+00
                                1.7653E-01  2.9839E+01 -3.6838E+01  2.5147E+03

           1    2.24003E+01     3.8269E-02  1.0444E-02  6.8716E-01  6.8830E-01
ac ID =   33377                 4.2971E-01 -7.5042E+00 -2.6184E-02  7.5166E+00
                                1.8112E-01  2.9995E+01 -3.6825E+01  2.5147E+03

           1    2.25002E+01     5.6949E-02  5.6588E-03  6.4171E-01  6.4425E-01
ac ID =   33377                 5.0258E-01 -7.4044E+00 -2.9714E-02  7.4215E+00
                                1.8575E-01  3.0151E+01 -3.6813E+01  2.5147E+03

           1    2.26002E+01     6.8056E-02 -6.9648E-03  5.9397E-01  5.9789E-01
ac ID =   33377                 7.3184E-01 -6.9932E+00  2.3856E-01  7.0354E+00
                                1.9033E-01  3.0308E+01 -3.6803E+01  2.5147E+03

           1    2.27002E+01     7.6718E-02  1.0129E-02  5.3328E-01  5.3886E-01
ac ID =   33377                 3.5685E-01 -7.2465E+00  1.5190E-01  7.2569E+00
                                1.9489E-01  3.0465E+01 -3.6794E+01  2.5147E+03

           1    2.28002E+01     6.0046E-02  1.5362E-02  4.7897E-01  4.8297E-01
ac ID =   33377                 2.6707E-02 -7.4771E+00 -8.0628E-02  7.4776E+00
                                1.9947E-01  3.0622E+01 -3.6786E+01  2.5147E+03

           1    2.29002E+01     9.1093E-02  1.2159E-03  4.3206E-01  4.4156E-01
ac ID =   33377                 4.2623E-01 -6.9982E+00  1.0898E-01  7.0120E+00
                                2.0402E-01  3.0778E+01 -3.6780E+01  2.5147E+03

           1    2.30002E+01     9.1777E-02  1.8297E-03  3.7147E-01  3.8264E-01
ac ID =   33377                 4.2067E-01 -7.2442E+00  1.5214E-01  7.2580E+00
                                2.0855E-01  3.0935E+01 -3.6774E+01  2.5147E+03

           1    2.31002E+01     8.6442E-02  1.4335E-02  3.2456E-01  3.3618E-01
ac ID =   33377                 1.3361E-01 -7.5128E+00  1.3865E-01  7.5153E+00
                                2.1304E-01  3.1092E+01 -3.6770E+01  2.5147E+03

           1    2.32002E+01     9.2438E-02  5.6817E-03  2.7552E-01  2.9067E-01
ac ID =   33377                 4.4078E-02 -7.8368E+00  1.4758E-01  7.8383E+00
                                2.1756E-01  3.1249E+01 -3.6766E+01  2.5147E+03

           1    2.33002E+01     1.0987E-01 -8.6784E-03  2.1603E-01  2.4252E-01
ac ID =   33377                 6.6077E-01 -7.9677E+00 -6.2309E-02  7.9953E+00
                                2.2202E-01  3.1406E+01 -3.6763E+01  2.5147E+03

           1    2.34002E+01     9.4673E-02  1.0071E-02  1.6789E-01  1.9301E-01
ac ID =   33377                 4.6392E-02 -8.6043E+00  2.1115E-02  8.6044E+00
                                2.2647E-01  3.1562E+01 -3.6760E+01  2.5147E+03

           1    2.35001E+01     1.0416E-01  1.3301E-02  1.2250E-01  1.6135E-01
ac ID =   33377                -1.6046E-01 -8.6247E+00  1.7566E-01  8.6280E+00
                                2.3088E-01  3.1718E+01 -3.6758E+01  2.5147E+03

           1    2.36001E+01     1.0148E-01  5.1252E-03  6.7468E-02  1.2197E-01
ac ID =   33377                -8.3853E-02 -9.0386E+00 -1.7325E-01  9.0407E+00
                                2.3532E-01  3.1874E+01 -3.6756E+01  2.5147E+03

           1    2.37001E+01     9.7253E-02 -4.9259E-04  2.1323E-02  9.9564E-02
ac ID =   33377                 1.2035E-01 -9.7079E+00 -3.2110E-01  9.7140E+00
                                2.3967E-01  3.2030E+01 -3.6754E+01  2.5147E+03

           1    2.38001E+01     1.1121E-01  2.4342E-02 -1.5657E-02  1.1491E-01
ac ID =   33377                -6.0125E-01 -9.8464E+00  2.8122E-02  9.8648E+00
                                2.4401E-01  3.2186E+01 -3.6753E+01  2.5147E+03

           1    2.39001E+01     1.0032E-01  7.4071E-03 -6.4978E-02  1.1976E-01
ac ID =   33377                -3.6353E-01 -1.0498E+01  6.8455E-02  1.0504E+01
                                2.4835E-01  3.2341E+01 -3.6751E+01  2.5147E+03

           1    2.40001E+01     9.8523E-02 -4.0167E-03 -1.1601E-01  1.5225E-01
ac ID =   33377                 2.6698E-01 -1.1009E+01 -1.2184E-01  1.1013E+01
                                2.5261E-01  3.2497E+01 -3.6749E+01  2.5147E+03

           1    2.41001E+01     1.1636E-01  1.4411E-02 -1.5822E-01  1.9693E-01
ac ID =   33377                -3.9865E-01 -1.1056E+01 -1.5651E-01  1.1064E+01
                                2.5686E-01  3.2651E+01 -3.6747E+01  2.5147E+03

           1    2.42001E+01     1.2225E-01  1.1764E-02 -2.0352E-01  2.3771E-01
ac ID =   33377                -1.4009E-01 -1.1414E+01 -1.6516E-01  1.1416E+01
                                2.6107E-01  3.2806E+01 -3.6744E+01  2.5147E+03

           1    2.43001E+01     9.8443E-02 -3.0207E-03 -2.5036E-01  2.6903E-01
ac ID =   33377                 1.3986E-02 -1.2176E+01  8.0245E-02  1.2176E+01
                                2.6530E-01  3.2960E+01 -3.6741E+01  2.5147E+03

           1    2.44001E+01     1.3286E-01  1.1086E-02 -3.0269E-01  3.3075E-01
ac ID =   33377                -1.5027E-01 -1.1818E+01 -3.7574E-03  1.1818E+01
                                2.6948E-01  3.3114E+01 -3.6737E+01  2.5147E+03

           1    2.45005E+01     1.2917E-01  1.5781E-02 -3.4410E-01  3.6789E-01
ac ID =   33377                -4.7698E-01 -1.2115E+01 -2.8111E-04  1.2124E+01
                                2.7370E-01  3.3268E+01 -3.6733E+01  2.5147E+03

           1    2.46005E+01     1.2249E-01  9.9005E-03 -3.8598E-01  4.0507E-01
ac ID =   33377                -1.4250E-01 -1.2320E+01  5.1396E-02  1.2321E+01
                                2.7786E-01  3.3421E+01 -3.6727E+01  2.5147E+03

           1    2.47005E+01     1.3161E-01  4.7370E-03 -4.3544E-01  4.5492E-01
ac ID =   33377                -1.6907E-01 -1.2078E+01  1.1653E-02  1.2080E+01
                                2.8200E-01  3.3573E+01 -3.6720E+01  2.5147E+03

           1    2.48005E+01     1.4664E-01  1.2739E-02 -4.7266E-01  4.9505E-01
ac ID =   33377                -4.8900E-01 -1.1989E+01 -1.7066E-02  1.1999E+01
                                2.8607E-01  3.3725E+01 -3.6713E+01  2.5147E+03

           1    2.49005E+01     1.4885E-01  1.8497E-02 -5.0252E-01  5.2443E-01
ac ID =   33377                -4.8817E-01 -1.2090E+01  2.0160E-01  1.2102E+01
                                2.9013E-01  3.3876E+01 -3.6704E+01  2.5147E+03

