 LSTC 50th% Full_FE H-III Dummy (Beta Version, February 17, 2019)        
                    ls-dyna smp s R16 R16.0_619_d222963 date 03/18/2025

{BEGIN LEGEND}
 Entity #        Title
    22626                                                                                     
{END LEGEND}




 n o d a l   p r i n t   o u t   f o r   t i m e  s t e p       1                              ( at time 0.0000000E+00 )

 nodal point  x-disp     y-disp      z-disp      x-vel       y-vel       z-vel      x-accl      y-accl      z-accl      x-coor      y-coor      z-coor
    22626  0.00000E+00 0.00000E+00 0.00000E+00 0.00000E+00 0.00000E+00 0.00000E+00 0.00000E+00 0.00000E+00 0.00000E+00 4.65938E+00-2.81908E+01-4.49817E+01



 n o d a l   p r i n t   o u t   f o r   t i m e  s t e p       1                              ( at time 0.0000000E+00 )

 nodal point  x-rot      y-rot       z-rot       x-rot vel   y-rot vel   z-rot vel   x-rot acc   y-rot acc   z-rot acc
    22626  0.00000E+00 0.00000E+00 0.00000E+00 0.00000E+00 0.00000E+00 0.00000E+00 0.00000E+00 0.00000E+00 0.00000E+00



 n o d a l   p r i n t   o u t   f o r   t i m e  s t e p     201                              ( at time 9.9989993E-02 )

 nodal point  x-disp     y-disp      z-disp      x-vel       y-vel       z-vel      x-accl      y-accl      z-accl      x-coor      y-coor      z-coor
    22626  2.73648E-07 1.73570E-06-5.34266E-05 4.19773E-05 2.55507E-04-1.46808E-03 4.19815E-04 2.55532E-03-1.46822E-02 4.65938E+00-2.81908E+01-4.49818E+01



 n o d a l   p r i n t   o u t   f o r   t i m e  s t e p     201                              ( at time 9.9989993E-02 )

 nodal point  x-rot      y-rot       z-rot       x-rot vel   y-rot vel   z-rot vel   x-rot acc   y-rot acc   z-rot acc
    22626 -5.99186E-08-8.39267E-09-5.46665E-09-5.87041E-06-9.70435E-07-9.27728E-07-5.87100E-05-9.70532E-06-9.27821E-06



 n o d a l   p r i n t   o u t   f o r   t i m e  s t e p     401                              ( at time 1.9997999E-01 )

 nodal point  x-disp     y-disp      z-disp      x-vel       y-vel       z-vel      x-accl      y-accl      z-accl      x-coor      y-coor      z-coor
    22626  1.73036E-05 3.61701E-04-6.67541E-04 3.07500E-05 7.80947E-03-1.21509E-02-1.12284E-04 7.55472E-02-1.06839E-01 4.65939E+00-2.81905E+01-4.49824E+01



 n o d a l   p r i n t   o u t   f o r   t i m e  s t e p     401                              ( at time 1.9997999E-01 )

 nodal point  x-rot      y-rot       z-rot       x-rot vel   y-rot vel   z-rot vel   x-rot acc   y-rot acc   z-rot acc
    22626 -2.82085E-06-3.37199E-07-3.34598E-07-3.93835E-05-1.77244E-06-2.30025E-06-3.35165E-04-8.02080E-06-1.37266E-05



 n o d a l   p r i n t   o u t   f o r   t i m e  s t e p     601                              ( at time 2.9996998E-01 )

 nodal point  x-disp     y-disp      z-disp      x-vel       y-vel       z-vel      x-accl      y-accl      z-accl      x-coor      y-coor      z-coor
    22626  2.73682E-05 1.23954E-03-2.33772E-03 4.21623E-04 8.43928E-03-1.92399E-02 3.90912E-03 6.29871E-03-7.08977E-02 4.65940E+00-2.81896E+01-4.49841E+01



 n o d a l   p r i n t   o u t   f o r   t i m e  s t e p     601                              ( at time 2.9996998E-01 )

 nodal point  x-rot      y-rot       z-rot       x-rot vel   y-rot vel   z-rot vel   x-rot acc   y-rot acc   z-rot acc
    22626 -5.39377E-06-3.90881E-07-6.42585E-07-1.55000E-05-5.53624E-06-6.70207E-06 2.38859E-04-3.76418E-05-4.40226E-05



 n o d a l   p r i n t   o u t   f o r   t i m e  s t e p     801                              ( at time 3.9995997E-01 )

 nodal point  x-disp     y-disp      z-disp      x-vel       y-vel       z-vel      x-accl      y-accl      z-accl      x-coor      y-coor      z-coor
    22626  2.60627E-05 2.16095E-03-4.28052E-03-3.13698E-04 1.07343E-02-2.10669E-02-7.35394E-03 2.29529E-02-1.82720E-02 4.65940E+00-2.81887E+01-4.49860E+01



 n o d a l   p r i n t   o u t   f o r   t i m e  s t e p     801                              ( at time 3.9995997E-01 )

 nodal point  x-rot      y-rot       z-rot       x-rot vel   y-rot vel   z-rot vel   x-rot acc   y-rot acc   z-rot acc
    22626 -7.63585E-06-1.25198E-06-9.83980E-07-4.50783E-05-6.23559E-06-1.52010E-06-2.95813E-04-6.99420E-06 5.18249E-05



 n o d a l   p r i n t   o u t   f o r   t i m e  s t e p    1001                              ( at time 4.9994997E-01 )

 nodal point  x-disp     y-disp      z-disp      x-vel       y-vel       z-vel      x-accl      y-accl      z-accl      x-coor      y-coor      z-coor
    22626  4.07700E-06 3.43376E-03-6.73875E-03-2.38789E-04 1.41189E-02-2.86422E-02 7.49168E-04 3.38489E-02-7.57602E-02 4.65938E+00-2.81874E+01-4.49885E+01



 n o d a l   p r i n t   o u t   f o r   t i m e  s t e p    1001                              ( at time 4.9994997E-01 )

 nodal point  x-rot      y-rot       z-rot       x-rot vel   y-rot vel   z-rot vel   x-rot acc   y-rot acc   z-rot acc
    22626 -1.35998E-05-1.17152E-06-9.55334E-07-8.46293E-05 3.21453E-06 4.10197E-06-3.95549E-04 9.45107E-05 5.62264E-05



 n o d a l   p r i n t   o u t   f o r   t i m e  s t e p    1201                              ( at time 5.9993996E-01 )

 nodal point  x-disp     y-disp      z-disp      x-vel       y-vel       z-vel      x-accl      y-accl      z-accl      x-coor      y-coor      z-coor
    22626 -9.89432E-07 5.00193E-03-9.69957E-03 4.24388E-05 1.65817E-02-3.08467E-02 2.81256E-03 2.46303E-02-2.20476E-02 4.65937E+00-2.81858E+01-4.49914E+01



 n o d a l   p r i n t   o u t   f o r   t i m e  s t e p    1201                              ( at time 5.9993996E-01 )

 nodal point  x-rot      y-rot       z-rot       x-rot vel   y-rot vel   z-rot vel   x-rot acc   y-rot acc   z-rot acc
    22626 -2.04396E-05-8.94603E-07-9.71897E-07-6.05265E-05 3.63674E-06-2.23281E-06 2.41052E-04 4.22250E-06-6.33542E-05



 n o d a l   p r i n t   o u t   f o r   t i m e  s t e p    1401                              ( at time 6.9992995E-01 )

 nodal point  x-disp     y-disp      z-disp      x-vel       y-vel       z-vel      x-accl      y-accl      z-accl      x-coor      y-coor      z-coor
    22626 -4.99015E-05 6.82614E-03-1.31344E-02-4.71091E-04 1.94967E-02-3.86864E-02-5.13581E-03 2.91532E-02-7.84046E-02 4.65933E+00-2.81840E+01-4.49949E+01



 n o d a l   p r i n t   o u t   f o r   t i m e  s t e p    1401                              ( at time 6.9992995E-01 )

 nodal point  x-rot      y-rot       z-rot       x-rot vel   y-rot vel   z-rot vel   x-rot acc   y-rot acc   z-rot acc
    22626 -2.65469E-05-9.38693E-07-6.87298E-07-7.27928E-05 1.25641E-08 3.32583E-06-1.22676E-04-3.62453E-05 5.55920E-05



 n o d a l   p r i n t   o u t   f o r   t i m e  s t e p    1601                              ( at time 7.9991994E-01 )

 nodal point  x-disp     y-disp      z-disp      x-vel       y-vel       z-vel      x-accl      y-accl      z-accl      x-coor      y-coor      z-coor
    22626 -7.85132E-05 8.94189E-03-1.73901E-02-5.00314E-04 2.19130E-02-4.46411E-02-2.92254E-04 2.41654E-02-5.95527E-02 4.65930E+00-2.81819E+01-4.49991E+01



 n o d a l   p r i n t   o u t   f o r   t i m e  s t e p    1601                              ( at time 7.9991994E-01 )

 nodal point  x-rot      y-rot       z-rot       x-rot vel   y-rot vel   z-rot vel   x-rot acc   y-rot acc   z-rot acc
    22626 -3.49833E-05-9.41305E-07-6.37082E-07-9.51674E-05-5.13110E-06 6.78276E-07-2.23768E-04-5.14418E-05-2.64782E-05



 n o d a l   p r i n t   o u t   f o r   t i m e  s t e p    1801                              ( at time 8.9990994E-01 )

 nodal point  x-disp     y-disp      z-disp      x-vel       y-vel       z-vel      x-accl      y-accl      z-accl      x-coor      y-coor      z-coor
    22626 -1.15173E-04 1.11777E-02-2.18552E-02-2.73473E-04 2.36426E-02-4.48247E-02 2.26863E-03 1.72973E-02-1.83631E-03 4.65926E+00-2.81797E+01-4.50036E+01



 n o d a l   p r i n t   o u t   f o r   t i m e  s t e p    1801                              ( at time 8.9990994E-01 )

 nodal point  x-rot      y-rot       z-rot       x-rot vel   y-rot vel   z-rot vel   x-rot acc   y-rot acc   z-rot acc
    22626 -4.38168E-05-1.09073E-06-7.67988E-07-8.78172E-05 7.53556E-07-2.62885E-06 7.35097E-05 5.88525E-05-3.30746E-05



 n o d a l   p r i n t   o u t   f o r   t i m e  s t e p    2001                              ( at time 9.9989993E-01 )

 nodal point  x-disp     y-disp      z-disp      x-vel       y-vel       z-vel      x-accl      y-accl      z-accl      x-coor      y-coor      z-coor
    22626 -1.47077E-04 1.36620E-02-2.64963E-02 1.70903E-05 2.58303E-02-4.88045E-02 2.90593E-03 2.18799E-02-3.98019E-02 4.65923E+00-2.81772E+01-4.50082E+01



 n o d a l   p r i n t   o u t   f o r   t i m e  s t e p    2001                              ( at time 9.9989993E-01 )

 nodal point  x-rot      y-rot       z-rot       x-rot vel   y-rot vel   z-rot vel   x-rot acc   y-rot acc   z-rot acc
    22626 -5.35353E-05-1.18348E-06-9.39850E-07-1.14264E-04-3.99578E-07-6.00117E-06-2.64497E-04-1.15325E-05-3.37266E-05



 n o d a l   p r i n t   o u t   f o r   t i m e  s t e p    2201                              ( at time 1.0998899E+00 )

 nodal point  x-disp     y-disp      z-disp      x-vel       y-vel       z-vel      x-accl      y-accl      z-accl      x-coor      y-coor      z-coor
    22626 -1.49123E-04 1.63264E-02-3.16737E-02-2.78259E-04 2.80383E-02-5.43468E-02-2.95379E-03 2.20817E-02-5.54286E-02 4.65923E+00-2.81745E+01-4.50134E+01



 n o d a l   p r i n t   o u t   f o r   t i m e  s t e p    2201                              ( at time 1.0998899E+00 )

 nodal point  x-rot      y-rot       z-rot       x-rot vel   y-rot vel   z-rot vel   x-rot acc   y-rot acc   z-rot acc
    22626 -6.55468E-05-1.51433E-06-1.63295E-06-1.13633E-04-1.05362E-05-6.77538E-06 6.31355E-06-1.01376E-04-7.74285E-06



 n o d a l   p r i n t   o u t   f o r   t i m e  s t e p    2401                              ( at time 1.1998799E+00 )

 nodal point  x-disp     y-disp      z-disp      x-vel       y-vel       z-vel      x-accl      y-accl      z-accl      x-coor      y-coor      z-coor
    22626 -1.70061E-04 1.91688E-02-3.73450E-02-8.44653E-05 2.89781E-02-5.87527E-02 1.93813E-03 9.39920E-03-4.40631E-02 4.65920E+00-2.81717E+01-4.50191E+01



 n o d a l   p r i n t   o u t   f o r   t i m e  s t e p    2401                              ( at time 1.1998799E+00 )

 nodal point  x-rot      y-rot       z-rot       x-rot vel   y-rot vel   z-rot vel   x-rot acc   y-rot acc   z-rot acc
    22626 -7.68102E-05-2.51289E-06-2.44702E-06-1.16979E-04-1.19330E-05-9.94810E-06-3.34653E-05-1.39696E-05-3.17304E-05



 n o d a l   p r i n t   o u t   f o r   t i m e  s t e p    2601                              ( at time 1.2998699E+00 )

 nodal point  x-disp     y-disp      z-disp      x-vel       y-vel       z-vel      x-accl      y-accl      z-accl      x-coor      y-coor      z-coor
    22626 -1.85100E-04 2.21738E-02-4.33348E-02 1.83470E-05 3.09738E-02-6.07896E-02 1.02823E-03 1.99589E-02-2.03711E-02 4.65919E+00-2.81687E+01-4.50251E+01



 n o d a l   p r i n t   o u t   f o r   t i m e  s t e p    2601                              ( at time 1.2998699E+00 )

 nodal point  x-rot      y-rot       z-rot       x-rot vel   y-rot vel   z-rot vel   x-rot acc   y-rot acc   z-rot acc
    22626 -8.96469E-05-3.75008E-06-3.51459E-06-1.50617E-04-8.21484E-06-1.12231E-05-3.36408E-04 3.71852E-05-1.27513E-05



 n o d a l   p r i n t   o u t   f o r   t i m e  s t e p    2801                              ( at time 1.3998599E+00 )

 nodal point  x-disp     y-disp      z-disp      x-vel       y-vel       z-vel      x-accl      y-accl      z-accl      x-coor      y-coor      z-coor
    22626 -1.81072E-04 2.53487E-02-4.94574E-02-1.31028E-04 3.23975E-02-6.23187E-02-1.49390E-03 1.42388E-02-1.52924E-02 4.65919E+00-2.81655E+01-4.50312E+01



 n o d a l   p r i n t   o u t   f o r   t i m e  s t e p    2801                              ( at time 1.3998599E+00 )

 nodal point  x-rot      y-rot       z-rot       x-rot vel   y-rot vel   z-rot vel   x-rot acc   y-rot acc   z-rot acc
    22626 -1.05412E-04-4.48078E-06-4.69045E-06-1.62902E-04-9.19852E-06-9.19128E-06-1.22865E-04-9.83777E-06 2.03203E-05



 n o d a l   p r i n t   o u t   f o r   t i m e  s t e p    3001                              ( at time 1.4998499E+00 )

 nodal point  x-disp     y-disp      z-disp      x-vel       y-vel       z-vel      x-accl      y-accl      z-accl      x-coor      y-coor      z-coor
    22626 -2.00129E-04 2.87064E-02-5.59803E-02-1.94738E-04 3.46462E-02-6.86057E-02-6.37166E-04 2.24888E-02-6.28771E-02 4.65917E+00-2.81621E+01-4.50377E+01



 n o d a l   p r i n t   o u t   f o r   t i m e  s t e p    3001                              ( at time 1.4998499E+00 )

 nodal point  x-rot      y-rot       z-rot       x-rot vel   y-rot vel   z-rot vel   x-rot acc   y-rot acc   z-rot acc
    22626 -1.21621E-04-5.41086E-06-5.82181E-06-1.60109E-04-1.01285E-05-1.47577E-05 2.79320E-05-9.30055E-06-5.56700E-05



 n o d a l   p r i n t   o u t   f o r   t i m e  s t e p    3201                              ( at time 1.5998399E+00 )

 nodal point  x-disp     y-disp      z-disp      x-vel       y-vel       z-vel      x-accl      y-accl      z-accl      x-coor      y-coor      z-coor
    22626 -2.40836E-04 3.23236E-02-6.31116E-02-2.61053E-04 3.76114E-02-7.32288E-02-6.63216E-04 2.96546E-02-4.62357E-02 4.65913E+00-2.81585E+01-4.50448E+01



 n o d a l   p r i n t   o u t   f o r   t i m e  s t e p    3201                              ( at time 1.5998399E+00 )

 nodal point  x-rot      y-rot       z-rot       x-rot vel   y-rot vel   z-rot vel   x-rot acc   y-rot acc   z-rot acc
    22626 -1.37591E-04-6.59619E-06-7.31420E-06-1.69016E-04-1.72055E-05-1.55244E-05-8.90794E-05-7.07769E-05-7.66731E-06



 n o d a l   p r i n t   o u t   f o r   t i m e  s t e p    3401                              ( at time 1.6998299E+00 )

 nodal point  x-disp     y-disp      z-disp      x-vel       y-vel       z-vel      x-accl      y-accl      z-accl      x-coor      y-coor      z-coor
    22626 -2.54923E-04 3.61632E-02-7.05670E-02-2.57143E-04 3.89536E-02-7.55574E-02 3.91011E-05 1.34235E-02-2.32880E-02 4.65912E+00-2.81547E+01-4.50523E+01



 n o d a l   p r i n t   o u t   f o r   t i m e  s t e p    3401                              ( at time 1.6998299E+00 )

 nodal point  x-rot      y-rot       z-rot       x-rot vel   y-rot vel   z-rot vel   x-rot acc   y-rot acc   z-rot acc
    22626 -1.55710E-04-8.02255E-06-8.93349E-06-1.89237E-04-1.24060E-05-1.38055E-05-2.02235E-04 4.79997E-05 1.71904E-05



 n o d a l   p r i n t   o u t   f o r   t i m e  s t e p    3601                              ( at time 1.7998199E+00 )

 nodal point  x-disp     y-disp      z-disp      x-vel       y-vel       z-vel      x-accl      y-accl      z-accl      x-coor      y-coor      z-coor
    22626 -2.84751E-04 4.00819E-02-7.82095E-02-2.03714E-04 3.97157E-02-7.73538E-02 5.34346E-04 7.62238E-03-1.79661E-02 4.65909E+00-2.81507E+01-4.50599E+01



 n o d a l   p r i n t   o u t   f o r   t i m e  s t e p    3601                              ( at time 1.7998199E+00 )

 nodal point  x-rot      y-rot       z-rot       x-rot vel   y-rot vel   z-rot vel   x-rot acc   y-rot acc   z-rot acc
    22626 -1.75087E-04-9.27833E-06-1.06156E-05-1.94628E-04-1.17387E-05-2.24222E-05-5.39087E-05 6.67321E-06-8.61754E-05



 n o d a l   p r i n t   o u t   f o r   t i m e  s t e p    3801                              ( at time 1.8998099E+00 )

 nodal point  x-disp     y-disp      z-disp      x-vel       y-vel       z-vel      x-accl      y-accl      z-accl      x-coor      y-coor      z-coor
    22626 -2.91500E-04 4.41740E-02-8.61285E-02-1.80911E-05 4.20220E-02-8.13330E-02 1.85641E-03 2.30654E-02-3.97957E-02 4.65908E+00-2.81467E+01-4.50678E+01



 n o d a l   p r i n t   o u t   f o r   t i m e  s t e p    3801                              ( at time 1.8998099E+00 )

 nodal point  x-rot      y-rot       z-rot       x-rot vel   y-rot vel   z-rot vel   x-rot acc   y-rot acc   z-rot acc
    22626 -1.94670E-04-1.06549E-05-1.27310E-05-2.01521E-04-1.53468E-05-2.08054E-05-6.89435E-05-3.60842E-05 1.61698E-05



 n o d a l   p r i n t   o u t   f o r   t i m e  s t e p    4001                              ( at time 1.9997999E+00 )

 nodal point  x-disp     y-disp      z-disp      x-vel       y-vel       z-vel      x-accl      y-accl      z-accl      x-coor      y-coor      z-coor
    22626 -3.08167E-04 4.83992E-02-9.44869E-02-1.84569E-04 4.28155E-02-8.55961E-02-1.66495E-03 7.93536E-03-4.26349E-02 4.65907E+00-2.81424E+01-4.50762E+01



 n o d a l   p r i n t   o u t   f o r   t i m e  s t e p    4001                              ( at time 1.9997999E+00 )

 nodal point  x-rot      y-rot       z-rot       x-rot vel   y-rot vel   z-rot vel   x-rot acc   y-rot acc   z-rot acc
    22626 -2.15064E-04-1.23615E-05-1.48323E-05-2.09297E-04-1.84487E-05-2.01832E-05-7.77645E-05-3.10226E-05 6.22207E-06



 n o d a l   p r i n t   o u t   f o r   t i m e  s t e p    4201                              ( at time 2.0997899E+00 )

 nodal point  x-disp     y-disp      z-disp      x-vel       y-vel       z-vel      x-accl      y-accl      z-accl      x-coor      y-coor      z-coor
    22626 -3.16541E-04 5.26980E-02-1.03144E-01 2.15678E-05 4.34723E-02-8.75940E-02 2.06157E-03 6.56913E-03-1.99810E-02 4.65906E+00-2.81381E+01-4.50849E+01



 n o d a l   p r i n t   o u t   f o r   t i m e  s t e p    4201                              ( at time 2.0997899E+00 )

 nodal point  x-rot      y-rot       z-rot       x-rot vel   y-rot vel   z-rot vel   x-rot acc   y-rot acc   z-rot acc
    22626 -2.35985E-04-1.48116E-05-1.73151E-05-2.09078E-04-2.83719E-05-2.55741E-05 2.18824E-06-9.92412E-05-5.39146E-05



 n o d a l   p r i n t   o u t   f o r   t i m e  s t e p    4401                              ( at time 2.1997798E+00 )

 nodal point  x-disp     y-disp      z-disp      x-vel       y-vel       z-vel      x-accl      y-accl      z-accl      x-coor      y-coor      z-coor
    22626 -2.82016E-04 5.71098E-02-1.11963E-01 4.70995E-04 4.42399E-02-8.87188E-02 4.49472E-03 7.67625E-03-1.12494E-02 4.65909E+00-2.81337E+01-4.50937E+01



 n o d a l   p r i n t   o u t   f o r   t i m e  s t e p    4401                              ( at time 2.1997798E+00 )

 nodal point  x-rot      y-rot       z-rot       x-rot vel   y-rot vel   z-rot vel   x-rot acc   y-rot acc   z-rot acc
    22626 -2.57339E-04-1.74010E-05-1.96625E-05-2.18933E-04-2.79052E-05-2.49530E-05-9.85584E-05 4.66729E-06 6.21217E-06



 n o d a l   p r i n t   o u t   f o r   t i m e  s t e p    4601                              ( at time 2.2997698E+00 )

 nodal point  x-disp     y-disp      z-disp      x-vel       y-vel       z-vel      x-accl      y-accl      z-accl      x-coor      y-coor      z-coor
    22626 -2.33311E-04 6.15568E-02-1.20882E-01 3.66156E-04 4.50886E-02-9.02407E-02-1.04849E-03 8.48768E-03-1.52201E-02 4.65914E+00-2.81293E+01-4.51026E+01



 n o d a l   p r i n t   o u t   f o r   t i m e  s t e p    4601                              ( at time 2.2997698E+00 )

 nodal point  x-rot      y-rot       z-rot       x-rot vel   y-rot vel   z-rot vel   x-rot acc   y-rot acc   z-rot acc
    22626 -2.80216E-04-1.97644E-05-2.20004E-05-2.28043E-04-1.90442E-05-2.65223E-05-9.11072E-05 8.86187E-05-1.56949E-05



 n o d a l   p r i n t   o u t   f o r   t i m e  s t e p    4801                              ( at time 2.3997598E+00 )

 nodal point  x-disp     y-disp      z-disp      x-vel       y-vel       z-vel      x-accl      y-accl      z-accl      x-coor      y-coor      z-coor
    22626 -2.49202E-04 6.61418E-02-1.30120E-01-3.81283E-04 4.62259E-02-9.46514E-02-7.47515E-03 1.13746E-02-4.41117E-02 4.65913E+00-2.81247E+01-4.51118E+01



 n o d a l   p r i n t   o u t   f o r   t i m e  s t e p    4801                              ( at time 2.3997598E+00 )

 nodal point  x-rot      y-rot       z-rot       x-rot vel   y-rot vel   z-rot vel   x-rot acc   y-rot acc   z-rot acc
    22626 -3.03114E-04-2.19822E-05-2.46210E-05-2.34563E-04-1.85212E-05-2.02053E-05-6.52062E-05 5.23000E-06 6.31772E-05



 n o d a l   p r i n t   o u t   f o r   t i m e  s t e p    5001                              ( at time 2.4997498E+00 )

 nodal point  x-disp     y-disp      z-disp      x-vel       y-vel       z-vel      x-accl      y-accl      z-accl      x-coor      y-coor      z-coor
    22626 -3.09275E-04 7.08234E-02-1.39707E-01-8.95816E-04 4.68999E-02-9.66318E-02-5.14584E-03 6.74054E-03-1.98064E-02 4.65907E+00-2.81200E+01-4.51214E+01



 n o d a l   p r i n t   o u t   f o r   t i m e  s t e p    5001                              ( at time 2.4997498E+00 )

 nodal point  x-rot      y-rot       z-rot       x-rot vel   y-rot vel   z-rot vel   x-rot acc   y-rot acc   z-rot acc
    22626 -3.26534E-04-2.36015E-05-2.69593E-05-2.39947E-04-1.56287E-05-2.38199E-05-5.38502E-05 2.89280E-05-3.61500E-05



 n o d a l   p r i n t   o u t   f o r   t i m e  s t e p    5201                              ( at time 2.5997398E+00 )

 nodal point  x-disp     y-disp      z-disp      x-vel       y-vel       z-vel      x-accl      y-accl      z-accl      x-coor      y-coor      z-coor
    22626 -3.69032E-04 7.54780E-02-1.49377E-01-3.75618E-04 4.63412E-02-9.64817E-02 5.20251E-03-5.58768E-03 1.50122E-03 4.65901E+00-2.81154E+01-4.51311E+01



 n o d a l   p r i n t   o u t   f o r   t i m e  s t e p    5201                              ( at time 2.5997398E+00 )

 nodal point  x-rot      y-rot       z-rot       x-rot vel   y-rot vel   z-rot vel   x-rot acc   y-rot acc   z-rot acc
    22626 -3.51062E-04-2.48844E-05-2.92764E-05-2.44907E-04-1.29223E-05-2.75255E-05-4.95991E-05 2.70664E-05-3.70602E-05



 n o d a l   p r i n t   o u t   f o r   t i m e  s t e p    5401                              ( at time 2.6997298E+00 )

 nodal point  x-disp     y-disp      z-disp      x-vel       y-vel       z-vel      x-accl      y-accl      z-accl      x-coor      y-coor      z-coor
    22626 -4.10105E-04 8.00624E-02-1.59015E-01-4.67732E-04 4.59872E-02-9.64464E-02-9.21225E-04-3.54049E-03 3.53639E-04 4.65897E+00-2.81108E+01-4.51407E+01



 n o d a l   p r i n t   o u t   f o r   t i m e  s t e p    5401                              ( at time 2.6997298E+00 )

 nodal point  x-rot      y-rot       z-rot       x-rot vel   y-rot vel   z-rot vel   x-rot acc   y-rot acc   z-rot acc
    22626 -3.76598E-04-2.64396E-05-3.18986E-05-2.67851E-04-1.53559E-05-2.51938E-05-2.29465E-04-2.43377E-05 2.33201E-05



 n o d a l   p r i n t   o u t   f o r   t i m e  s t e p    5601                              ( at time 2.7997198E+00 )

 nodal point  x-disp     y-disp      z-disp      x-vel       y-vel       z-vel      x-accl      y-accl      z-accl      x-coor      y-coor      z-coor
    22626 -4.20375E-04 8.46538E-02-1.68688E-01 2.11508E-04 4.60414E-02-9.74508E-02 6.79308E-03 5.42234E-04-1.00457E-02 4.65895E+00-2.81062E+01-4.51504E+01



 n o d a l   p r i n t   o u t   f o r   t i m e  s t e p    5601                              ( at time 2.7997198E+00 )

 nodal point  x-rot      y-rot       z-rot       x-rot vel   y-rot vel   z-rot vel   x-rot acc   y-rot acc   z-rot acc
    22626 -4.02747E-04-2.86989E-05-3.47476E-05-2.54579E-04-2.68653E-05-2.91344E-05 1.32734E-04-1.15106E-04-3.94107E-05



 n o d a l   p r i n t   o u t   f o r   t i m e  s t e p    5801                              ( at time 2.8997098E+00 )

 nodal point  x-disp     y-disp      z-disp      x-vel       y-vel       z-vel      x-accl      y-accl      z-accl      x-coor      y-coor      z-coor
    22626 -4.15082E-04 8.92516E-02-1.78526E-01 1.65489E-04 4.57194E-02-9.90456E-02-4.60241E-04-3.22050E-03-1.59493E-02 4.65896E+00-2.81016E+01-4.51602E+01



 n o d a l   p r i n t   o u t   f o r   t i m e  s t e p    5801                              ( at time 2.8997098E+00 )

 nodal point  x-rot      y-rot       z-rot       x-rot vel   y-rot vel   z-rot vel   x-rot acc   y-rot acc   z-rot acc
    22626 -4.28024E-04-3.14520E-05-3.76818E-05-2.52064E-04-2.68983E-05-3.07504E-05 2.51500E-05-3.29907E-07-1.61617E-05



 n o d a l   p r i n t   o u t   f o r   t i m e  s t e p    6001                              ( at time 2.9996998E+00 )

 nodal point  x-disp     y-disp      z-disp      x-vel       y-vel       z-vel      x-accl      y-accl      z-accl      x-coor      y-coor      z-coor
    22626 -3.80886E-04 9.38191E-02-1.88471E-01-4.45137E-06 4.57478E-02-9.96709E-02-1.69957E-03 2.84640E-04-6.25396E-03 4.65899E+00-2.80970E+01-4.51702E+01



 n o d a l   p r i n t   o u t   f o r   t i m e  s t e p    6001                              ( at time 2.9996998E+00 )

 nodal point  x-rot      y-rot       z-rot       x-rot vel   y-rot vel   z-rot vel   x-rot acc   y-rot acc   z-rot acc
    22626 -4.54308E-04-3.38817E-05-4.04159E-05-2.74773E-04-2.26772E-05-2.34909E-05-2.27113E-04 4.22144E-05 7.26027E-05



 n o d a l   p r i n t   o u t   f o r   t i m e  s t e p    6201                              ( at time 3.0996898E+00 )

 nodal point  x-disp     y-disp      z-disp      x-vel       y-vel       z-vel      x-accl      y-accl      z-accl      x-coor      y-coor      z-coor
    22626 -4.37044E-04 9.84092E-02-1.98359E-01-8.42747E-04 4.59268E-02-9.90217E-02-8.38380E-03 1.79011E-03 6.49339E-03 4.65894E+00-2.80924E+01-4.51801E+01



 n o d a l   p r i n t   o u t   f o r   t i m e  s t e p    6201                              ( at time 3.0996898E+00 )

 nodal point  x-rot      y-rot       z-rot       x-rot vel   y-rot vel   z-rot vel   x-rot acc   y-rot acc   z-rot acc
    22626 -4.81722E-04-3.50991E-05-4.27909E-05-2.80504E-04-1.05161E-05-2.02361E-05-5.73136E-05 1.21623E-04 3.25514E-05



 n o d a l   p r i n t   o u t   f o r   t i m e  s t e p    6401                              ( at time 3.1996798E+00 )

 nodal point  x-disp     y-disp      z-disp      x-vel       y-vel       z-vel      x-accl      y-accl      z-accl      x-coor      y-coor      z-coor
    22626 -5.13695E-04 1.03081E-01-2.08366E-01-5.65593E-04 4.75836E-02-1.01239E-01 2.77181E-03 1.65698E-02-2.21709E-02 4.65886E+00-2.80877E+01-4.51901E+01



 n o d a l   p r i n t   o u t   f o r   t i m e  s t e p    6401                              ( at time 3.1996798E+00 )

 nodal point  x-rot      y-rot       z-rot       x-rot vel   y-rot vel   z-rot vel   x-rot acc   y-rot acc   z-rot acc
    22626 -5.10406E-04-3.59288E-05-4.49391E-05-2.86907E-04-9.43418E-06-2.39019E-05-6.40339E-05 1.08205E-05-3.66615E-05



 n o d a l   p r i n t   o u t   f o r   t i m e  s t e p    6601                              ( at time 3.2996698E+00 )

 nodal point  x-disp     y-disp      z-disp      x-vel       y-vel       z-vel      x-accl      y-accl      z-accl      x-coor      y-coor      z-coor
    22626 -6.08691E-04 1.07977E-01-2.18633E-01-8.62530E-04 5.02718E-02-1.04308E-01-2.96968E-03 2.68843E-02-3.07027E-02 4.65877E+00-2.80829E+01-4.52004E+01



 n o d a l   p r i n t   o u t   f o r   t i m e  s t e p    6601                              ( at time 3.2996698E+00 )

 nodal point  x-rot      y-rot       z-rot       x-rot vel   y-rot vel   z-rot vel   x-rot acc   y-rot acc   z-rot acc
    22626 -5.39497E-04-3.61130E-05-4.66548E-05-3.02492E-04-2.59159E-06-1.74583E-05-1.55872E-04 6.84329E-05 6.44422E-05



 n o d a l   p r i n t   o u t   f o r   t i m e  s t e p    6801                              ( at time 3.3996598E+00 )

 nodal point  x-disp     y-disp      z-disp      x-vel       y-vel       z-vel      x-accl      y-accl      z-accl      x-coor      y-coor      z-coor
    22626 -6.83578E-04 1.13131E-01-2.29125E-01-8.95735E-04 5.31829E-02-1.04978E-01-3.32075E-04 2.91139E-02-6.69486E-03 4.65869E+00-2.80777E+01-4.52108E+01



 n o d a l   p r i n t   o u t   f o r   t i m e  s t e p    6801                              ( at time 3.3996598E+00 )

 nodal point  x-rot      y-rot       z-rot       x-rot vel   y-rot vel   z-rot vel   x-rot acc   y-rot acc   z-rot acc
    22626 -5.70190E-04-3.63405E-05-4.87817E-05-3.21380E-04-6.72753E-06-1.81022E-05-1.88897E-04-4.13635E-05-6.43940E-06



 n o d a l   p r i n t   o u t   f o r   t i m e  s t e p    7001                              ( at time 3.4996498E+00 )

 nodal point  x-disp     y-disp      z-disp      x-vel       y-vel       z-vel      x-accl      y-accl      z-accl      x-coor      y-coor      z-coor
    22626 -7.96456E-04 1.18528E-01-2.39581E-01-8.11868E-04 5.54248E-02-1.04297E-01 8.38750E-04 2.24214E-02 6.80590E-03 4.65858E+00-2.80723E+01-4.52213E+01



 n o d a l   p r i n t   o u t   f o r   t i m e  s t e p    7001                              ( at time 3.4996498E+00 )

 nodal point  x-rot      y-rot       z-rot       x-rot vel   y-rot vel   z-rot vel   x-rot acc   y-rot acc   z-rot acc
    22626 -6.03498E-04-3.70511E-05-5.09134E-05-3.45755E-04-4.88928E-06-1.82903E-05-2.43775E-04 1.83843E-05-1.88101E-06



 n o d a l   p r i n t   o u t   f o r   t i m e  s t e p    7201                              ( at time 3.5996397E+00 )

 nodal point  x-disp     y-disp      z-disp      x-vel       y-vel       z-vel      x-accl      y-accl      z-accl      x-coor      y-coor      z-coor
    22626 -8.77930E-04 1.24249E-01-2.49984E-01-7.12626E-04 5.91388E-02-1.03932E-01 9.92526E-04 3.71434E-02 3.65190E-03 4.65850E+00-2.80666E+01-4.52317E+01



 n o d a l   p r i n t   o u t   f o r   t i m e  s t e p    7201                              ( at time 3.5996397E+00 )

 nodal point  x-rot      y-rot       z-rot       x-rot vel   y-rot vel   z-rot vel   x-rot acc   y-rot acc   z-rot acc
    22626 -6.39574E-04-3.73431E-05-5.26151E-05-3.85745E-04-7.60941E-07-1.85142E-05-3.99934E-04 4.12876E-05-2.23991E-06



 n o d a l   p r i n t   o u t   f o r   t i m e  s t e p    7401                              ( at time 3.6996297E+00 )

 nodal point  x-disp     y-disp      z-disp      x-vel       y-vel       z-vel      x-accl      y-accl      z-accl      x-coor      y-coor      z-coor
    22626 -9.80175E-04 1.30363E-01-2.60417E-01-1.59473E-03 6.32200E-02-1.04170E-01-8.82193E-03 4.08164E-02-2.37391E-03 4.65839E+00-2.80605E+01-4.52421E+01



 n o d a l   p r i n t   o u t   f o r   t i m e  s t e p    7401                              ( at time 3.6996297E+00 )

 nodal point  x-rot      y-rot       z-rot       x-rot vel   y-rot vel   z-rot vel   x-rot acc   y-rot acc   z-rot acc
    22626 -6.80127E-04-3.72743E-05-5.43726E-05-4.21851E-04 7.23956E-07-2.00888E-05-3.61100E-04 1.48504E-05-1.57472E-05



 n o d a l   p r i n t   o u t   f o r   t i m e  s t e p    7601                              ( at time 3.7996197E+00 )

 nodal point  x-disp     y-disp      z-disp      x-vel       y-vel       z-vel      x-accl      y-accl      z-accl      x-coor      y-coor      z-coor
    22626 -1.15649E-03 1.36966E-01-2.70877E-01-1.56721E-03 6.89635E-02-1.04580E-01 2.75290E-04 5.74404E-02-4.10583E-03 4.65822E+00-2.80539E+01-4.52526E+01



 n o d a l   p r i n t   o u t   f o r   t i m e  s t e p    7601                              ( at time 3.7996197E+00 )

 nodal point  x-rot      y-rot       z-rot       x-rot vel   y-rot vel   z-rot vel   x-rot acc   y-rot acc   z-rot acc
    22626 -7.24735E-04-3.71225E-05-5.64503E-05-4.75430E-04-2.30216E-06-2.48567E-05-5.35846E-04-3.02642E-05-4.76843E-05



 n o d a l   p r i n t   o u t   f o r   t i m e  s t e p    7801                              ( at time 3.8996097E+00 )

 nodal point  x-disp     y-disp      z-disp      x-vel       y-vel       z-vel      x-accl      y-accl      z-accl      x-coor      y-coor      z-coor
    22626 -1.31810E-03 1.44161E-01-2.81343E-01-1.74914E-03 7.53111E-02-1.04191E-01-1.81952E-03 6.34825E-02 3.89555E-03 4.65806E+00-2.80467E+01-4.52631E+01



 n o d a l   p r i n t   o u t   f o r   t i m e  s t e p    7801                              ( at time 3.8996097E+00 )

 nodal point  x-rot      y-rot       z-rot       x-rot vel   y-rot vel   z-rot vel   x-rot acc   y-rot acc   z-rot acc
    22626 -7.75122E-04-3.81735E-05-5.93305E-05-5.43149E-04-1.77364E-05-3.37082E-05-6.77257E-04-1.54357E-04-8.85237E-05



 n o d a l   p r i n t   o u t   f o r   t i m e  s t e p    8001                              ( at time 3.9995997E+00 )

 nodal point  x-disp     y-disp      z-disp      x-vel       y-vel       z-vel      x-accl      y-accl      z-accl      x-coor      y-coor      z-coor
    22626 -1.54767E-03 1.52059E-01-2.91658E-01-2.66490E-03 8.27478E-02-1.02720E-01-9.15855E-03 7.43746E-02 1.47090E-02 4.65783E+00-2.80388E+01-4.52734E+01



 n o d a l   p r i n t   o u t   f o r   t i m e  s t e p    8001                              ( at time 3.9995997E+00 )

 nodal point  x-rot      y-rot       z-rot       x-rot vel   y-rot vel   z-rot vel   x-rot acc   y-rot acc   z-rot acc
    22626 -8.31954E-04-3.96019E-05-6.33989E-05-6.01870E-04-1.57639E-05-3.89345E-05-5.87264E-04 1.97268E-05-5.22676E-05



 n o d a l   p r i n t   o u t   f o r   t i m e  s t e p    8201                              ( at time 4.0995897E+00 )

 nodal point  x-disp     y-disp      z-disp      x-vel       y-vel       z-vel      x-accl      y-accl      z-accl      x-coor      y-coor      z-coor
    22626 -1.80475E-03 1.60759E-01-3.01951E-01-2.62515E-03 9.15698E-02-1.03501E-01 3.97549E-04 8.82292E-02-7.81136E-03 4.65757E+00-2.80301E+01-4.52837E+01



 n o d a l   p r i n t   o u t   f o r   t i m e  s t e p    8201                              ( at time 4.0995897E+00 )

 nodal point  x-rot      y-rot       z-rot       x-rot vel   y-rot vel   z-rot vel   x-rot acc   y-rot acc   z-rot acc
    22626 -8.94231E-04-4.13274E-05-6.82144E-05-6.69240E-04-2.00726E-05-4.81746E-05-6.73774E-04-4.30914E-05-9.24102E-05



 n o d a l   p r i n t   o u t   f o r   t i m e  s t e p    8401                              ( at time 4.1995797E+00 )

 nodal point  x-disp     y-disp      z-disp      x-vel       y-vel       z-vel      x-accl      y-accl      z-accl      x-coor      y-coor      z-coor
    22626 -2.14155E-03 1.70404E-01-3.12322E-01-3.78628E-03 1.01056E-01-1.04011E-01-1.16125E-02 9.48728E-02-5.10550E-03 4.65723E+00-2.80204E+01-4.52940E+01



 n o d a l   p r i n t   o u t   f o r   t i m e  s t e p    8401                              ( at time 4.1995797E+00 )

 nodal point  x-rot      y-rot       z-rot       x-rot vel   y-rot vel   z-rot vel   x-rot acc   y-rot acc   z-rot acc
    22626 -9.64252E-04-4.34941E-05-7.36964E-05-7.44164E-04-2.03510E-05-5.71419E-05-7.49310E-04-2.78406E-06-8.96827E-05



 n o d a l   p r i n t   o u t   f o r   t i m e  s t e p    8601                              ( at time 4.2995697E+00 )

 nodal point  x-disp     y-disp      z-disp      x-vel       y-vel       z-vel      x-accl      y-accl      z-accl      x-coor      y-coor      z-coor
    22626 -2.51264E-03 1.81043E-01-3.22707E-01-3.89277E-03 1.12605E-01-1.03383E-01-1.06495E-03 1.15499E-01 6.28654E-03 4.65686E+00-2.80098E+01-4.53044E+01



 n o d a l   p r i n t   o u t   f o r   t i m e  s t e p    8601                              ( at time 4.2995697E+00 )

 nodal point  x-rot      y-rot       z-rot       x-rot vel   y-rot vel   z-rot vel   x-rot acc   y-rot acc   z-rot acc
    22626 -1.04125E-03-4.56931E-05-7.89788E-05-8.03730E-04-1.78488E-05-5.07878E-05-5.95721E-04 2.50237E-05 6.35473E-05



 n o d a l   p r i n t   o u t   f o r   t i m e  s t e p    8801                              ( at time 4.3995597E+00 )

 nodal point  x-disp     y-disp      z-disp      x-vel       y-vel       z-vel      x-accl      y-accl      z-accl      x-coor      y-coor      z-coor
    22626 -2.93427E-03 1.92817E-01-3.32967E-01-4.29682E-03 1.22900E-01-1.01439E-01-4.04090E-03 1.02959E-01 1.94449E-02 4.65644E+00-2.79980E+01-4.53147E+01



 n o d a l   p r i n t   o u t   f o r   t i m e  s t e p    8801                              ( at time 4.3995597E+00 )

 nodal point  x-rot      y-rot       z-rot       x-rot vel   y-rot vel   z-rot vel   x-rot acc   y-rot acc   z-rot acc
    22626 -1.12680E-03-4.76835E-05-8.42390E-05-9.04815E-04-2.12804E-05-6.38268E-05-1.01096E-03-3.43186E-05-1.30403E-04



 n o d a l   p r i n t   o u t   f o r   t i m e  s t e p    9001                              ( at time 4.4995497E+00 )

 nodal point  x-disp     y-disp      z-disp      x-vel       y-vel       z-vel      x-accl      y-accl      z-accl      x-coor      y-coor      z-coor
    22626 -3.38478E-03 2.05771E-01-3.43133E-01-4.67188E-03 1.36922E-01-1.02117E-01-3.75101E-03 1.40241E-01-6.78724E-03 4.65599E+00-2.79851E+01-4.53249E+01



 n o d a l   p r i n t   o u t   f o r   t i m e  s t e p    9001                              ( at time 4.4995497E+00 )

 nodal point  x-rot      y-rot       z-rot       x-rot vel   y-rot vel   z-rot vel   x-rot acc   y-rot acc   z-rot acc
    22626 -1.22260E-03-5.00291E-05-9.06065E-05-1.00859E-03-2.47584E-05-5.62406E-05-1.03785E-03-3.47833E-05 7.58695E-05



 n o d a l   p r i n t   o u t   f o r   t i m e  s t e p    9201                              ( at time 4.5995397E+00 )

 nodal point  x-disp     y-disp      z-disp      x-vel       y-vel       z-vel      x-accl      y-accl      z-accl      x-coor      y-coor      z-coor
    22626 -3.83226E-03 2.20150E-01-3.53363E-01-4.51039E-03 1.50747E-01-1.02759E-01 1.61511E-03 1.38260E-01-6.41977E-03 4.65554E+00-2.79707E+01-4.53351E+01



 n o d a l   p r i n t   o u t   f o r   t i m e  s t e p    9201                              ( at time 4.5995397E+00 )

 nodal point  x-rot      y-rot       z-rot       x-rot vel   y-rot vel   z-rot vel   x-rot acc   y-rot acc   z-rot acc
    22626 -1.32716E-03-5.24333E-05-9.57990E-05-1.10435E-03-3.00794E-05-5.10348E-05-9.57687E-04-5.32156E-05 5.20638E-05



 n o d a l   p r i n t   o u t   f o r   t i m e  s t e p    9401                              ( at time 4.6995297E+00 )

 nodal point  x-disp     y-disp      z-disp      x-vel       y-vel       z-vel      x-accl      y-accl      z-accl      x-coor      y-coor      z-coor
    22626 -4.28324E-03 2.35932E-01-3.63646E-01-4.64925E-03 1.65031E-01-1.02613E-01-1.38879E-03 1.42852E-01 1.46508E-03 4.65509E+00-2.79549E+01-4.53454E+01



 n o d a l   p r i n t   o u t   f o r   t i m e  s t e p    9401                              ( at time 4.6995297E+00 )

 nodal point  x-rot      y-rot       z-rot       x-rot vel   y-rot vel   z-rot vel   x-rot acc   y-rot acc   z-rot acc
    22626 -1.44287E-03-5.53832E-05-1.01779E-04-1.21357E-03-2.83613E-05-6.07408E-05-1.09236E-03 1.71830E-05-9.70701E-05



 n o d a l   p r i n t   o u t   f o r   t i m e  s t e p    9601                              ( at time 4.7995197E+00 )

 nodal point  x-disp     y-disp      z-disp      x-vel       y-vel       z-vel      x-accl      y-accl      z-accl      x-coor      y-coor      z-coor
    22626 -4.74792E-03 2.53200E-01-3.73869E-01-4.52286E-03 1.80596E-01-1.01137E-01 1.26409E-03 1.55672E-01 1.47625E-02 4.65463E+00-2.79376E+01-4.53556E+01



 n o d a l   p r i n t   o u t   f o r   t i m e  s t e p    9601                              ( at time 4.7995197E+00 )

 nodal point  x-rot      y-rot       z-rot       x-rot vel   y-rot vel   z-rot vel   x-rot acc   y-rot acc   z-rot acc
    22626 -1.57056E-03-5.82971E-05-1.07385E-04-1.34105E-03-3.26803E-05-5.70296E-05-1.27484E-03-4.31952E-05 3.71158E-05



 n o d a l   p r i n t   o u t   f o r   t i m e  s t e p    9801                              ( at time 4.8995097E+00 )

 nodal point  x-disp     y-disp      z-disp      x-vel       y-vel       z-vel      x-accl      y-accl      z-accl      x-coor      y-coor      z-coor
    22626 -5.23149E-03 2.72055E-01-3.83923E-01-5.39462E-03 1.96509E-01-1.00081E-01-8.71852E-03 1.59143E-01 1.05538E-02 4.65414E+00-2.79188E+01-4.53656E+01



 n o d a l   p r i n t   o u t   f o r   t i m e  s t e p    9801                              ( at time 4.8995097E+00 )

 nodal point  x-rot      y-rot       z-rot       x-rot vel   y-rot vel   z-rot vel   x-rot acc   y-rot acc   z-rot acc
    22626 -1.71075E-03-6.24921E-05-1.14151E-04-1.45975E-03-4.40357E-05-7.30554E-05-1.18714E-03-1.13565E-04-1.60274E-04



 n o d a l   p r i n t   o u t   f o r   t i m e  s t e p   10001                              ( at time 4.9994997E+00 )

 nodal point  x-disp     y-disp      z-disp      x-vel       y-vel       z-vel      x-accl      y-accl      z-accl      x-coor      y-coor      z-coor
    22626 -5.74045E-03 2.92546E-01-3.93942E-01-4.38679E-03 2.13063E-01-1.00637E-01 1.00793E-02 1.65555E-01-5.55576E-03 4.65363E+00-2.78983E+01-4.53757E+01



 n o d a l   p r i n t   o u t   f o r   t i m e  s t e p   10001                              ( at time 4.9994997E+00 )

 nodal point  x-rot      y-rot       z-rot       x-rot vel   y-rot vel   z-rot vel   x-rot acc   y-rot acc   z-rot acc
    22626 -1.86230E-03-6.68259E-05-1.21214E-04-1.58346E-03-4.63063E-05-6.23651E-05-1.23726E-03-2.27085E-05 1.06913E-04



 n o d a l   p r i n t   o u t   f o r   t i m e  s t e p   10202                              ( at time 5.0999896E+00 )

 nodal point  x-disp     y-disp      z-disp      x-vel       y-vel       z-vel      x-accl      y-accl      z-accl      x-coor      y-coor      z-coor
    22626 -6.24177E-03 3.14825E-01-4.04006E-01-5.61566E-03 2.29996E-01-9.99766E-02-1.22289E-02 1.68508E-01 6.56927E-03 4.65313E+00-2.78760E+01-4.53857E+01



 n o d a l   p r i n t   o u t   f o r   t i m e  s t e p   10202                              ( at time 5.0999896E+00 )

 nodal point  x-rot      y-rot       z-rot       x-rot vel   y-rot vel   z-rot vel   x-rot acc   y-rot acc   z-rot acc
    22626 -2.02744E-03-7.23164E-05-1.28059E-04-1.71794E-03-6.09863E-05-7.87768E-05-1.33825E-03-1.46085E-04-1.63318E-04



 n o d a l   p r i n t   o u t   f o r   t i m e  s t e p   10402                              ( at time 5.1999796E+00 )

 nodal point  x-disp     y-disp      z-disp      x-vel       y-vel       z-vel      x-accl      y-accl      z-accl      x-coor      y-coor      z-coor
    22626 -6.85639E-03 3.38680E-01-4.13915E-01-6.52441E-03 2.46909E-01-9.83203E-02-9.08831E-03 1.69143E-01 1.65651E-02 4.65252E+00-2.78521E+01-4.53956E+01



 n o d a l   p r i n t   o u t   f o r   t i m e  s t e p   10402                              ( at time 5.1999796E+00 )

 nodal point  x-rot      y-rot       z-rot       x-rot vel   y-rot vel   z-rot vel   x-rot acc   y-rot acc   z-rot acc
    22626 -2.20509E-03-7.82260E-05-1.36765E-04-1.84870E-03-5.76374E-05-8.26743E-05-1.30775E-03 3.34927E-05-3.89787E-05



 n o d a l   p r i n t   o u t   f o r   t i m e  s t e p   10602                              ( at time 5.2999696E+00 )

 nodal point  x-disp     y-disp      z-disp      x-vel       y-vel       z-vel      x-accl      y-accl      z-accl      x-coor      y-coor      z-coor
    22626 -7.48213E-03 3.64274E-01-4.23660E-01-5.80091E-03 2.64953E-01-9.69458E-02 7.23569E-03 1.80464E-01 1.37464E-02 4.65189E+00-2.78266E+01-4.54054E+01



 n o d a l   p r i n t   o u t   f o r   t i m e  s t e p   10602                              ( at time 5.2999696E+00 )

 nodal point  x-rot      y-rot       z-rot       x-rot vel   y-rot vel   z-rot vel   x-rot acc   y-rot acc   z-rot acc
    22626 -2.39590E-03-8.42446E-05-1.44533E-04-1.97982E-03-6.54366E-05-7.57168E-05-1.31132E-03-7.80001E-05 6.95824E-05



 n o d a l   p r i n t   o u t   f o r   t i m e  s t e p   10802                              ( at time 5.3999596E+00 )

 nodal point  x-disp     y-disp      z-disp      x-vel       y-vel       z-vel      x-accl      y-accl      z-accl      x-coor      y-coor      z-coor
    22626 -8.15254E-03 3.91650E-01-4.33253E-01-7.23340E-03 2.82760E-01-9.52112E-02-1.43264E-02 1.78081E-01 1.73477E-02 4.65122E+00-2.77992E+01-4.54150E+01



 n o d a l   p r i n t   o u t   f o r   t i m e  s t e p   10802                              ( at time 5.3999596E+00 )

 nodal point  x-rot      y-rot       z-rot       x-rot vel   y-rot vel   z-rot vel   x-rot acc   y-rot acc   z-rot acc
    22626 -2.59972E-03-9.08087E-05-1.52570E-04-2.10256E-03-6.60609E-05-8.41309E-05-1.22747E-03-6.24377E-06-8.41493E-05



 n o d a l   p r i n t   o u t   f o r   t i m e  s t e p   11002                              ( at time 5.4999496E+00 )

 nodal point  x-disp     y-disp      z-disp      x-vel       y-vel       z-vel      x-accl      y-accl      z-accl      x-coor      y-coor      z-coor
    22626 -8.88901E-03 4.20802E-01-4.42715E-01-7.60940E-03 3.00499E-01-9.38185E-02-3.76033E-03 1.77409E-01 1.39280E-02 4.65049E+00-2.77700E+01-4.54244E+01



 n o d a l   p r i n t   o u t   f o r   t i m e  s t e p   11002                              ( at time 5.4999496E+00 )

 nodal point  x-rot      y-rot       z-rot       x-rot vel   y-rot vel   z-rot vel   x-rot acc   y-rot acc   z-rot acc
    22626 -2.81653E-03-9.77146E-05-1.61681E-04-2.24387E-03-8.16523E-05-9.70005E-05-1.41328E-03-1.55929E-04-1.28709E-04



 n o d a l   p r i n t   o u t   f o r   t i m e  s t e p   11202                              ( at time 5.5999396E+00 )

 nodal point  x-disp     y-disp      z-disp      x-vel       y-vel       z-vel      x-accl      y-accl      z-accl      x-coor      y-coor      z-coor
    22626 -9.71878E-03 4.51724E-01-4.51922E-01-8.69142E-03 3.17982E-01-9.03324E-02-1.08213E-02 1.74852E-01 3.48651E-02 4.64966E+00-2.77391E+01-4.54336E+01



 n o d a l   p r i n t   o u t   f o r   t i m e  s t e p   11202                              ( at time 5.5999396E+00 )

 nodal point  x-rot      y-rot       z-rot       x-rot vel   y-rot vel   z-rot vel   x-rot acc   y-rot acc   z-rot acc
    22626 -3.04740E-03-1.05837E-04-1.71427E-04-2.37744E-03-7.83781E-05-9.88078E-05-1.33582E-03 3.27448E-05-1.80749E-05



 n o d a l   p r i n t   o u t   f o r   t i m e  s t e p   11402                              ( at time 5.6999296E+00 )

 nodal point  x-disp     y-disp      z-disp      x-vel       y-vel       z-vel      x-accl      y-accl      z-accl      x-coor      y-coor      z-coor
    22626 -1.05415E-02 4.84435E-01-4.60786E-01-8.00903E-03 3.35962E-01-8.64186E-02 6.82455E-03 1.79816E-01 3.91417E-02 4.64883E+00-2.77064E+01-4.54425E+01



 n o d a l   p r i n t   o u t   f o r   t i m e  s t e p   11402                              ( at time 5.6999296E+00 )

 nodal point  x-rot      y-rot       z-rot       x-rot vel   y-rot vel   z-rot vel   x-rot acc   y-rot acc   z-rot acc
    22626 -3.29173E-03-1.14108E-04-1.81350E-04-2.51156E-03-8.92650E-05-9.55612E-05-1.34136E-03-1.08879E-04 3.24690E-05



 n o d a l   p r i n t   o u t   f o r   t i m e  s t e p   11602                              ( at time 5.7999195E+00 )

 nodal point  x-disp     y-disp      z-disp      x-vel       y-vel       z-vel      x-accl      y-accl      z-accl      x-coor      y-coor      z-coor
    22626 -1.13868E-02 5.18918E-01-4.69184E-01-9.11254E-03 3.53600E-01-8.17662E-02-1.10362E-02 1.76395E-01 4.65280E-02 4.64799E+00-2.76719E+01-4.54509E+01



 n o d a l   p r i n t   o u t   f o r   t i m e  s t e p   11602                              ( at time 5.7999195E+00 )

 nodal point  x-rot      y-rot       z-rot       x-rot vel   y-rot vel   z-rot vel   x-rot acc   y-rot acc   z-rot acc
    22626 -3.54938E-03-1.23560E-04-1.91841E-04-2.64722E-03-9.47884E-05-1.09359E-04-1.35674E-03-5.52394E-05-1.37989E-04



 n o d a l   p r i n t   o u t   f o r   t i m e  s t e p   11802                              ( at time 5.8999095E+00 )

 nodal point  x-disp     y-disp      z-disp      x-vel       y-vel       z-vel      x-accl      y-accl      z-accl      x-coor      y-coor      z-coor
    22626 -1.23843E-02 5.55233E-01-4.77229E-01-1.03724E-02 3.72296E-01-7.90983E-02-1.25999E-02 1.86985E-01 2.66820E-02 4.64699E+00-2.76356E+01-4.54590E+01



 n o d a l   p r i n t   o u t   f o r   t i m e  s t e p   11802                              ( at time 5.8999095E+00 )

 nodal point  x-rot      y-rot       z-rot       x-rot vel   y-rot vel   z-rot vel   x-rot acc   y-rot acc   z-rot acc
    22626 -3.82064E-03-1.32826E-04-2.03434E-04-2.78584E-03-9.43159E-05-1.17143E-04-1.38633E-03 4.72498E-06-7.78507E-05



 n o d a l   p r i n t   o u t   f o r   t i m e  s t e p   12002                              ( at time 5.9998995E+00 )

 nodal point  x-disp     y-disp      z-disp      x-vel       y-vel       z-vel      x-accl      y-accl      z-accl      x-coor      y-coor      z-coor
    22626 -1.34338E-02 5.93359E-01-4.84903E-01-1.07928E-02 3.90345E-01-7.43620E-02-4.20454E-03 1.80508E-01 4.73675E-02 4.64594E+00-2.75975E+01-4.54666E+01



 n o d a l   p r i n t   o u t   f o r   t i m e  s t e p   12002                              ( at time 5.9998995E+00 )

 nodal point  x-rot      y-rot       z-rot       x-rot vel   y-rot vel   z-rot vel   x-rot acc   y-rot acc   z-rot acc
    22626 -4.10547E-03-1.42425E-04-2.14730E-04-2.93015E-03-1.02613E-04-1.10922E-04-1.44324E-03-8.29792E-05 6.22124E-05



 n o d a l   p r i n t   o u t   f o r   t i m e  s t e p   12202                              ( at time 6.0998895E+00 )

 nodal point  x-disp     y-disp      z-disp      x-vel       y-vel       z-vel      x-accl      y-accl      z-accl      x-coor      y-coor      z-coor
    22626 -1.45096E-02 6.33298E-01-4.92052E-01-1.11874E-02 4.08294E-01-6.86918E-02-3.94660E-03 1.79507E-01 5.67079E-02 4.64487E+00-2.75575E+01-4.54738E+01



 n o d a l   p r i n t   o u t   f o r   t i m e  s t e p   12202                              ( at time 6.0998895E+00 )

 nodal point  x-rot      y-rot       z-rot       x-rot vel   y-rot vel   z-rot vel   x-rot acc   y-rot acc   z-rot acc
    22626 -4.40477E-03-1.53160E-04-2.26382E-04-3.07200E-03-1.11775E-04-1.26416E-04-1.41858E-03-9.16296E-05-1.54951E-04



 n o d a l   p r i n t   o u t   f o r   t i m e  s t e p   12402                              ( at time 6.1998795E+00 )

 nodal point  x-disp     y-disp      z-disp      x-vel       y-vel       z-vel      x-accl      y-accl      z-accl      x-coor      y-coor      z-coor
    22626 -1.56971E-02 6.75057E-01-4.98646E-01-1.17102E-02 4.27451E-01-6.35460E-02-5.22829E-03 1.91582E-01 5.14635E-02 4.64368E+00-2.75158E+01-4.54804E+01



 n o d a l   p r i n t   o u t   f o r   t i m e  s t e p   12402                              ( at time 6.1998795E+00 )

 nodal point  x-rot      y-rot       z-rot       x-rot vel   y-rot vel   z-rot vel   x-rot acc   y-rot acc   z-rot acc
    22626 -4.71820E-03-1.63900E-04-2.38814E-04-3.21258E-03-1.00646E-04-1.20838E-04-1.40600E-03 1.11304E-04 5.57814E-05



 n o d a l   p r i n t   o u t   f o r   t i m e  s t e p   12602                              ( at time 6.2998695E+00 )

 nodal point  x-disp     y-disp      z-disp      x-vel       y-vel       z-vel      x-accl      y-accl      z-accl      x-coor      y-coor      z-coor
    22626 -1.68341E-02 7.18698E-01-5.04758E-01-1.13930E-02 4.45376E-01-5.85143E-02 3.17272E-03 1.79276E-01 5.03215E-02 4.64254E+00-2.74721E+01-4.54865E+01



 n o d a l   p r i n t   o u t   f o r   t i m e  s t e p   12602                              ( at time 6.2998695E+00 )

 nodal point  x-rot      y-rot       z-rot       x-rot vel   y-rot vel   z-rot vel   x-rot acc   y-rot acc   z-rot acc
    22626 -5.04578E-03-1.74007E-04-2.50295E-04-3.34384E-03-1.05577E-04-1.11134E-04-1.31273E-03-4.93159E-05 9.70573E-05



 n o d a l   p r i n t   o u t   f o r   t i m e  s t e p   12802                              ( at time 6.3998595E+00 )

 nodal point  x-disp     y-disp      z-disp      x-vel       y-vel       z-vel      x-accl      y-accl      z-accl      x-coor      y-coor      z-coor
    22626 -1.80038E-02 7.64160E-01-5.10301E-01-1.22962E-02 4.64431E-01-5.14013E-02-9.03306E-03 1.90569E-01 7.11377E-02 4.64137E+00-2.74267E+01-4.54920E+01



 n o d a l   p r i n t   o u t   f o r   t i m e  s t e p   12802                              ( at time 6.3998595E+00 )

 nodal point  x-rot      y-rot       z-rot       x-rot vel   y-rot vel   z-rot vel   x-rot acc   y-rot acc   z-rot acc
    22626 -5.38681E-03-1.85289E-04-2.61668E-04-3.48222E-03-1.21360E-04-1.20879E-04-1.38397E-03-1.57852E-04-9.74654E-05



 n o d a l   p r i n t   o u t   f o r   t i m e  s t e p   13002                              ( at time 6.4998495E+00 )

 nodal point  x-disp     y-disp      z-disp      x-vel       y-vel       z-vel      x-accl      y-accl      z-accl      x-coor      y-coor      z-coor
    22626 -1.92615E-02 8.11476E-01-5.15074E-01-1.26382E-02 4.81998E-01-4.35646E-02-3.42056E-03 1.75686E-01 7.83745E-02 4.64011E+00-2.73794E+01-4.54968E+01



 n o d a l   p r i n t   o u t   f o r   t i m e  s t e p   13002                              ( at time 6.4998495E+00 )

 nodal point  x-rot      y-rot       z-rot       x-rot vel   y-rot vel   z-rot vel   x-rot acc   y-rot acc   z-rot acc
    22626 -5.74322E-03-1.97339E-04-2.73932E-04-3.64038E-03-1.20975E-04-1.25393E-04-1.58168E-03 3.85796E-06-4.51430E-05



 n o d a l   p r i n t   o u t   f o r   t i m e  s t e p   13202                              ( at time 6.5998395E+00 )

 nodal point  x-disp     y-disp      z-disp      x-vel       y-vel       z-vel      x-accl      y-accl      z-accl      x-coor      y-coor      z-coor
    22626 -2.04927E-02 8.60545E-01-5.19043E-01-1.22856E-02 4.99417E-01-3.55613E-02 3.52631E-03 1.74204E-01 8.00407E-02 4.63888E+00-2.73303E+01-4.55008E+01



 n o d a l   p r i n t   o u t   f o r   t i m e  s t e p   13202                              ( at time 6.5998395E+00 )

 nodal point  x-rot      y-rot       z-rot       x-rot vel   y-rot vel   z-rot vel   x-rot acc   y-rot acc   z-rot acc
    22626 -6.11371E-03-2.08790E-04-2.85935E-04-3.77136E-03-1.11177E-04-1.15806E-04-1.31001E-03 9.79862E-05 9.58802E-05



 n o d a l   p r i n t   o u t   f o r   t i m e  s t e p   13402                              ( at time 6.6998295E+00 )

 nodal point  x-disp     y-disp      z-disp      x-vel       y-vel       z-vel      x-accl      y-accl      z-accl      x-coor      y-coor      z-coor
    22626 -2.17469E-02 9.11386E-01-5.22170E-01-1.24064E-02 5.16903E-01-2.69598E-02-1.20779E-03 1.74879E-01 8.60241E-02 4.63763E+00-2.72794E+01-4.55039E+01



 n o d a l   p r i n t   o u t   f o r   t i m e  s t e p   13402                              ( at time 6.6998295E+00 )

 nodal point  x-rot      y-rot       z-rot       x-rot vel   y-rot vel   z-rot vel   x-rot acc   y-rot acc   z-rot acc
    22626 -6.49758E-03-2.20320E-04-2.97841E-04-3.91481E-03-1.28002E-04-1.27787E-04-1.43456E-03-1.68264E-04-1.19826E-04



 n o d a l   p r i n t   o u t   f o r   t i m e  s t e p   13602                              ( at time 6.7998195E+00 )

 nodal point  x-disp     y-disp      z-disp      x-vel       y-vel       z-vel      x-accl      y-accl      z-accl      x-coor      y-coor      z-coor
    22626 -2.30655E-02 9.63969E-01-5.24435E-01-1.38327E-02 5.34757E-01-1.85915E-02-1.42642E-02 1.78556E-01 8.36913E-02 4.63631E+00-2.72269E+01-4.55062E+01



 n o d a l   p r i n t   o u t   f o r   t i m e  s t e p   13602                              ( at time 6.7998195E+00 )

 nodal point  x-rot      y-rot       z-rot       x-rot vel   y-rot vel   z-rot vel   x-rot acc   y-rot acc   z-rot acc
    22626 -6.89690E-03-2.34287E-04-3.10781E-04-4.07729E-03-1.37817E-04-1.26477E-04-1.62501E-03-9.81606E-05 1.31061E-05



 n o d a l   p r i n t   o u t   f o r   t i m e  s t e p   13802                              ( at time 6.8998095E+00 )

 nodal point  x-disp     y-disp      z-disp      x-vel       y-vel       z-vel      x-accl      y-accl      z-accl      x-coor      y-coor      z-coor
    22626 -2.44416E-02 1.01833E+00-5.25771E-01-1.39187E-02 5.52341E-01-8.24844E-03-8.60573E-04 1.75856E-01 1.03441E-01 4.63493E+00-2.71725E+01-4.55075E+01



 n o d a l   p r i n t   o u t   f o r   t i m e  s t e p   13802                              ( at time 6.8998095E+00 )

 nodal point  x-rot      y-rot       z-rot       x-rot vel   y-rot vel   z-rot vel   x-rot acc   y-rot acc   z-rot acc
    22626 -7.31122E-03-2.46760E-04-3.23489E-04-4.21887E-03-1.15812E-04-1.22370E-04-1.41595E-03 2.20071E-04 4.10708E-05



 n o d a l   p r i n t   o u t   f o r   t i m e  s t e p   14002                              ( at time 6.9997995E+00 )

 nodal point  x-disp     y-disp      z-disp      x-vel       y-vel       z-vel      x-accl      y-accl      z-accl      x-coor      y-coor      z-coor
    22626 -2.58058E-02 1.07444E+00-5.26094E-01-1.33483E-02 5.70022E-01 1.50693E-03 5.70468E-03 1.76836E-01 9.75635E-02 4.63357E+00-2.71164E+01-4.55078E+01



 n o d a l   p r i n t   o u t   f o r   t i m e  s t e p   14002                              ( at time 6.9997995E+00 )

 nodal point  x-rot      y-rot       z-rot       x-rot vel   y-rot vel   z-rot vel   x-rot acc   y-rot acc   z-rot acc
    22626 -7.73988E-03-2.59100E-04-3.35820E-04-4.36065E-03-1.33523E-04-1.25779E-04-1.41796E-03-1.77128E-04-3.40931E-05



 n o d a l   p r i n t   o u t   f o r   t i m e  s t e p   14202                              ( at time 7.0997895E+00 )

 nodal point  x-disp     y-disp      z-disp      x-vel       y-vel       z-vel      x-accl      y-accl      z-accl      x-coor      y-coor      z-coor
    22626 -2.72233E-02 1.13236E+00-5.25382E-01-1.47941E-02 5.88383E-01 1.29356E-02-1.44593E-02 1.83627E-01 1.14298E-01 4.63215E+00-2.70585E+01-4.55071E+01



 n o d a l   p r i n t   o u t   f o r   t i m e  s t e p   14202                              ( at time 7.0997895E+00 )

 nodal point  x-rot      y-rot       z-rot       x-rot vel   y-rot vel   z-rot vel   x-rot acc   y-rot acc   z-rot acc
    22626 -8.18281E-03-2.72911E-04-3.48200E-04-4.50902E-03-1.33879E-04-1.29338E-04-1.48377E-03-3.56120E-06-3.55877E-05



 n o d a l   p r i n t   o u t   f o r   t i m e  s t e p   14402                              ( at time 7.1997794E+00 )

 nodal point  x-disp     y-disp      z-disp      x-vel       y-vel       z-vel      x-accl      y-accl      z-accl      x-coor      y-coor      z-coor
    22626 -2.87110E-02 1.19204E+00-5.23523E-01-1.50854E-02 6.05264E-01 2.43269E-02-2.91375E-03 1.68825E-01 1.13924E-01 4.63066E+00-2.69988E+01-4.55052E+01



 n o d a l   p r i n t   o u t   f o r   t i m e  s t e p   14402                              ( at time 7.1997794E+00 )

 nodal point  x-rot      y-rot       z-rot       x-rot vel   y-rot vel   z-rot vel   x-rot acc   y-rot acc   z-rot acc
    22626 -8.64101E-03-2.85882E-04-3.61317E-04-4.65233E-03-1.31282E-04-1.27473E-04-1.43329E-03 2.59707E-05 1.86477E-05



 n o d a l   p r i n t   o u t   f o r   t i m e  s t e p   14602                              ( at time 7.2997694E+00 )

 nodal point  x-disp     y-disp      z-disp      x-vel       y-vel       z-vel      x-accl      y-accl      z-accl      x-coor      y-coor      z-coor
    22626 -3.02003E-02 1.25343E+00-5.20509E-01-1.47969E-02 6.23034E-01 3.69802E-02 2.88599E-03 1.77714E-01 1.26546E-01 4.62917E+00-2.69374E+01-4.55022E+01



 n o d a l   p r i n t   o u t   f o r   t i m e  s t e p   14602                              ( at time 7.2997694E+00 )

 nodal point  x-rot      y-rot       z-rot       x-rot vel   y-rot vel   z-rot vel   x-rot acc   y-rot acc   z-rot acc
    22626 -9.11395E-03-2.98849E-04-3.73842E-04-4.79674E-03-1.26552E-04-1.21886E-04-1.44424E-03 4.73075E-05 5.58717E-05



 n o d a l   p r i n t   o u t   f o r   t i m e  s t e p   14802                              ( at time 7.3997594E+00 )

 nodal point  x-disp     y-disp      z-disp      x-vel       y-vel       z-vel      x-accl      y-accl      z-accl      x-coor      y-coor      z-coor
    22626 -3.17115E-02 1.31652E+00-5.16087E-01-1.56108E-02 6.38908E-01 5.15825E-02-8.13986E-03 1.58762E-01 1.46038E-01 4.62766E+00-2.68743E+01-4.54978E+01



 n o d a l   p r i n t   o u t   f o r   t i m e  s t e p   14802                              ( at time 7.3997594E+00 )

 nodal point  x-rot      y-rot       z-rot       x-rot vel   y-rot vel   z-rot vel   x-rot acc   y-rot acc   z-rot acc
    22626 -9.60125E-03-3.11927E-04-3.86700E-04-4.94904E-03-1.34818E-04-1.37400E-04-1.52321E-03-8.26695E-05-1.55154E-04



 n o d a l   p r i n t   o u t   f o r   t i m e  s t e p   15002                              ( at time 7.4997494E+00 )

 nodal point  x-disp     y-disp      z-disp      x-vel       y-vel       z-vel      x-accl      y-accl      z-accl      x-coor      y-coor      z-coor
    22626 -3.33059E-02 1.38124E+00-5.10214E-01-1.59848E-02 6.55382E-01 6.56600E-02-3.74102E-03 1.64748E-01 1.40788E-01 4.62607E+00-2.68096E+01-4.54919E+01



 n o d a l   p r i n t   o u t   f o r   t i m e  s t e p   15002                              ( at time 7.4997494E+00 )

 nodal point  x-rot      y-rot       z-rot       x-rot vel   y-rot vel   z-rot vel   x-rot acc   y-rot acc   z-rot acc
    22626 -1.01038E-02-3.25533E-04-4.00461E-04-5.10495E-03-1.34486E-04-1.33623E-04-1.55923E-03 3.31656E-06 3.77787E-05



 n o d a l   p r i n t   o u t   f o r   t i m e  s t e p   15202                              ( at time 7.5997394E+00 )

 nodal point  x-disp     y-disp      z-disp      x-vel       y-vel       z-vel      x-accl      y-accl      z-accl      x-coor      y-coor      z-coor
    22626 -3.48627E-02 1.44761E+00-5.02899E-01-1.53966E-02 6.71461E-01 8.04119E-02 5.88287E-03 1.60812E-01 1.47534E-01 4.62451E+00-2.67432E+01-4.54846E+01



 n o d a l   p r i n t   o u t   f o r   t i m e  s t e p   15202                              ( at time 7.5997394E+00 )

 nodal point  x-rot      y-rot       z-rot       x-rot vel   y-rot vel   z-rot vel   x-rot acc   y-rot acc   z-rot acc
    22626 -1.06210E-02-3.38399E-04-4.13350E-04-5.25079E-03-1.23989E-04-1.31679E-04-1.45847E-03 1.04980E-04 1.94435E-05



 n o d a l   p r i n t   o u t   f o r   t i m e  s t e p   15402                              ( at time 7.6997294E+00 )

 nodal point  x-disp     y-disp      z-disp      x-vel       y-vel       z-vel      x-accl      y-accl      z-accl      x-coor      y-coor      z-coor
    22626 -3.64571E-02 1.51560E+00-4.94097E-01-1.64154E-02 6.87453E-01 9.53617E-02-1.01894E-02 1.59939E-01 1.49513E-01 4.62292E+00-2.66752E+01-4.54758E+01



 n o d a l   p r i n t   o u t   f o r   t i m e  s t e p   15402                              ( at time 7.6997294E+00 )

 nodal point  x-rot      y-rot       z-rot       x-rot vel   y-rot vel   z-rot vel   x-rot acc   y-rot acc   z-rot acc
    22626 -1.11530E-02-3.51342E-04-4.27277E-04-5.40445E-03-1.39537E-04-1.44203E-04-1.53681E-03-1.55494E-04-1.25261E-04



 n o d a l   p r i n t   o u t   f o r   t i m e  s t e p   15602                              ( at time 7.7997194E+00 )

 nodal point  x-disp     y-disp      z-disp      x-vel       y-vel       z-vel      x-accl      y-accl      z-accl      x-coor      y-coor      z-coor
    22626 -3.81133E-02 1.58517E+00-4.83733E-01-1.66656E-02 7.04040E-01 1.11976E-01-2.50225E-03 1.65886E-01 1.66156E-01 4.62126E+00-2.66057E+01-4.54655E+01



 n o d a l   p r i n t   o u t   f o r   t i m e  s t e p   15602                              ( at time 7.7997194E+00 )

 nodal point  x-rot      y-rot       z-rot       x-rot vel   y-rot vel   z-rot vel   x-rot acc   y-rot acc   z-rot acc
    22626 -1.17003E-02-3.65541E-04-4.41668E-04-5.55180E-03-1.37232E-04-1.41909E-04-1.47366E-03 2.30545E-05 2.29428E-05



 n o d a l   p r i n t   o u t   f o r   t i m e  s t e p   15802                              ( at time 7.8997094E+00 )

 nodal point  x-disp     y-disp      z-disp      x-vel       y-vel       z-vel      x-accl      y-accl      z-accl      x-coor      y-coor      z-coor
    22626 -3.97963E-02 1.65637E+00-4.71696E-01-1.70829E-02 7.19829E-01 1.28635E-01-4.17290E-03 1.57904E-01 1.66614E-01 4.61958E+00-2.65345E+01-4.54534E+01



 n o d a l   p r i n t   o u t   f o r   t i m e  s t e p   15802                              ( at time 7.8997094E+00 )

 nodal point  x-rot      y-rot       z-rot       x-rot vel   y-rot vel   z-rot vel   x-rot acc   y-rot acc   z-rot acc
    22626 -1.22625E-02-3.78599E-04-4.56336E-04-5.69126E-03-1.25985E-04-1.47399E-04-1.39475E-03 1.12479E-04-5.48989E-05



 n o d a l   p r i n t   o u t   f o r   t i m e  s t e p   16002                              ( at time 7.9996994E+00 )

 nodal point  x-disp     y-disp      z-disp      x-vel       y-vel       z-vel      x-accl      y-accl      z-accl      x-coor      y-coor      z-coor
    22626 -4.15298E-02 1.72913E+00-4.58001E-01-1.75752E-02 7.35220E-01 1.45697E-01-4.92333E-03 1.53927E-01 1.70637E-01 4.61785E+00-2.64617E+01-4.54397E+01



 n o d a l   p r i n t   o u t   f o r   t i m e  s t e p   16002                              ( at time 7.9996994E+00 )

 nodal point  x-rot      y-rot       z-rot       x-rot vel   y-rot vel   z-rot vel   x-rot acc   y-rot acc   z-rot acc
    22626 -1.28389E-02-3.91555E-04-4.71182E-04-5.83916E-03-1.33178E-04-1.46604E-04-1.47916E-03-7.19321E-05 7.94597E-06



 n o d a l   p r i n t   o u t   f o r   t i m e  s t e p   16202                              ( at time 8.0996894E+00 )

 nodal point  x-disp     y-disp      z-disp      x-vel       y-vel       z-vel      x-accl      y-accl      z-accl      x-coor      y-coor      z-coor
    22626 -4.32694E-02 1.80333E+00-4.42570E-01-1.72038E-02 7.49959E-01 1.63085E-01 3.71443E-03 1.47399E-01 1.73898E-01 4.61611E+00-2.63875E+01-4.54243E+01



 n o d a l   p r i n t   o u t   f o r   t i m e  s t e p   16202                              ( at time 8.0996894E+00 )

 nodal point  x-rot      y-rot       z-rot       x-rot vel   y-rot vel   z-rot vel   x-rot acc   y-rot acc   z-rot acc
    22626 -1.34297E-02-4.04398E-04-4.85127E-04-5.97477E-03-1.15019E-04-1.31868E-04-1.35618E-03 1.81606E-04 1.47380E-04



 n o d a l   p r i n t   o u t   f o r   t i m e  s t e p   16402                              ( at time 8.1996794E+00 )

 nodal point  x-disp     y-disp      z-disp      x-vel       y-vel       z-vel      x-accl      y-accl      z-accl      x-coor      y-coor      z-coor
    22626 -4.49910E-02 1.87903E+00-4.25326E-01-1.75585E-02 7.63984E-01 1.82285E-01-3.54792E-03 1.40263E-01 1.92019E-01 4.61438E+00-2.63118E+01-4.54070E+01



 n o d a l   p r i n t   o u t   f o r   t i m e  s t e p   16402                              ( at time 8.1996794E+00 )

 nodal point  x-rot      y-rot       z-rot       x-rot vel   y-rot vel   z-rot vel   x-rot acc   y-rot acc   z-rot acc
    22626 -1.40349E-02-4.16457E-04-4.98350E-04-6.13499E-03-1.29518E-04-1.32476E-04-1.60238E-03-1.45000E-04-6.08011E-06



 n o d a l   p r i n t   o u t   f o r   t i m e  s t e p   16602                              ( at time 8.2996694E+00 )

 nodal point  x-disp     y-disp      z-disp      x-vel       y-vel       z-vel      x-accl      y-accl      z-accl      x-coor      y-coor      z-coor
    22626 -4.67415E-02 1.95612E+00-4.06086E-01-1.73105E-02 7.78022E-01 2.01912E-01 2.48092E-03 1.40393E-01 1.96286E-01 4.61263E+00-2.62347E+01-4.53878E+01



 n o d a l   p r i n t   o u t   f o r   t i m e  s t e p   16602                              ( at time 8.2996694E+00 )

 nodal point  x-rot      y-rot       z-rot       x-rot vel   y-rot vel   z-rot vel   x-rot acc   y-rot acc   z-rot acc
    22626 -1.46557E-02-4.29521E-04-5.12221E-04-6.28071E-03-1.22856E-04-1.44188E-04-1.45730E-03 6.66221E-05-1.17133E-04



 n o d a l   p r i n t   o u t   f o r   t i m e  s t e p   16802                              ( at time 8.3996594E+00 )

 nodal point  x-disp     y-disp      z-disp      x-vel       y-vel       z-vel      x-accl      y-accl      z-accl      x-coor      y-coor      z-coor
    22626 -4.84653E-02 2.03466E+00-3.84873E-01-1.70062E-02 7.92282E-01 2.22157E-01 3.04253E-03 1.42620E-01 2.02474E-01 4.61091E+00-2.61562E+01-4.53666E+01



 n o d a l   p r i n t   o u t   f o r   t i m e  s t e p   16802                              ( at time 8.3996594E+00 )

 nodal point  x-rot      y-rot       z-rot       x-rot vel   y-rot vel   z-rot vel   x-rot acc   y-rot acc   z-rot acc
    22626 -1.52904E-02-4.41787E-04-5.26306E-04-6.41655E-03-1.27210E-04-1.39596E-04-1.35862E-03-4.35458E-05 4.59203E-05



 n o d a l   p r i n t   o u t   f o r   t i m e  s t e p   17002                              ( at time 8.4996494E+00 )

 nodal point  x-disp     y-disp      z-disp      x-vel       y-vel       z-vel      x-accl      y-accl      z-accl      x-coor      y-coor      z-coor
    22626 -5.01670E-02 2.11459E+00-3.61646E-01-1.75719E-02 8.06189E-01 2.42199E-01-5.65707E-03 1.39079E-01 2.00437E-01 4.60921E+00-2.60762E+01-4.53434E+01



 n o d a l   p r i n t   o u t   f o r   t i m e  s t e p   17002                              ( at time 8.4996494E+00 )

 nodal point  x-rot      y-rot       z-rot       x-rot vel   y-rot vel   z-rot vel   x-rot acc   y-rot acc   z-rot acc
    22626 -1.59400E-02-4.55533E-04-5.40280E-04-6.57602E-03-1.36716E-04-1.41343E-04-1.59486E-03-9.50699E-05-1.74689E-05



 n o d a l   p r i n t   o u t   f o r   t i m e  s t e p   17202                              ( at time 8.5996394E+00 )

 nodal point  x-disp     y-disp      z-disp      x-vel       y-vel       z-vel      x-accl      y-accl      z-accl      x-coor      y-coor      z-coor
    22626 -5.19215E-02 2.19589E+00-3.36352E-01-1.74193E-02 8.19835E-01 2.64023E-01 1.52648E-03 1.36480E-01 2.18261E-01 4.60745E+00-2.59949E+01-4.53181E+01



 n o d a l   p r i n t   o u t   f o r   t i m e  s t e p   17202                              ( at time 8.5996394E+00 )

 nodal point  x-rot      y-rot       z-rot       x-rot vel   y-rot vel   z-rot vel   x-rot acc   y-rot acc   z-rot acc
    22626 -1.66055E-02-4.69547E-04-5.55225E-04-6.72510E-03-1.46110E-04-1.57067E-04-1.49089E-03-9.39520E-05-1.57257E-04



 n o d a l   p r i n t   o u t   f o r   t i m e  s t e p   17402                              ( at time 8.6996293E+00 )

 nodal point  x-disp     y-disp      z-disp      x-vel       y-vel       z-vel      x-accl      y-accl      z-accl      x-coor      y-coor      z-coor
    22626 -5.36897E-02 2.27853E+00-3.08866E-01-1.79024E-02 8.33542E-01 2.86191E-01-4.83201E-03 1.37083E-01 2.21698E-01 4.60569E+00-2.59123E+01-4.52906E+01



 n o d a l   p r i n t   o u t   f o r   t i m e  s t e p   17402                              ( at time 8.6996293E+00 )

 nodal point  x-rot      y-rot       z-rot       x-rot vel   y-rot vel   z-rot vel   x-rot acc   y-rot acc   z-rot acc
    22626 -1.72856E-02-4.83942E-04-5.70395E-04-6.86942E-03-1.35477E-04-1.52087E-04-1.44338E-03 1.06340E-04 4.98089E-05



 n o d a l   p r i n t   o u t   f o r   t i m e  s t e p   17602                              ( at time 8.7996193E+00 )

 nodal point  x-disp     y-disp      z-disp      x-vel       y-vel       z-vel      x-accl      y-accl      z-accl      x-coor      y-coor      z-coor
    22626 -5.54477E-02 2.36252E+00-2.79132E-01-1.74755E-02 8.46601E-01 3.08924E-01 4.26945E-03 1.30603E-01 2.27356E-01 4.60393E+00-2.58283E+01-4.52609E+01



 n o d a l   p r i n t   o u t   f o r   t i m e  s t e p   17602                              ( at time 8.7996193E+00 )

 nodal point  x-rot      y-rot       z-rot       x-rot vel   y-rot vel   z-rot vel   x-rot acc   y-rot acc   z-rot acc
    22626 -1.79800E-02-4.97162E-04-5.85240E-04-7.02152E-03-1.40354E-04-1.45823E-04-1.52117E-03-4.87733E-05 6.26443E-05



 n o d a l   p r i n t   o u t   f o r   t i m e  s t e p   17802                              ( at time 8.8996093E+00 )

 nodal point  x-disp     y-disp      z-disp      x-vel       y-vel       z-vel      x-accl      y-accl      z-accl      x-coor      y-coor      z-coor
    22626 -5.72151E-02 2.44780E+00-2.47074E-01-1.81915E-02 8.59669E-01 3.32177E-01-7.16015E-03 1.30689E-01 2.32552E-01 4.60216E+00-2.57430E+01-4.52288E+01



 n o d a l   p r i n t   o u t   f o r   t i m e  s t e p   17802                              ( at time 8.8996093E+00 )

 nodal point  x-rot      y-rot       z-rot       x-rot vel   y-rot vel   z-rot vel   x-rot acc   y-rot acc   z-rot acc
    22626 -1.86892E-02-5.11470E-04-5.99991E-04-7.16790E-03-1.47529E-04-1.54995E-04-1.46390E-03-7.17540E-05-9.17312E-05



 n o d a l   p r i n t   o u t   f o r   t i m e  s t e p   18002                              ( at time 8.9995993E+00 )

 nodal point  x-disp     y-disp      z-disp      x-vel       y-vel       z-vel      x-accl      y-accl      z-accl      x-coor      y-coor      z-coor
    22626 -5.90250E-02 2.53439E+00-2.12707E-01-1.76880E-02 8.72206E-01 3.55712E-01 5.03535E-03 1.25380E-01 2.35371E-01 4.60035E+00-2.56564E+01-4.51944E+01



 n o d a l   p r i n t   o u t   f o r   t i m e  s t e p   18002                              ( at time 8.9995993E+00 )

 nodal point  x-rot      y-rot       z-rot       x-rot vel   y-rot vel   z-rot vel   x-rot acc   y-rot acc   z-rot acc
    22626 -1.94135E-02-5.25949E-04-6.15218E-04-7.32274E-03-1.31790E-04-1.54652E-04-1.54853E-03 1.57405E-04 3.42601E-06



 n o d a l   p r i n t   o u t   f o r   t i m e  s t e p   18202                              ( at time 9.0995893E+00 )

 nodal point  x-disp     y-disp      z-disp      x-vel       y-vel       z-vel      x-accl      y-accl      z-accl      x-coor      y-coor      z-coor
    22626 -6.07603E-02 2.62221E+00-1.75884E-01-1.69901E-02 8.83905E-01 3.80761E-01 6.97948E-03 1.17004E-01 2.50517E-01 4.59861E+00-2.55686E+01-4.51576E+01



 n o d a l   p r i n t   o u t   f o r   t i m e  s t e p   18202                              ( at time 9.0995893E+00 )

 nodal point  x-rot      y-rot       z-rot       x-rot vel   y-rot vel   z-rot vel   x-rot acc   y-rot acc   z-rot acc
    22626 -2.01526E-02-5.38581E-04-6.29365E-04-7.46478E-03-1.27363E-04-1.34329E-04-1.42056E-03 4.42739E-05 2.03255E-04



 n o d a l   p r i n t   o u t   f o r   t i m e  s t e p   18402                              ( at time 9.1995793E+00 )

 nodal point  x-disp     y-disp      z-disp      x-vel       y-vel       z-vel      x-accl      y-accl      z-accl      x-coor      y-coor      z-coor
    22626 -6.24686E-02 2.71121E+00-1.36571E-01-1.73957E-02 8.95973E-01 4.05191E-01-4.05639E-03 1.20695E-01 2.44327E-01 4.59691E+00-2.54796E+01-4.51183E+01



 n o d a l   p r i n t   o u t   f o r   t i m e  s t e p   18402                              ( at time 9.1995793E+00 )

 nodal point  x-rot      y-rot       z-rot       x-rot vel   y-rot vel   z-rot vel   x-rot acc   y-rot acc   z-rot acc
    22626 -2.09061E-02-5.51954E-04-6.43136E-04-7.61566E-03-1.40793E-04-1.44513E-04-1.50901E-03-1.34316E-04-1.01854E-04



 n o d a l   p r i n t   o u t   f o r   t i m e  s t e p   18602                              ( at time 9.2995693E+00 )

 nodal point  x-disp     y-disp      z-disp      x-vel       y-vel       z-vel      x-accl      y-accl      z-accl      x-coor      y-coor      z-coor
    22626 -6.41979E-02 2.80142E+00-9.47602E-02-1.68106E-02 9.07810E-01 4.31227E-01 5.85140E-03 1.18383E-01 2.60386E-01 4.59518E+00-2.53894E+01-4.50765E+01



 n o d a l   p r i n t   o u t   f o r   t i m e  s t e p   18602                              ( at time 9.2995693E+00 )

 nodal point  x-rot      y-rot       z-rot       x-rot vel   y-rot vel   z-rot vel   x-rot acc   y-rot acc   z-rot acc
    22626 -2.16750E-02-5.65551E-04-6.57291E-04-7.76176E-03-1.26245E-04-1.32024E-04-1.46112E-03 1.45501E-04 1.24903E-04



 n o d a l   p r i n t   o u t   f o r   t i m e  s t e p   18802                              ( at time 9.3995593E+00 )

 nodal point  x-disp     y-disp      z-disp      x-vel       y-vel       z-vel      x-accl      y-accl      z-accl      x-coor      y-coor      z-coor
    22626 -6.58310E-02 2.89280E+00-5.03997E-02-1.54707E-02 9.20138E-01 4.55630E-01 1.34005E-02 1.23290E-01 2.44051E-01 4.59354E+00-2.52980E+01-4.50321E+01



 n o d a l   p r i n t   o u t   f o r   t i m e  s t e p   18802                              ( at time 9.3995593E+00 )

 nodal point  x-rot      y-rot       z-rot       x-rot vel   y-rot vel   z-rot vel   x-rot acc   y-rot acc   z-rot acc
    22626 -2.24578E-02-5.77224E-04-6.69733E-04-7.89972E-03-1.10806E-04-1.14545E-04-1.37970E-03 1.54407E-04 1.74807E-04



 n o d a l   p r i n t   o u t   f o r   t i m e  s t e p   19002                              ( at time 9.4995493E+00 )

 nodal point  x-disp     y-disp      z-disp      x-vel       y-vel       z-vel      x-accl      y-accl      z-accl      x-coor      y-coor      z-coor
    22626 -6.73872E-02 2.98539E+00-3.54909E-03-1.57905E-02 9.31102E-01 4.81551E-01-3.19856E-03 1.09654E-01 2.59238E-01 4.59199E+00-2.52054E+01-4.49853E+01



 n o d a l   p r i n t   o u t   f o r   t i m e  s t e p   19002                              ( at time 9.4995493E+00 )

 nodal point  x-rot      y-rot       z-rot       x-rot vel   y-rot vel   z-rot vel   x-rot acc   y-rot acc   z-rot acc
    22626 -2.32549E-02-5.88587E-04-6.81737E-04-8.05260E-03-1.19650E-04-1.15552E-04-1.52900E-03-8.84511E-05-1.00707E-05



 n o d a l   p r i n t   o u t   f o r   t i m e  s t e p   19202                              ( at time 9.5995393E+00 )

 nodal point  x-disp     y-disp      z-disp      x-vel       y-vel       z-vel      x-accl      y-accl      z-accl      x-coor      y-coor      z-coor
    22626 -6.89896E-02 3.07902E+00 4.60150E-02-1.62151E-02 9.41482E-01 5.08857E-01-4.24647E-03 1.03810E-01 2.73086E-01 4.59039E+00-2.51118E+01-4.49357E+01



 n o d a l   p r i n t   o u t   f o r   t i m e  s t e p   19202                              ( at time 9.5995393E+00 )

 nodal point  x-rot      y-rot       z-rot       x-rot vel   y-rot vel   z-rot vel   x-rot acc   y-rot acc   z-rot acc
    22626 -2.40665E-02-6.00924E-04-6.93551E-04-8.18970E-03-1.26103E-04-1.18626E-04-1.37111E-03-6.45367E-05-3.07435E-05



 n o d a l   p r i n t   o u t   f o r   t i m e  s t e p   19402                              ( at time 9.6995293E+00 )

 nodal point  x-disp     y-disp      z-disp      x-vel       y-vel       z-vel      x-accl      y-accl      z-accl      x-coor      y-coor      z-coor
    22626 -7.05706E-02 3.17373E+00 9.82333E-02-1.51060E-02 9.52882E-01 5.35319E-01 1.10927E-02 1.14005E-01 2.64649E-01 4.58880E+00-2.50171E+01-4.48835E+01



 n o d a l   p r i n t   o u t   f o r   t i m e  s t e p   19402                              ( at time 9.6995293E+00 )

 nodal point  x-rot      y-rot       z-rot       x-rot vel   y-rot vel   z-rot vel   x-rot acc   y-rot acc   z-rot acc
    22626 -2.48917E-02-6.12120E-04-7.05325E-04-8.32629E-03-1.00891E-04-1.11759E-04-1.36600E-03 2.52147E-04 6.86807E-05



 n o d a l   p r i n t   o u t   f o r   t i m e  s t e p   19602                              ( at time 9.7995193E+00 )

 nodal point  x-disp     y-disp      z-disp      x-vel       y-vel       z-vel      x-accl      y-accl      z-accl      x-coor      y-coor      z-coor
    22626 -7.20755E-02 3.26956E+00 1.53055E-01-1.59254E-02 9.64055E-01 5.60642E-01-8.19481E-03 1.11740E-01 2.53254E-01 4.58730E+00-2.49213E+01-4.48287E+01



 n o d a l   p r i n t   o u t   f o r   t i m e  s t e p   19602                              ( at time 9.7995193E+00 )

 nodal point  x-rot      y-rot       z-rot       x-rot vel   y-rot vel   z-rot vel   x-rot acc   y-rot acc   z-rot acc
    22626 -2.57314E-02-6.22447E-04-7.16294E-04-8.47238E-03-1.07928E-04-1.09761E-04-1.46114E-03-7.03796E-05 1.99824E-05



 n o d a l   p r i n t   o u t   f o r   t i m e  s t e p   19802                              ( at time 9.8995093E+00 )

 nodal point  x-disp     y-disp      z-disp      x-vel       y-vel       z-vel      x-accl      y-accl      z-accl      x-coor      y-coor      z-coor
    22626 -7.36688E-02 3.36651E+00 2.10439E-01-1.57695E-02 9.75877E-01 5.87146E-01 1.55936E-03 1.18240E-01 2.65068E-01 4.58571E+00-2.48243E+01-4.47713E+01



 n o d a l   p r i n t   o u t   f o r   t i m e  s t e p   19802                              ( at time 9.8995093E+00 )

 nodal point  x-rot      y-rot       z-rot       x-rot vel   y-rot vel   z-rot vel   x-rot acc   y-rot acc   z-rot acc
    22626 -2.65852E-02-6.35238E-04-7.28324E-04-8.61530E-03-1.35098E-04-1.22208E-04-1.42929E-03-2.71725E-04-1.24484E-04



 n o d a l   p r i n t   o u t   f o r   t i m e  s t e p   20003                              ( at time 9.9999992E+00 )

 nodal point  x-disp     y-disp      z-disp      x-vel       y-vel       z-vel      x-accl      y-accl      z-accl      x-coor      y-coor      z-coor
[...]
    22626 -2.03151E-01 2.66007E-04-1.17792E-03-1.69314E-02-2.20047E-04-1.75527E-04 9.12966E-05-1.95529E-04-8.83490E-05



 n o d a l   p r i n t   o u t   f o r   t i m e  s t e p   45205                              ( at time 2.2599738E+01 )

 nodal point  x-disp     y-disp      z-disp      x-vel       y-vel       z-vel      x-accl      y-accl      z-accl      x-coor      y-coor      z-coor
    22626 -2.05451E-01 2.01524E+01 1.73195E+01-4.05836E-03 1.66963E+00 8.13010E-01-6.19843E-04 1.95283E-02-6.41017E-02 4.45392E+00-8.03847E+00-2.76623E+01



 n o d a l   p r i n t   o u t   f o r   t i m e  s t e p   45205                              ( at time 2.2599738E+01 )

 nodal point  x-rot      y-rot       z-rot       x-rot vel   y-rot vel   z-rot vel   x-rot acc   y-rot acc   z-rot acc
    22626 -2.04842E-01 2.43339E-04-1.19600E-03-1.69109E-02-2.23873E-04-1.82192E-04 2.04258E-04-3.82676E-05-6.66578E-05



 n o d a l   p r i n t   o u t   f o r   t i m e  s t e p   45405                              ( at time 2.2699728E+01 )

 nodal point  x-disp     y-disp      z-disp      x-vel       y-vel       z-vel      x-accl      y-accl      z-accl      x-coor      y-coor      z-coor
    22626 -2.05824E-01 2.03194E+01 1.74004E+01-3.38548E-03 1.67127E+00 8.06925E-01 6.72958E-03 1.64062E-02-6.08625E-02 4.45355E+00-7.87143E+00-2.75813E+01



 n o d a l   p r i n t   o u t   f o r   t i m e  s t e p   45405                              ( at time 2.2699728E+01 )

 nodal point  x-rot      y-rot       z-rot       x-rot vel   y-rot vel   z-rot vel   x-rot acc   y-rot acc   z-rot acc
    22626 -2.06533E-01 2.20018E-04-1.21371E-03-1.69034E-02-2.43260E-04-1.75141E-04 7.57249E-05-1.93891E-04 7.05214E-05



 n o d a l   p r i n t   o u t   f o r   t i m e  s t e p   45605                              ( at time 2.2799718E+01 )

 nodal point  x-disp     y-disp      z-disp      x-vel       y-vel       z-vel      x-accl      y-accl      z-accl      x-coor      y-coor      z-coor
    22626 -2.06150E-01 2.04866E+01 1.74808E+01-3.69142E-03 1.67343E+00 8.00860E-01-3.05971E-03 2.15872E-02-6.06557E-02 4.45322E+00-7.70421E+00-2.75009E+01



 n o d a l   p r i n t   o u t   f o r   t i m e  s t e p   45605                              ( at time 2.2799718E+01 )

 nodal point  x-rot      y-rot       z-rot       x-rot vel   y-rot vel   z-rot vel   x-rot acc   y-rot acc   z-rot acc
    22626 -2.08222E-01 1.94859E-04-1.23158E-03-1.68841E-02-2.61878E-04-1.85771E-04 1.92429E-04-1.86197E-04-1.06308E-04



 n o d a l   p r i n t   o u t   f o r   t i m e  s t e p   45805                              ( at time 2.2899708E+01 )

 nodal point  x-disp     y-disp      z-disp      x-vel       y-vel       z-vel      x-accl      y-accl      z-accl      x-coor      y-coor      z-coor
    22626 -2.06480E-01 2.06540E+01 1.75607E+01-2.91008E-03 1.67464E+00 7.96109E-01 7.81420E-03 1.20653E-02-4.75179E-02 4.45290E+00-7.53679E+00-2.74211E+01



 n o d a l   p r i n t   o u t   f o r   t i m e  s t e p   45805                              ( at time 2.2899708E+01 )

 nodal point  x-rot      y-rot       z-rot       x-rot vel   y-rot vel   z-rot vel   x-rot acc   y-rot acc   z-rot acc
    22626 -2.09907E-01 1.68065E-04-1.25007E-03-1.68524E-02-2.78751E-04-1.85848E-04 3.17113E-04-1.68744E-04-7.75703E-07



 n o d a l   p r i n t   o u t   f o r   t i m e  s t e p   46005                              ( at time 2.2999698E+01 )

 nodal point  x-disp     y-disp      z-disp      x-vel       y-vel       z-vel      x-accl      y-accl      z-accl      x-coor      y-coor      z-coor
    22626 -2.06752E-01 2.08215E+01 1.76401E+01-2.17780E-03 1.67576E+00 7.93010E-01 7.32350E-03 1.12556E-02-3.09835E-02 4.45262E+00-7.36930E+00-2.73416E+01



 n o d a l   p r i n t   o u t   f o r   t i m e  s t e p   46005                              ( at time 2.2999698E+01 )

 nodal point  x-rot      y-rot       z-rot       x-rot vel   y-rot vel   z-rot vel   x-rot acc   y-rot acc   z-rot acc
    22626 -2.11591E-01 1.39365E-04-1.26843E-03-1.68184E-02-2.85010E-04-1.83925E-04 3.40467E-04-6.25993E-05 1.92365E-05



 n o d a l   p r i n t   o u t   f o r   t i m e  s t e p   46205                              ( at time 2.3099688E+01 )

 nodal point  x-disp     y-disp      z-disp      x-vel       y-vel       z-vel      x-accl      y-accl      z-accl      x-coor      y-coor      z-coor
    22626 -2.06907E-01 2.09891E+01 1.77193E+01-1.37210E-03 1.67693E+00 7.90940E-01 8.05792E-03 1.16921E-02-2.07060E-02 4.45247E+00-7.20168E+00-2.72625E+01



 n o d a l   p r i n t   o u t   f o r   t i m e  s t e p   46205                              ( at time 2.3099688E+01 )

 nodal point  x-rot      y-rot       z-rot       x-rot vel   y-rot vel   z-rot vel   x-rot acc   y-rot acc   z-rot acc
    22626 -2.13271E-01 1.09291E-04-1.28727E-03-1.67896E-02-3.13748E-04-1.92414E-04 2.87885E-04-2.87406E-04-8.48968E-05



 n o d a l   p r i n t   o u t   f o r   t i m e  s t e p   46405                              ( at time 2.3199678E+01 )

 nodal point  x-disp     y-disp      z-disp      x-vel       y-vel       z-vel      x-accl      y-accl      z-accl      x-coor      y-coor      z-coor
    22626 -2.07073E-01 2.11568E+01 1.77982E+01-1.82603E-03 1.67705E+00 7.88358E-01-4.53974E-03 1.12544E-03-2.58279E-02 4.45230E+00-7.03398E+00-2.71835E+01



 n o d a l   p r i n t   o u t   f o r   t i m e  s t e p   46405                              ( at time 2.3199678E+01 )

 nodal point  x-rot      y-rot       z-rot       x-rot vel   y-rot vel   z-rot vel   x-rot acc   y-rot acc   z-rot acc
    22626 -2.14949E-01 7.70342E-05-1.30622E-03-1.67646E-02-3.24612E-04-1.86335E-04 2.50251E-04-1.08655E-04 6.07953E-05



 n o d a l   p r i n t   o u t   f o r   t i m e  s t e p   46605                              ( at time 2.3299668E+01 )

 nodal point  x-disp     y-disp      z-disp      x-vel       y-vel       z-vel      x-accl      y-accl      z-accl      x-coor      y-coor      z-coor
    22626 -2.07215E-01 2.13245E+01 1.78770E+01-1.28561E-03 1.67678E+00 7.88086E-01 5.40481E-03-2.70516E-03-2.71946E-03 4.45216E+00-6.86632E+00-2.71047E+01



 n o d a l   p r i n t   o u t   f o r   t i m e  s t e p   46605                              ( at time 2.3299668E+01 )

 nodal point  x-rot      y-rot       z-rot       x-rot vel   y-rot vel   z-rot vel   x-rot acc   y-rot acc   z-rot acc
    22626 -2.16623E-01 4.49781E-05-1.32507E-03-1.67368E-02-3.22826E-04-1.92152E-04 2.77621E-04 1.78642E-05-5.81795E-05



 n o d a l   p r i n t   o u t   f o r   t i m e  s t e p   46805                              ( at time 2.3399658E+01 )

 nodal point  x-disp     y-disp      z-disp      x-vel       y-vel       z-vel      x-accl      y-accl      z-accl      x-coor      y-coor      z-coor
    22626 -2.07359E-01 2.14922E+01 1.79557E+01-1.61568E-03 1.67675E+00 7.86909E-01-3.30097E-03-3.02819E-04-1.17652E-02 4.45202E+00-6.69864E+00-2.70260E+01



 n o d a l   p r i n t   o u t   f o r   t i m e  s t e p   46805                              ( at time 2.3399658E+01 )

 nodal point  x-rot      y-rot       z-rot       x-rot vel   y-rot vel   z-rot vel   x-rot acc   y-rot acc   z-rot acc
    22626 -2.18293E-01 1.22865E-05-1.34395E-03-1.67012E-02-3.35486E-04-1.85245E-04 3.55667E-04-1.26606E-04 6.90761E-05



 n o d a l   p r i n t   o u t   f o r   t i m e  s t e p   47005                              ( at time 2.3499648E+01 )

 nodal point  x-disp     y-disp      z-disp      x-vel       y-vel       z-vel      x-accl      y-accl      z-accl      x-coor      y-coor      z-coor
    22626 -2.07485E-01 2.16598E+01 1.80346E+01-8.69753E-04 1.67586E+00 7.88616E-01 7.45992E-03-8.82587E-03 1.70735E-02 4.45189E+00-6.53103E+00-2.69471E+01



 n o d a l   p r i n t   o u t   f o r   t i m e  s t e p   47005                              ( at time 2.3499648E+01 )

 nodal point  x-rot      y-rot       z-rot       x-rot vel   y-rot vel   z-rot vel   x-rot acc   y-rot acc   z-rot acc
    22626 -2.19960E-01-2.06909E-05-1.36232E-03-1.66644E-02-3.23155E-04-1.89490E-04 3.68614E-04 1.23318E-04-4.24569E-05



 n o d a l   p r i n t   o u t   f o r   t i m e  s t e p   47205                              ( at time 2.3599638E+01 )

 nodal point  x-disp     y-disp      z-disp      x-vel       y-vel       z-vel      x-accl      y-accl      z-accl      x-coor      y-coor      z-coor
    22626 -2.07626E-01 2.18274E+01 1.81135E+01-1.59505E-03 1.67468E+00 7.89753E-01-7.25377E-03-1.18269E-02 1.13708E-02 4.45175E+00-6.36347E+00-2.68682E+01



 n o d a l   p r i n t   o u t   f o r   t i m e  s t e p   47205                              ( at time 2.3599638E+01 )

 nodal point  x-rot      y-rot       z-rot       x-rot vel   y-rot vel   z-rot vel   x-rot acc   y-rot acc   z-rot acc
    22626 -2.21623E-01-5.38326E-05-1.38113E-03-1.66038E-02-3.34103E-04-1.86422E-04 6.05483E-04-1.09495E-04 3.06908E-05



 n o d a l   p r i n t   o u t   f o r   t i m e  s t e p   47405                              ( at time 2.3699628E+01 )

 nodal point  x-disp     y-disp      z-disp      x-vel       y-vel       z-vel      x-accl      y-accl      z-accl      x-coor      y-coor      z-coor
    22626 -2.07744E-01 2.19948E+01 1.81926E+01-6.95613E-04 1.67334E+00 7.92199E-01 8.99519E-03-1.34457E-02 2.44586E-02 4.45163E+00-6.19606E+00-2.67891E+01



 n o d a l   p r i n t   o u t   f o r   t i m e  s t e p   47405                              ( at time 2.3699628E+01 )

 nodal point  x-rot      y-rot       z-rot       x-rot vel   y-rot vel   z-rot vel   x-rot acc   y-rot acc   z-rot acc
    22626 -2.23281E-01-8.69932E-05-1.39907E-03-1.65759E-02-3.29137E-04-1.72553E-04 2.79478E-04 4.96647E-05 1.38696E-04



 n o d a l   p r i n t   o u t   f o r   t i m e  s t e p   47605                              ( at time 2.3799618E+01 )

 nodal point  x-disp     y-disp      z-disp      x-vel       y-vel       z-vel      x-accl      y-accl      z-accl      x-coor      y-coor      z-coor
    22626 -2.07853E-01 2.21620E+01 1.82719E+01-1.66524E-03 1.67189E+00 7.94524E-01-9.69737E-03-1.44283E-02 2.32537E-02 4.45152E+00-6.02881E+00-2.67098E+01



 n o d a l   p r i n t   o u t   f o r   t i m e  s t e p   47605                              ( at time 2.3799618E+01 )

 nodal point  x-rot      y-rot       z-rot       x-rot vel   y-rot vel   z-rot vel   x-rot acc   y-rot acc   z-rot acc
    22626 -2.24935E-01-1.19122E-04-1.41637E-03-1.65160E-02-3.15375E-04-1.73963E-04 5.99074E-04 1.37640E-04-1.41012E-05



 n o d a l   p r i n t   o u t   f o r   t i m e  s t e p   47805                              ( at time 2.3899608E+01 )

 nodal point  x-disp     y-disp      z-disp      x-vel       y-vel       z-vel      x-accl      y-accl      z-accl      x-coor      y-coor      z-coor
    22626 -2.08049E-01 2.23291E+01 1.83516E+01-1.94024E-03 1.67019E+00 7.98816E-01-2.75020E-03-1.70044E-02 4.29217E-02 4.45133E+00-5.86171E+00-2.66302E+01



 n o d a l   p r i n t   o u t   f o r   t i m e  s t e p   47805                              ( at time 2.3899608E+01 )

 nodal point  x-rot      y-rot       z-rot       x-rot vel   y-rot vel   z-rot vel   x-rot acc   y-rot acc   z-rot acc
    22626 -2.26584E-01-1.50752E-04-1.43403E-03-1.64643E-02-3.18211E-04-1.76961E-04 5.17267E-04-2.83608E-05-2.99772E-05



 n o d a l   p r i n t   o u t   f o r   t i m e  s t e p   48005                              ( at time 2.3999598E+01 )

 nodal point  x-disp     y-disp      z-disp      x-vel       y-vel       z-vel      x-accl      y-accl      z-accl      x-coor      y-coor      z-coor
    22626 -2.08198E-01 2.24959E+01 1.84316E+01-1.50585E-03 1.66750E+00 8.01991E-01 4.34435E-03-2.69312E-02 3.17585E-02 4.45118E+00-5.69489E+00-2.65502E+01



 n o d a l   p r i n t   o u t   f o r   t i m e  s t e p   48005                              ( at time 2.3999598E+01 )

 nodal point  x-rot      y-rot       z-rot       x-rot vel   y-rot vel   z-rot vel   x-rot acc   y-rot acc   z-rot acc
    22626 -2.28229E-01-1.82412E-04-1.45139E-03-1.64156E-02-3.11509E-04-1.70172E-04 4.86763E-04 6.70196E-05 6.78973E-05



 n o d a l   p r i n t   o u t   f o r   t i m e  s t e p   48205                              ( at time 2.4099588E+01 )

 nodal point  x-disp     y-disp      z-disp      x-vel       y-vel       z-vel      x-accl      y-accl      z-accl      x-coor      y-coor      z-coor
    22626 -2.08339E-01 2.26626E+01 1.85120E+01-9.88735E-04 1.66520E+00 8.06881E-01 5.17164E-03-2.29678E-02 4.89023E-02 4.45104E+00-5.52827E+00-2.64697E+01



 n o d a l   p r i n t   o u t   f o r   t i m e  s t e p   48205                              ( at time 2.4099588E+01 )

 nodal point  x-rot      y-rot       z-rot       x-rot vel   y-rot vel   z-rot vel   x-rot acc   y-rot acc   z-rot acc
    22626 -2.29869E-01-2.13987E-04-1.46798E-03-1.63781E-02-3.17661E-04-1.65976E-04 3.75320E-04-6.15215E-05 4.19560E-05



 n o d a l   p r i n t   o u t   f o r   t i m e  s t e p   48405                              ( at time 2.4199578E+01 )

 nodal point  x-disp     y-disp      z-disp      x-vel       y-vel       z-vel      x-accl      y-accl      z-accl      x-coor      y-coor      z-coor
    22626 -2.08450E-01 2.28289E+01 1.85929E+01-1.07989E-03 1.66142E+00 8.10664E-01-9.11623E-04-3.77959E-02 3.78364E-02 4.45093E+00-5.36195E+00-2.63888E+01



 n o d a l   p r i n t   o u t   f o r   t i m e  s t e p   48405                              ( at time 2.4199578E+01 )

 nodal point  x-rot      y-rot       z-rot       x-rot vel   y-rot vel   z-rot vel   x-rot acc   y-rot acc   z-rot acc
    22626 -2.31504E-01-2.45786E-04-1.48489E-03-1.63276E-02-3.18712E-04-1.72112E-04 5.04628E-04-1.05106E-05-6.13616E-05



 n o d a l   p r i n t   o u t   f o r   t i m e  s t e p   48605                              ( at time 2.4299568E+01 )

 nodal point  x-disp     y-disp      z-disp      x-vel       y-vel       z-vel      x-accl      y-accl      z-accl      x-coor      y-coor      z-coor
    22626 -2.08574E-01 2.29949E+01 1.86743E+01-1.57968E-03 1.65810E+00 8.17494E-01-4.99839E-03-3.32279E-02 6.82995E-02 4.45080E+00-5.19597E+00-2.63074E+01



 n o d a l   p r i n t   o u t   f o r   t i m e  s t e p   48605                              ( at time 2.4299568E+01 )

 nodal point  x-rot      y-rot       z-rot       x-rot vel   y-rot vel   z-rot vel   x-rot acc   y-rot acc   z-rot acc
    22626 -2.33133E-01-2.77273E-04-1.50148E-03-1.62738E-02-3.19987E-04-1.60280E-04 5.38577E-04-1.27574E-05 1.18326E-04



 n o d a l   p r i n t   o u t   f o r   t i m e  s t e p   48805                              ( at time 2.4399558E+01 )

 nodal point  x-disp     y-disp      z-disp      x-vel       y-vel       z-vel      x-accl      y-accl      z-accl      x-coor      y-coor      z-coor
    22626 -2.08687E-01 2.31605E+01 1.87563E+01-9.92816E-04 1.65518E+00 8.23451E-01 5.86918E-03-2.92268E-02 5.95743E-02 4.45069E+00-5.03031E+00-2.62254E+01



 n o d a l   p r i n t   o u t   f o r   t i m e  s t e p   48805                              ( at time 2.4399558E+01 )

 nodal point  x-rot      y-rot       z-rot       x-rot vel   y-rot vel   z-rot vel   x-rot acc   y-rot acc   z-rot acc
    22626 -2.34758E-01-3.09033E-04-1.51757E-03-1.62291E-02-3.14206E-04-1.63286E-04 4.46293E-04 5.78177E-05-3.00597E-05



 n o d a l   p r i n t   o u t   f o r   t i m e  s t e p   49006                              ( at time 2.4500048E+01 )

 nodal point  x-disp     y-disp      z-disp      x-vel       y-vel       z-vel      x-accl      y-accl      z-accl      x-coor      y-coor      z-coor
    22626 -2.08799E-01 2.33266E+01 1.88394E+01-1.09395E-03 1.65086E+00 8.30390E-01-1.00640E-03-4.29498E-02 6.90549E-02 4.45058E+00-4.86421E+00-2.61423E+01



 n o d a l   p r i n t   o u t   f o r   t i m e  s t e p   49006                              ( at time 2.4500048E+01 )

 nodal point  x-rot      y-rot       z-rot       x-rot vel   y-rot vel   z-rot vel   x-rot acc   y-rot acc   z-rot acc
    22626 -2.36386E-01-3.40318E-04-1.53355E-03-1.61752E-02-3.07712E-04-1.61596E-04 5.36521E-04 6.46273E-05 1.68158E-05



 n o d a l   p r i n t   o u t   f o r   t i m e  s t e p   49206                              ( at time 2.4600038E+01 )

 nodal point  x-disp     y-disp      z-disp      x-vel       y-vel       z-vel      x-accl      y-accl      z-accl      x-coor      y-coor      z-coor
    22626 -2.08910E-01 2.34915E+01 1.89228E+01-1.25817E-03 1.64737E+00 8.38060E-01-1.64235E-03-3.49637E-02 7.67105E-02 4.45047E+00-4.69932E+00-2.60589E+01



 n o d a l   p r i n t   o u t   f o r   t i m e  s t e p   49206                              ( at time 2.4600038E+01 )

 nodal point  x-rot      y-rot       z-rot       x-rot vel   y-rot vel   z-rot vel   x-rot acc   y-rot acc   z-rot acc
    22626 -2.37999E-01-3.71343E-04-1.54901E-03-1.61151E-02-3.13197E-04-1.53770E-04 6.00907E-04-5.48596E-05 7.82709E-05



 n o d a l   p r i n t   o u t   f o r   t i m e  s t e p   49406                              ( at time 2.4700028E+01 )

 nodal point  x-disp     y-disp      z-disp      x-vel       y-vel       z-vel      x-accl      y-accl      z-accl      x-coor      y-coor      z-coor
    22626 -2.09009E-01 2.36559E+01 1.90070E+01-1.06471E-03 1.64252E+00 8.46175E-01 1.93474E-03-4.84401E-02 8.11547E-02 4.45037E+00-4.53489E+00-2.59747E+01



 n o d a l   p r i n t   o u t   f o r   t i m e  s t e p   49406                              ( at time 2.4700028E+01 )

 nodal point  x-rot      y-rot       z-rot       x-rot vel   y-rot vel   z-rot vel   x-rot acc   y-rot acc   z-rot acc
    22626 -2.39608E-01-4.02619E-04-1.56418E-03-1.60610E-02-3.11658E-04-1.53894E-04 5.41549E-04 1.53997E-05-1.24535E-06



 n o d a l   p r i n t   o u t   f o r   t i m e  s t e p   49606                              ( at time 2.4800018E+01 )

 nodal point  x-disp     y-disp      z-disp      x-vel       y-vel       z-vel      x-accl      y-accl      z-accl      x-coor      y-coor      z-coor
    22626 -2.09100E-01 2.38200E+01 1.90921E+01-4.83318E-04 1.63775E+00 8.55034E-01 5.81450E-03-4.77322E-02 8.85991E-02 4.45028E+00-4.37088E+00-2.58897E+01



 n o d a l   p r i n t   o u t   f o r   t i m e  s t e p   49606                              ( at time 2.4800018E+01 )

 nodal point  x-rot      y-rot       z-rot       x-rot vel   y-rot vel   z-rot vel   x-rot acc   y-rot acc   z-rot acc
    22626 -2.41211E-01-4.33487E-04-1.57928E-03-1.60126E-02-3.09160E-04-1.52442E-04 4.83457E-04 2.49827E-05 1.45295E-05



 n o d a l   p r i n t   o u t   f o r   t i m e  s t e p   49806                              ( at time 2.4900008E+01 )

 nodal point  x-disp     y-disp      z-disp      x-vel       y-vel       z-vel      x-accl      y-accl      z-accl      x-coor      y-coor      z-coor
    22626 -2.09145E-01 2.39834E+01 1.91780E+01-2.97502E-04 1.63233E+00 8.63748E-01 1.85837E-03-5.41783E-02 8.71463E-02 4.45023E+00-4.20740E+00-2.58037E+01



 n o d a l   p r i n t   o u t   f o r   t i m e  s t e p   49806                              ( at time 2.4900008E+01 )

 nodal point  x-rot      y-rot       z-rot       x-rot vel   y-rot vel   z-rot vel   x-rot acc   y-rot acc   z-rot acc
    22626 -2.42810E-01-4.65013E-04-1.59421E-03-1.59527E-02-3.18550E-04-1.49195E-04 5.99633E-04-9.39154E-05 3.24707E-05



 n o d a l   p r i n t   o u t   f o r   t i m e  s t e p   50006                              ( at time 2.4999998E+01 )

 nodal point  x-disp     y-disp      z-disp      x-vel       y-vel       z-vel      x-accl      y-accl      z-accl      x-coor      y-coor      z-coor
    22626 -2.09171E-01 2.41464E+01 1.92648E+01-1.48240E-04 1.62767E+00 8.73385E-01 1.49275E-03-4.66342E-02 9.63866E-02 4.45020E+00-4.04439E+00-2.57169E+01



 n o d a l   p r i n t   o u t   f o r   t i m e  s t e p   50006                              ( at time 2.4999998E+01 )

 nodal point  x-rot      y-rot       z-rot       x-rot vel   y-rot vel   z-rot vel   x-rot acc   y-rot acc   z-rot acc
    22626 -2.44403E-01-4.97489E-04-1.60902E-03-1.59097E-02-3.28968E-04-1.49540E-04 4.30236E-04-1.04194E-04-3.45305E-06
