 LSTC 50th% Full_FE H-III Dummy (Beta Version, February 17, 2019)        
                    ls-dyna smp s R16 R16.0_619_d222963 date 03/18/2025

{BEGIN LEGEND}
 Entity #        Title
        1     Upper_Neck_Force_INJURY                                              
{END LEGEND}



 line#1  section#     time        x-force     y-force     z-force    magnitude
 line#2  resultant  moments       x-moment    y-moment    z-moment   magnitude
 line#3  centroids                x           y           z            area  
           1    0.00000E+00     0.0000E+00  0.0000E+00  0.0000E+00  0.0000E+00
ac ID =   33377                 0.0000E+00  0.0000E+00  0.0000E+00  0.0000E+00
                               -3.7437E-01  1.0501E+01 -4.6940E+01  0.0000E+00

           1    1.00490E-01     1.3528E-04 -4.9882E-03  2.5980E-01  2.5985E-01
ac ID =   33377                 4.2545E-01 -1.2521E+00 -2.7110E-02  1.3227E+00
                               -3.7387E-01  1.0590E+01 -4.6886E+01  2.5147E+03

           1    2.00480E-01    -4.4372E-02  5.1649E-04  4.4127E-01  4.4349E-01
ac ID =   33377                 3.1340E-01 -1.5964E+00  2.2103E-02  1.6270E+00
                               -3.7386E-01  1.0591E+01 -4.6888E+01  2.5147E+03

           1    3.00470E-01     1.4610E-02 -2.9286E-03  2.1747E-01  2.1798E-01
ac ID =   33377                 2.2714E-02 -3.3762E-01  6.4405E-02  3.4445E-01
                               -3.7382E-01  1.0591E+01 -4.6889E+01  2.5147E+03

           1    4.00460E-01     2.7398E-03  1.0594E-02  8.8033E-02  8.8711E-02
ac ID =   33377                -4.9586E-01 -9.4816E-01  1.2799E-03  1.0700E+00
                               -3.7383E-01  1.0592E+01 -4.6890E+01  2.5147E+03

           1    5.00450E-01    -4.0819E-02  4.3164E-03  1.6200E-01  1.6712E-01
ac ID =   33377                -3.9937E-01 -1.5091E+00 -1.0588E-01  1.5646E+00
                               -3.7385E-01  1.0594E+01 -4.6893E+01  2.5147E+03

           1    6.00440E-01    -1.1290E-02  3.9096E-03  3.4424E-01  3.4444E-01
ac ID =   33377                 9.4255E-02 -1.3430E+00 -4.2287E-02  1.3470E+00
                               -3.7385E-01  1.0595E+01 -4.6897E+01  2.5147E+03

           1    7.00430E-01     1.6100E-03 -5.1729E-03  2.9671E-01  2.9676E-01
ac ID =   33377                 1.1983E-01 -5.3745E-01  8.9180E-02  5.5782E-01
                               -3.7389E-01  1.0597E+01 -4.6901E+01  2.5147E+03

           1    8.00420E-01    -2.9922E-02 -1.0596E-03  1.0228E-01  1.0657E-01
ac ID =   33377                 8.3493E-02 -1.0596E+00  4.1768E-02  1.0637E+00
                               -3.7393E-01  1.0599E+01 -4.6905E+01  2.5147E+03

           1    9.00410E-01    -3.9400E-02  8.8461E-04  6.4172E-02  7.5308E-02
ac ID =   33377                 8.4721E-02 -1.0837E+00 -5.7559E-03  1.0870E+00
                               -3.7397E-01  1.0601E+01 -4.6909E+01  2.5147E+03

           1    1.00040E+00     1.2933E-02 -2.6510E-03  2.2453E-01  2.2492E-01
ac ID =   33377                 3.3037E-01 -3.5653E-01 -6.4512E-02  4.9033E-01
                               -3.7398E-01  1.0604E+01 -4.6915E+01  2.5147E+03

           1    1.10039E+00    -1.3512E-04 -1.7706E-03  2.7838E-01  2.7839E-01
ac ID =   33377                 3.0733E-01 -9.4810E-01 -5.1128E-02  9.9798E-01
                               -3.7396E-01  1.0607E+01 -4.6921E+01  2.5147E+03

           1    1.20038E+00    -3.1456E-02  6.4503E-04  1.3538E-01  1.3899E-01
ac ID =   33377                -1.8573E-01 -1.2047E+00  1.0666E-02  1.2190E+00
                               -3.7396E-01  1.0609E+01 -4.6926E+01  2.5147E+03

           1    1.30037E+00    -1.2663E-02  8.2368E-03  8.0959E-02  8.2356E-02
ac ID =   33377                -3.9187E-01 -9.6112E-01 -3.0804E-02  1.0384E+00
                               -3.7394E-01  1.0612E+01 -4.6933E+01  2.5147E+03

           1    1.40036E+00     2.2296E-03  7.6394E-03  1.8606E-01  1.8623E-01
ac ID =   33377                -4.4310E-01 -1.0089E+00  4.7678E-02  1.1030E+00
                               -3.7389E-01  1.0615E+01 -4.6940E+01  2.5147E+03

           1    1.50035E+00    -2.5824E-02 -1.0719E-03  3.4067E-01  3.4165E-01
ac ID =   33377                -1.1576E-02 -1.6521E+00 -9.3067E-02  1.6548E+00
                               -3.7384E-01  1.0619E+01 -4.6947E+01  2.5147E+03

           1    1.60034E+00    -1.8265E-02 -1.3821E-03  2.3064E-01  2.3137E-01
ac ID =   33377                -1.0258E-01 -1.4359E+00 -4.8278E-02  1.4404E+00
                               -3.7382E-01  1.0622E+01 -4.6955E+01  2.5147E+03

           1    1.70033E+00    -5.8971E-03  9.1997E-03  6.7719E-02  6.8595E-02
ac ID =   33377                -3.5611E-01 -7.3768E-01  9.7009E-02  8.2486E-01
                               -3.7380E-01  1.0626E+01 -4.6962E+01  2.5147E+03

           1    1.80032E+00    -2.0973E-02 -4.8616E-03  8.7041E-02  8.9664E-02
ac ID =   33377                 2.0628E-01 -1.1811E+00  8.0357E-02  1.2016E+00
                               -3.7374E-01  1.0630E+01 -4.6971E+01  2.5147E+03

           1    1.90031E+00    -1.2112E-02 -4.8174E-03  1.9989E-01  2.0032E-01
ac ID =   33377                 1.9012E-01 -9.3577E-01 -1.1007E-01  9.6121E-01
                               -3.7365E-01  1.0634E+01 -4.6980E+01  2.5147E+03

           1    2.00030E+00    -9.7048E-03 -1.8511E-03  1.6372E-01  1.6402E-01
ac ID =   33377                 4.7070E-02 -7.6483E-01 -2.1465E-01  7.9578E-01
                               -3.7359E-01  1.0638E+01 -4.6989E+01  2.5147E+03

           1    2.10029E+00    -3.4511E-02  6.7733E-03  1.4332E-02  3.7977E-02
ac ID =   33377                -2.5408E-01 -1.1116E+00  2.3057E-03  1.1403E+00
                               -3.7352E-01  1.0642E+01 -4.6998E+01  2.5147E+03

           1    2.20028E+00    -1.3391E-02  1.0712E-02  9.1872E-03  1.9454E-02
ac ID =   33377                -3.3604E-01 -8.9645E-01  4.7798E-02  9.5856E-01
                               -3.7339E-01  1.0647E+01 -4.7008E+01  2.5147E+03

           1    2.30027E+00    -4.8931E-03  2.8581E-03  1.6276E-01  1.6285E-01
ac ID =   33377                -2.2710E-01 -1.0680E+00 -1.0771E-01  1.0972E+00
                               -3.7323E-01  1.0651E+01 -4.7018E+01  2.5147E+03

           1    2.40026E+00    -2.5818E-02 -1.8780E-03  2.0064E-01  2.0230E-01
ac ID =   33377                -3.4588E-01 -1.4060E+00  8.4820E-02  1.4504E+00
                               -3.7313E-01  1.0656E+01 -4.7028E+01  2.5147E+03

           1    2.50025E+00    -2.3291E-02  2.2410E-03  1.3809E-02  2.7169E-02
ac ID =   33377                -2.0750E-01 -1.0838E+00  1.2755E-01  1.1108E+00
                               -3.7312E-01  1.0660E+01 -4.7038E+01  2.5147E+03

           1    2.60024E+00    -1.5570E-02  9.4742E-03 -6.1677E-02  6.4313E-02
ac ID =   33377                -3.6060E-01 -5.9339E-01 -2.3898E-02  6.9478E-01
                               -3.7308E-01  1.0665E+01 -4.7049E+01  2.5147E+03

           1    2.70023E+00    -2.0788E-02  6.7110E-03  1.9899E-02  2.9549E-02
ac ID =   33377                -1.0138E-01 -6.0436E-01 -3.2590E-02  6.1367E-01
                               -3.7302E-01  1.0669E+01 -4.7060E+01  2.5147E+03

           1    2.80022E+00    -2.0995E-02 -4.2656E-03  8.1552E-02  8.4319E-02
ac ID =   33377                 2.8903E-01 -8.0260E-01 -1.1174E-02  8.5313E-01
                               -3.7289E-01  1.0674E+01 -4.7071E+01  2.5147E+03

           1    2.90021E+00    -3.4370E-03 -1.0060E-03  3.4152E-03  4.9486E-03
ac ID =   33377                 1.1754E-01 -2.4449E-01  9.0823E-02  2.8608E-01
                               -3.7276E-01  1.0679E+01 -4.7081E+01  2.5147E+03

           1    3.00020E+00    -1.4575E-02  8.6619E-03 -7.1331E-02  7.3319E-02
ac ID =   33377                -4.3288E-01 -3.4937E-01  4.6400E-02  5.5821E-01
                               -3.7263E-01  1.0683E+01 -4.7092E+01  2.5147E+03

           1    3.10019E+00     3.2938E-03 -8.5406E-03 -1.4833E-03  9.2732E-03
ac ID =   33377                 2.2676E-01 -4.8997E-01 -1.2351E-01  5.5384E-01
                               -3.7258E-01  1.0688E+01 -4.7103E+01  2.5147E+03

           1    3.20018E+00    -7.1185E-03  6.3429E-04  7.7221E-02  7.7551E-02
ac ID =   33377                -4.3649E-02 -7.0418E-01  7.3374E-03  7.0557E-01
                               -3.7259E-01  1.0692E+01 -4.7114E+01  2.5147E+03

           1    3.30017E+00     8.0610E-03  6.6989E-03  1.8892E-02  2.1605E-02
ac ID =   33377                -2.1989E-01 -6.1654E-01  1.3656E-01  6.6867E-01
                               -3.7262E-01  1.0697E+01 -4.7126E+01  2.5147E+03

           1    3.40016E+00     6.8717E-03  5.0952E-03 -1.0723E-01  1.0757E-01
ac ID =   33377                -3.2529E-01 -2.4955E-01  1.8506E-01  4.4982E-01
                               -3.7262E-01  1.0702E+01 -4.7137E+01  2.5147E+03

           1    3.50015E+00     2.6224E-03 -1.6809E-03 -1.5021E-01  1.5024E-01
ac ID =   33377                 1.0252E-01 -7.3948E-03  1.1515E-01  1.5435E-01
                               -3.7263E-01  1.0707E+01 -4.7149E+01  2.5147E+03

           1    3.60014E+00     6.9695E-03 -3.5464E-03 -6.6937E-02  6.7392E-02
ac ID =   33377                -1.5035E-01  3.7474E-01 -1.2699E-01  4.2328E-01
                               -3.7264E-01  1.0713E+01 -4.7161E+01  2.5147E+03

           1    3.70013E+00     2.3382E-02 -3.8992E-04 -7.2366E-02  7.6050E-02
ac ID =   33377                -7.9373E-03  6.3679E-01 -2.8947E-01  6.9954E-01
                               -3.7270E-01  1.0719E+01 -4.7173E+01  2.5147E+03

           1    3.80012E+00     3.0486E-02 -7.2601E-03 -1.7141E-01  1.7425E-01
ac ID =   33377                 1.8501E-01  1.1109E+00 -1.1039E-01  1.1316E+00
                               -3.7275E-01  1.0725E+01 -4.7185E+01  2.5147E+03

           1    3.90011E+00     2.9525E-02  8.7035E-03 -2.5202E-01  2.5390E-01
ac ID =   33377                -1.4150E-01  1.0316E+00 -9.1804E-02  1.0453E+00
                               -3.7285E-01  1.0732E+01 -4.7197E+01  2.5147E+03

           1    4.00010E+00     3.5469E-02  3.8503E-03 -2.0906E-01  2.1209E-01
ac ID =   33377                -2.4079E-01  1.0239E+00 -5.4682E-02  1.0532E+00
                               -3.7291E-01  1.0740E+01 -4.7209E+01  2.5147E+03

           1    4.10009E+00     4.0339E-02 -5.3550E-03 -1.7632E-01  1.8095E-01
ac ID =   33377                 3.4388E-02  9.1805E-01 -8.0560E-02  9.2221E-01
                               -3.7296E-01  1.0749E+01 -4.7222E+01  2.5147E+03

           1    4.20008E+00     4.1510E-02  1.5089E-03 -2.5011E-01  2.5354E-01
ac ID =   33377                -2.4950E-01  1.0189E+00 -1.7912E-01  1.0642E+00
                               -3.7308E-01  1.0758E+01 -4.7235E+01  2.5147E+03

           1    4.30007E+00     4.4594E-02  1.2329E-02 -3.5817E-01  3.6115E-01
ac ID =   33377                -4.2105E-01  1.1694E+00 -1.7207E-02  1.2430E+00
                               -3.7327E-01  1.0768E+01 -4.7248E+01  2.5147E+03

           1    4.40006E+00     6.8174E-02  7.4171E-04 -3.4433E-01  3.5101E-01
ac ID =   33377                -4.5243E-03  1.8942E+00  2.2331E-01  1.9073E+00
                               -3.7346E-01  1.0780E+01 -4.7262E+01  2.5147E+03

           1    4.50005E+00     5.6827E-02  1.5664E-03 -2.7701E-01  2.8278E-01
ac ID =   33377                 6.8690E-02  1.4910E+00  2.7041E-01  1.5169E+00
                               -3.7365E-01  1.0793E+01 -4.7276E+01  2.5147E+03

           1    4.60004E+00     7.1429E-02 -4.4415E-03 -3.3076E-01  3.3842E-01
ac ID =   33377                 2.8471E-01  1.8390E+00 -2.2812E-01  1.8748E+00
                               -3.7390E-01  1.0807E+01 -4.7290E+01  2.5147E+03

           1    4.70003E+00     7.4994E-02  5.5829E-03 -4.2213E-01  4.2878E-01
ac ID =   33377                -1.8113E-01  1.8437E+00  1.7366E-02  1.8526E+00
                               -3.7412E-01  1.0823E+01 -4.7304E+01  2.5147E+03

           1    4.80002E+00     8.2585E-02 -3.3593E-03 -4.6693E-01  4.7419E-01
ac ID =   33377                 2.7379E-02  2.0014E+00  2.3345E-02  2.0017E+00
                               -3.7435E-01  1.0839E+01 -4.7319E+01  2.5147E+03

           1    4.90001E+00     7.5449E-02  4.4797E-03 -4.2649E-01  4.3314E-01
ac ID =   33377                -2.0372E-01  2.0235E+00  1.0712E-01  2.0366E+00
                               -3.7459E-01  1.0858E+01 -4.7335E+01  2.5147E+03

           1    5.00000E+00     7.9024E-02  8.6794E-03 -4.2100E-01  4.2844E-01
ac ID =   33377                -4.0717E-01  1.9403E+00  2.4941E-01  1.9981E+00
                               -3.7480E-01  1.0878E+01 -4.7351E+01  2.5147E+03

           1    5.10049E+00     8.3676E-02  3.6562E-03 -5.1054E-01  5.1737E-01
ac ID =   33377                -5.2912E-01  2.1553E+00 -2.1327E-01  2.2295E+00
                               -3.7503E-01  1.0900E+01 -4.7367E+01  2.5147E+03

           1    5.20048E+00     9.2990E-02  4.7285E-04 -5.6020E-01  5.6786E-01
ac ID =   33377                -4.0249E-01  2.5572E+00 -2.3479E-01  2.5993E+00
                               -3.7529E-01  1.0924E+01 -4.7384E+01  2.5147E+03

           1    5.30047E+00     1.0190E-01  3.8651E-03 -5.6463E-01  5.7376E-01
ac ID =   33377                -5.0682E-01  2.6527E+00  4.7006E-02  2.7011E+00
                               -3.7562E-01  1.0949E+01 -4.7401E+01  2.5147E+03

           1    5.40046E+00     1.0375E-01  1.2703E-03 -5.5996E-01  5.6950E-01
ac ID =   33377                -1.6975E-01  2.8292E+00  1.1501E-02  2.8343E+00
                               -3.7596E-01  1.0976E+01 -4.7419E+01  2.5147E+03

           1    5.50045E+00     1.0090E-01 -5.6042E-03 -6.5163E-01  6.5941E-01
ac ID =   33377                -1.5063E-01  3.0463E+00  5.4920E-02  3.0505E+00
                               -3.7631E-01  1.1005E+01 -4.7437E+01  2.5147E+03

           1    5.60044E+00     9.8440E-02  1.2078E-03 -7.3850E-01  7.4503E-01
ac ID =   33377                -2.6719E-02  3.1445E+00 -3.2399E-02  3.1447E+00
                               -3.7676E-01  1.1035E+01 -4.7454E+01  2.5147E+03

           1    5.70043E+00     1.1341E-01  8.7691E-03 -7.7052E-01  7.7887E-01
ac ID =   33377                -4.4237E-01  3.2656E+00  3.6643E-03  3.2955E+00
                               -3.7718E-01  1.1067E+01 -4.7473E+01  2.5147E+03

           1    5.80042E+00     1.1031E-01  7.6276E-03 -7.5611E-01  7.6415E-01
ac ID =   33377                -4.2724E-01  3.3059E+00  6.2451E-03  3.3334E+00
                               -3.7763E-01  1.1101E+01 -4.7491E+01  2.5147E+03

           1    5.90041E+00     1.1050E-01 -1.2648E-02 -7.7877E-01  7.8667E-01
ac ID =   33377                -2.6002E-01  3.4697E+00 -1.7123E-01  3.4837E+00
                               -3.7811E-01  1.1137E+01 -4.7510E+01  2.5147E+03

           1    6.00040E+00     1.2198E-01  6.1612E-03 -8.6067E-01  8.6929E-01
ac ID =   33377                -6.6556E-01  3.7251E+00 -8.6295E-02  3.7851E+00
                               -3.7872E-01  1.1174E+01 -4.7528E+01  2.5147E+03

           1    6.10039E+00     1.2614E-01  2.0532E-02 -8.7199E-01  8.8130E-01
ac ID =   33377                -9.1376E-01  3.7217E+00  1.2049E-01  3.8342E+00
                               -3.7938E-01  1.1214E+01 -4.7547E+01  2.5147E+03

           1    6.20038E+00     1.2460E-01 -2.1361E-03 -8.7627E-01  8.8508E-01
ac ID =   33377                -4.0375E-01  3.6393E+00  1.8353E-01  3.6663E+00
                               -3.8000E-01  1.1255E+01 -4.7566E+01  2.5147E+03

           1    6.30037E+00     1.2161E-01 -1.3186E-02 -9.1434E-01  9.2249E-01
ac ID =   33377                -1.6183E-01  3.6560E+00 -1.4753E-01  3.6625E+00
                               -3.8066E-01  1.1298E+01 -4.7585E+01  2.5147E+03

           1    6.40036E+00     1.2775E-01  9.5543E-03 -1.0073E+00  1.0154E+00
ac ID =   33377                -6.5324E-01  3.9194E+00 -1.5111E-01  3.9763E+00
                               -3.8139E-01  1.1343E+01 -4.7603E+01  2.5147E+03

           1    6.50035E+00     1.4656E-01  1.0547E-02 -1.0802E+00  1.0901E+00
ac ID =   33377                -5.8212E-01  4.7976E+00 -8.5616E-03  4.8328E+00
                               -3.8217E-01  1.1389E+01 -4.7622E+01  2.5147E+03

           1    6.60034E+00     1.3215E-01 -2.5010E-03 -1.0692E+00  1.0774E+00
ac ID =   33377                -2.5685E-01  4.6180E+00  4.6702E-02  4.6254E+00
                               -3.8289E-01  1.1437E+01 -4.7640E+01  2.5147E+03

           1    6.70033E+00     1.3851E-01 -2.0755E-03 -1.0991E+00  1.1078E+00
ac ID =   33377                -4.7469E-01  4.8359E+00  1.3170E-02  4.8592E+00
                               -3.8363E-01  1.1488E+01 -4.7658E+01  2.5147E+03

           1    6.80032E+00     1.5249E-01  2.0083E-02 -1.1454E+00  1.1557E+00
ac ID =   33377                -9.7379E-01  5.1178E+00 -1.1652E-01  5.2109E+00
                               -3.8449E-01  1.1539E+01 -4.7676E+01  2.5147E+03

           1    6.90031E+00     1.5782E-01 -1.4207E-03 -1.2171E+00  1.2273E+00
ac ID =   33377                -6.0099E-01  5.1891E+00 -2.2226E-01  5.2285E+00
                               -3.8530E-01  1.1593E+01 -4.7693E+01  2.5147E+03

           1    7.00030E+00     1.4650E-01 -2.1203E-03 -1.2461E+00  1.2547E+00
ac ID =   33377                -7.0559E-01  5.1505E+00 -3.0126E-02  5.1987E+00
                               -3.8616E-01  1.1648E+01 -4.7710E+01  2.5147E+03

           1    7.10029E+00     1.6769E-01  1.6711E-02 -1.2739E+00  1.2850E+00
ac ID =   33377                -9.3473E-01  5.3125E+00  1.3518E-01  5.3958E+00
                               -3.8709E-01  1.1705E+01 -4.7726E+01  2.5147E+03

           1    7.20028E+00     1.6693E-01 -1.4080E-03 -1.3531E+00  1.3634E+00
ac ID =   33377                -6.8915E-01  5.8524E+00 -5.2463E-02  5.8930E+00
                               -3.8802E-01  1.1763E+01 -4.7742E+01  2.5147E+03

           1    7.30027E+00     1.6602E-01 -2.2807E-03 -1.4478E+00  1.4572E+00
ac ID =   33377                -4.0497E-01  5.9900E+00 -9.6666E-02  6.0045E+00
                               -3.8898E-01  1.1823E+01 -4.7757E+01  2.5147E+03

           1    7.40026E+00     1.7621E-01  4.9577E-03 -1.5050E+00  1.5153E+00
ac ID =   33377                -7.8051E-01  6.6957E+00 -7.3521E-03  6.7411E+00
                               -3.8998E-01  1.1886E+01 -4.7772E+01  2.5147E+03

           1    7.50025E+00     1.8286E-01  8.2039E-03 -1.4839E+00  1.4951E+00
ac ID =   33377                -4.7781E-01  6.8656E+00 -4.3755E-02  6.8823E+00
                               -3.9103E-01  1.1949E+01 -4.7785E+01  2.5147E+03

           1    7.60024E+00     1.8092E-01 -6.8325E-03 -1.5241E+00  1.5348E+00
ac ID =   33377                -4.4735E-01  6.8327E+00 -1.3601E-01  6.8487E+00
                               -3.9201E-01  1.2014E+01 -4.7798E+01  2.5147E+03

           1    7.70023E+00     1.8780E-01 -3.8013E-04 -1.5780E+00  1.5891E+00
ac ID =   33377                -6.3638E-01  6.9899E+00 -9.4183E-02  7.0195E+00
                               -3.9307E-01  1.2081E+01 -4.7810E+01  2.5147E+03

           1    7.80022E+00     2.0057E-01  1.4097E-02 -1.6174E+00  1.6299E+00
ac ID =   33377                -9.4361E-01  7.0103E+00 -1.2097E-01  7.0746E+00
                               -3.9415E-01  1.2149E+01 -4.7821E+01  2.5147E+03

           1    7.90021E+00     1.9247E-01 -6.7343E-03 -1.6445E+00  1.6558E+00
ac ID =   33377                -6.9875E-01  7.1464E+00 -3.1451E-01  7.1874E+00
                               -3.9521E-01  1.2219E+01 -4.7831E+01  2.5147E+03

           1    8.00020E+00     2.0030E-01 -2.8180E-03 -1.6673E+00  1.6793E+00
ac ID =   33377                -5.6826E-01  7.3276E+00 -2.3901E-01  7.3535E+00
                               -3.9632E-01  1.2291E+01 -4.7839E+01  2.5147E+03

           1    8.10019E+00     1.9835E-01  8.1091E-03 -1.7450E+00  1.7563E+00
ac ID =   33377                -8.8767E-01  7.7043E+00  8.0912E-02  7.7557E+00
                               -3.9751E-01  1.2363E+01 -4.7847E+01  2.5147E+03

           1    8.20018E+00     2.2064E-01  3.6488E-03 -1.8093E+00  1.8227E+00
ac ID =   33377                -4.8945E-01  8.4652E+00  1.4201E-01  8.4805E+00
                               -3.9870E-01  1.2438E+01 -4.7853E+01  2.5147E+03

           1    8.30017E+00     2.1070E-01  1.8522E-03 -1.8408E+00  1.8528E+00
ac ID =   33377                -4.6770E-01  8.3771E+00 -4.3956E-02  8.3903E+00
                               -3.9986E-01  1.2513E+01 -4.7857E+01  2.5147E+03

           1    8.40016E+00     2.2047E-01 -5.8674E-03 -1.8494E+00  1.8625E+00
ac ID =   33377                -2.8411E-01  8.5342E+00 -2.5522E-01  8.5427E+00
                               -4.0100E-01  1.2590E+01 -4.7861E+01  2.5147E+03

           1    8.50015E+00     2.3588E-01  6.8854E-03 -1.8862E+00  1.9009E+00
ac ID =   33377                -7.0944E-01  8.9490E+00 -3.2820E-01  8.9831E+00
                               -4.0216E-01  1.2669E+01 -4.7863E+01  2.5147E+03

           1    8.60014E+00     2.2969E-01 -5.3060E-05 -1.9538E+00  1.9672E+00
ac ID =   33377                -6.6732E-01  9.0392E+00 -1.4894E-01  9.0650E+00
                               -4.0329E-01  1.2748E+01 -4.7863E+01  2.5147E+03

           1    8.70013E+00     2.2572E-01  3.5727E-03 -1.9960E+00  2.0088E+00
ac ID =   33377                -8.4682E-01  8.9707E+00  3.8352E-02  9.0107E+00
                               -4.0444E-01  1.2829E+01 -4.7862E+01  2.5147E+03

           1    8.80012E+00     2.3566E-01  6.4355E-03 -2.0323E+00  2.0459E+00
ac ID =   33377                -9.7485E-01  9.2329E+00  1.1363E-01  9.2849E+00
                               -4.0558E-01  1.2911E+01 -4.7859E+01  2.5147E+03

           1    8.90011E+00     2.4987E-01  5.8621E-03 -2.0486E+00  2.0638E+00
ac ID =   33377                -8.2216E-01  9.6054E+00 -4.5222E-02  9.6406E+00
                               -4.0675E-01  1.2995E+01 -4.7855E+01  2.5147E+03

           1    9.00010E+00     2.4018E-01  3.0559E-03 -2.1088E+00  2.1225E+00
ac ID =   33377                -7.0570E-01  9.7057E+00 -5.4050E-03  9.7314E+00
                               -4.0792E-01  1.3079E+01 -4.7848E+01  2.5147E+03

           1    9.10009E+00     2.4897E-01 -8.2457E-03 -2.1496E+00  2.1640E+00
ac ID =   33377                -4.2927E-01  1.0016E+01  4.8377E-02  1.0025E+01
                               -4.0904E-01  1.3165E+01 -4.7840E+01  2.5147E+03

           1    9.20008E+00     2.6652E-01 -3.7376E-03 -2.1621E+00  2.1785E+00
ac ID =   33377                -4.7853E-01  1.0210E+01 -1.8075E-02  1.0221E+01
                               -4.1020E-01  1.3252E+01 -4.7830E+01  2.5147E+03

           1    9.30007E+00     2.5794E-01  5.4207E-03 -2.1834E+00  2.1986E+00
ac ID =   33377                -5.7533E-01  1.0002E+01 -1.8963E-01  1.0021E+01
                               -4.1137E-01  1.3340E+01 -4.7818E+01  2.5147E+03

           1    9.40006E+00     2.4630E-01 -6.0080E-03 -2.2117E+00  2.2254E+00
ac ID =   33377                -5.3486E-01  9.7935E+00 -1.3943E-01  9.8091E+00
                               -4.1245E-01  1.3430E+01 -4.7804E+01  2.5147E+03

           1    9.50005E+00     2.7239E-01  1.2984E-03 -2.2588E+00  2.2752E+00
ac ID =   33377                -8.6816E-01  1.0426E+01 -1.0250E-01  1.0463E+01
                               -4.1353E-01  1.3520E+01 -4.7788E+01  2.5147E+03

           1    9.60004E+00     2.6052E-01  7.9597E-03 -2.2538E+00  2.2688E+00
ac ID =   33377                -1.0914E+00  1.0392E+01 -1.1795E-01  1.0450E+01
                               -4.1466E-01  1.3611E+01 -4.7770E+01  2.5147E+03

           1    9.70003E+00     2.6728E-01  8.1018E-03 -2.2462E+00  2.2621E+00
ac ID =   33377                -8.8544E-01  1.0502E+01  1.7198E-01  1.0540E+01
                               -4.1575E-01  1.3704E+01 -4.7749E+01  2.5147E+03

           1    9.80002E+00     2.7908E-01 -1.6311E-03 -2.2808E+00  2.2978E+00
ac ID =   33377                -1.0657E+00  1.0959E+01 -7.3244E-03  1.1011E+01
                               -4.1679E-01  1.3797E+01 -4.7727E+01  2.5147E+03

           1    9.90001E+00     2.8481E-01  1.0356E-02 -2.3307E+00  2.3481E+00
ac ID =   33377                -9.6263E-01  1.1061E+01 -1.0083E-01  1.1103E+01
                               -4.1789E-01  1.3892E+01 -4.7703E+01  2.5147E+03

           1    1.00005E+01     2.8399E-01  4.3566E-03 -2.3527E+00  2.3698E+00
ac ID =   33377                -9.8099E-01  1.1252E+01 -1.7000E-01  1.1296E+01
                               -4.1896E-01  1.3988E+01 -4.7676E+01  2.5147E+03

           1    1.01005E+01     2.8876E-01 -7.3691E-03 -2.3511E+00  2.3687E+00
ac ID =   33377                -6.3335E-01  1.1053E+01 -1.5080E-01  1.1072E+01
                               -4.1995E-01  1.4085E+01 -4.7648E+01  2.5147E+03

           1    1.02005E+01     3.0594E-01  4.4352E-03 -2.3918E+00  2.4113E+00
ac ID =   33377                -7.6264E-01  1.1730E+01 -2.4835E-01  1.1757E+01
                               -4.2102E-01  1.4182E+01 -4.7617E+01  2.5147E+03

           1    1.03005E+01     2.9798E-01  1.1181E-02 -2.4157E+00  2.4341E+00
ac ID =   33377                -9.3096E-01  1.1350E+01 -1.0917E-01  1.1389E+01
                               -4.2208E-01  1.4281E+01 -4.7584E+01  2.5147E+03

           1    1.04005E+01     2.9799E-01 -5.7603E-04 -2.4381E+00  2.4563E+00
ac ID =   33377                -8.2669E-01  1.1308E+01  2.5133E-02  1.1338E+01
                               -4.2307E-01  1.4381E+01 -4.7549E+01  2.5147E+03

           1    1.05004E+01     3.0538E-01  5.6224E-03 -2.4216E+00  2.4408E+00
ac ID =   33377                -1.0294E+00  1.1494E+01 -2.9168E-01  1.1543E+01
                               -4.2406E-01  1.4482E+01 -4.7512E+01  2.5147E+03

           1    1.06004E+01     3.1218E-01  1.0150E-02 -2.4017E+00  2.4219E+00
ac ID =   33377                -1.1260E+00  1.1135E+01 -2.1204E-01  1.1193E+01
                               -4.2502E-01  1.4584E+01 -4.7473E+01  2.5147E+03

           1    1.07004E+01     3.0421E-01 -7.9858E-03 -2.4048E+00  2.4240E+00
ac ID =   33377                -7.1189E-01  1.1249E+01 -1.3114E-02  1.1271E+01
                               -4.2601E-01  1.4688E+01 -4.7432E+01  2.5147E+03

           1    1.08004E+01     2.9885E-01  1.0543E-03 -2.4103E+00  2.4287E+00
ac ID =   33377                -7.8560E-01  1.0933E+01  1.3229E-01  1.0962E+01
                               -4.2705E-01  1.4792E+01 -4.7388E+01  2.5147E+03

           1    1.09004E+01     3.2239E-01  2.9544E-03 -2.4554E+00  2.4765E+00
ac ID =   33377                -9.2567E-01  1.1723E+01  1.0722E-01  1.1760E+01
                               -4.2811E-01  1.4897E+01 -4.7342E+01  2.5147E+03

           1    1.10004E+01     2.9420E-01  9.0520E-03 -2.4035E+00  2.4214E+00
ac ID =   33377                -7.4061E-01  1.1037E+01 -2.0491E-01  1.1064E+01
                               -4.2914E-01  1.5003E+01 -4.7294E+01  2.5147E+03

           1    1.11004E+01     3.1083E-01 -5.4573E-04 -2.3973E+00  2.4174E+00
ac ID =   33377                -5.7755E-01  1.1351E+01 -2.8117E-01  1.1369E+01
                               -4.3012E-01  1.5109E+01 -4.7243E+01  2.5147E+03

           1    1.12004E+01     3.1225E-01 -4.5271E-03 -2.3888E+00  2.4091E+00
ac ID =   33377                -7.3565E-01  1.1571E+01  5.8456E-02  1.1594E+01
                               -4.3107E-01  1.5217E+01 -4.7190E+01  2.5147E+03

           1    1.13004E+01     3.1027E-01  8.4800E-03 -2.3714E+00  2.3917E+00
ac ID =   33377                -1.0851E+00  1.1095E+01  2.3328E-01  1.1150E+01
                               -4.3201E-01  1.5325E+01 -4.7135E+01  2.5147E+03

           1    1.14004E+01     2.9774E-01  5.3999E-03 -2.3358E+00  2.3547E+00
ac ID =   33377                -9.9834E-01  1.0739E+01  3.0369E-01  1.0789E+01
                               -4.3294E-01  1.5434E+01 -4.7077E+01  2.5147E+03

           1    1.15003E+01     3.1627E-01  4.8565E-03 -2.2986E+00  2.3203E+00
ac ID =   33377                -7.4969E-01  1.0442E+01 -1.1890E-02  1.0468E+01
                               -4.3381E-01  1.5543E+01 -4.7017E+01  2.5147E+03

           1    1.16003E+01     3.1738E-01 -8.3058E-03 -2.3046E+00  2.3263E+00
ac ID =   33377                -1.0057E+00  1.0708E+01 -2.8184E-01  1.0758E+01
                               -4.3464E-01  1.5654E+01 -4.6955E+01  2.5147E+03

           1    1.17003E+01     3.0485E-01  5.6592E-03 -2.3086E+00  2.3286E+00
ac ID =   33377                -8.6995E-01  1.0303E+01 -2.6395E-01  1.0343E+01
                               -4.3551E-01  1.5765E+01 -4.6891E+01  2.5147E+03

           1    1.18003E+01     3.0402E-01  7.2145E-03 -2.2919E+00  2.3120E+00
ac ID =   33377                -8.3268E-01  1.0486E+01 -1.2232E-01  1.0519E+01
                               -4.3638E-01  1.5876E+01 -4.6824E+01  2.5147E+03

           1    1.19003E+01     3.1459E-01  4.8077E-03 -2.2650E+00  2.2867E+00
ac ID =   33377                -3.9468E-01  1.0259E+01  3.3870E-01  1.0272E+01
                               -4.3717E-01  1.5988E+01 -4.6755E+01  2.5147E+03

           1    1.20003E+01     3.1973E-01 -2.1530E-03 -2.2505E+00  2.2731E+00
ac ID =   33377                -7.3549E-01  1.0212E+01  1.5285E-01  1.0239E+01
                               -4.3790E-01  1.6101E+01 -4.6683E+01  2.5147E+03

           1    1.21003E+01     3.0169E-01  5.1850E-03 -2.2130E+00  2.2335E+00
ac ID =   33377                -6.4311E-01  9.6617E+00 -4.8336E-01  9.6951E+00
                               -4.3862E-01  1.6214E+01 -4.6610E+01  2.5147E+03

           1    1.22003E+01     3.0351E-01  9.0869E-03 -2.1873E+00  2.2083E+00
ac ID =   33377                -8.1122E-01  9.6745E+00 -2.9504E-01  9.7130E+00
                               -4.3933E-01  1.6327E+01 -4.6534E+01  2.5147E+03

           1    1.23003E+01     3.1643E-01 -8.3506E-03 -2.1454E+00  2.1687E+00
ac ID =   33377                -5.8872E-01  9.4622E+00  9.7501E-02  9.4810E+00
                               -4.3992E-01  1.6441E+01 -4.6455E+01  2.5147E+03

           1    1.24003E+01     2.9914E-01  2.0115E-02 -2.0694E+00  2.0910E+00
ac ID =   33377                -1.0522E+00  8.8262E+00  3.3861E-01  8.8951E+00
                               -4.4059E-01  1.6556E+01 -4.6375E+01  2.5147E+03

           1    1.25002E+01     2.9607E-01 -2.8073E-03 -2.0684E+00  2.0895E+00
ac ID =   33377                -4.5921E-01  8.6855E+00  1.9119E-01  8.6998E+00
                               -4.4120E-01  1.6671E+01 -4.6292E+01  2.5147E+03

           1    1.26002E+01     2.9756E-01  4.6636E-03 -2.0414E+00  2.0630E+00
ac ID =   33377                -7.0745E-01  8.5952E+00  2.9149E-01  8.6292E+00
                               -4.4176E-01  1.6786E+01 -4.6208E+01  2.5147E+03

           1    1.27002E+01     2.7929E-01 -9.1263E-03 -1.9555E+00  1.9753E+00
ac ID =   33377                -3.1396E-01  7.9957E+00  1.9364E-01  8.0042E+00
                               -4.4231E-01  1.6901E+01 -4.6121E+01  2.5147E+03

           1    1.28002E+01     2.9370E-01 -7.6966E-03 -1.9271E+00  1.9493E+00
ac ID =   33377                 8.7143E-02  7.9615E+00 -2.5162E-02  7.9620E+00
                               -4.4296E-01  1.7017E+01 -4.6032E+01  2.5147E+03

           1    1.29002E+01     3.1210E-01  1.4557E-03 -1.8743E+00  1.9001E+00
ac ID =   33377                -3.6296E-01  7.8041E+00 -5.1531E-02  7.8127E+00
                               -4.4355E-01  1.7133E+01 -4.5941E+01  2.5147E+03

           1    1.30002E+01     2.6647E-01 -3.5337E-03 -1.8078E+00  1.8273E+00
ac ID =   33377                -3.3882E-01  7.0363E+00 -4.0461E-01  7.0561E+00
                               -4.4415E-01  1.7250E+01 -4.5848E+01  2.5147E+03

           1    1.31002E+01     2.7695E-01 -1.2036E-02 -1.7690E+00  1.7906E+00
ac ID =   33377                -1.7672E-01  6.8793E+00 -1.2191E-01  6.8827E+00
                               -4.4480E-01  1.7366E+01 -4.5753E+01  2.5147E+03

           1    1.32002E+01     2.9164E-01  5.0554E-03 -1.7089E+00  1.7336E+00
ac ID =   33377                -5.9668E-01  6.6265E+00  2.3254E-01  6.6574E+00
                               -4.4547E-01  1.7483E+01 -4.5656E+01  2.5147E+03

           1    1.33002E+01     2.5755E-01  4.9376E-03 -1.6744E+00  1.6941E+00
ac ID =   33377                -5.2980E-01  6.0620E+00  1.4494E-01  6.0868E+00
                               -4.4622E-01  1.7600E+01 -4.5557E+01  2.5147E+03

           1    1.34002E+01     2.5181E-01 -3.4266E-03 -1.6474E+00  1.6665E+00
ac ID =   33377                -4.9221E-01  5.6699E+00 -2.5443E-01  5.6969E+00
                               -4.4697E-01  1.7717E+01 -4.5457E+01  2.5147E+03

           1    1.35001E+01     2.8137E-01  8.8984E-03 -1.6113E+00  1.6357E+00
ac ID =   33377                -4.4463E-01  5.8002E+00 -3.4876E-01  5.8276E+00
                               -4.4773E-01  1.7834E+01 -4.5355E+01  2.5147E+03

           1    1.36001E+01     2.5606E-01 -4.1069E-04 -1.5386E+00  1.5598E+00
ac ID =   33377                -2.5911E-01  4.8675E+00  2.7974E-01  4.8825E+00
                               -4.4847E-01  1.7952E+01 -4.5251E+01  2.5147E+03

           1    1.37001E+01     2.5600E-01  1.6583E-03 -1.5034E+00  1.5251E+00
ac ID =   33377                -1.0881E-01  4.4374E+00  2.8590E-01  4.4480E+00
                               -4.4923E-01  1.8070E+01 -4.5146E+01  2.5147E+03

           1    1.38001E+01     2.6230E-01 -7.8401E-03 -1.4502E+00  1.4738E+00
ac ID =   33377                -2.2223E-01  4.2190E+00 -2.6175E-01  4.2329E+00
                               -4.4995E-01  1.8188E+01 -4.5039E+01  2.5147E+03

           1    1.39001E+01     2.3354E-01  1.0422E-02 -1.3733E+00  1.3930E+00
ac ID =   33377                -3.2666E-01  3.2698E+00 -5.6854E-01  3.3349E+00
                               -4.5075E-01  1.8307E+01 -4.4931E+01  2.5147E+03

           1    1.40001E+01     2.2949E-01 -6.4107E-03 -1.3600E+00  1.3792E+00
ac ID =   33377                -2.6936E-01  2.7175E+00  2.0394E-01  2.7384E+00
                               -4.5153E-01  1.8426E+01 -4.4821E+01  2.5147E+03

           1    1.41001E+01     2.5039E-01  2.0862E-03 -1.2780E+00  1.3023E+00
ac ID =   33377                -4.4015E-01  3.0237E+00  4.3733E-01  3.0867E+00
                               -4.5226E-01  1.8545E+01 -4.4710E+01  2.5147E+03

           1    1.42001E+01     1.9479E-01  2.0742E-02 -1.2139E+00  1.2296E+00
ac ID =   33377                -9.1558E-01  1.7985E+00  8.8844E-02  2.0201E+00
                               -4.5306E-01  1.8664E+01 -4.4598E+01  2.5147E+03

           1    1.43001E+01     1.9168E-01  1.2436E-03 -1.1691E+00  1.1847E+00
ac ID =   33377                -4.0527E-01  2.0192E+00 -7.0458E-02  2.0607E+00
                               -4.5380E-01  1.8783E+01 -4.4484E+01  2.5147E+03

           1    1.44001E+01     2.0036E-01 -1.3077E-02 -1.0600E+00  1.0788E+00
ac ID =   33377                -1.2179E-01  1.8085E+00 -3.2827E-01  1.8421E+00
                               -4.5456E-01  1.8903E+01 -4.4370E+01  2.5147E+03

           1    1.45000E+01     1.9391E-01 -5.8708E-03 -1.0088E+00  1.0273E+00
ac ID =   33377                -1.3675E-01  1.7689E+00 -5.9714E-02  1.7752E+00
                               -4.5551E-01  1.9023E+01 -4.4254E+01  2.5147E+03

           1    1.46000E+01     1.6158E-01 -1.2742E-02 -9.6422E-01  9.7774E-01
ac ID =   33377                 2.0419E-01  9.7382E-01  7.6959E-02  9.9797E-01
                               -4.5655E-01  1.9142E+01 -4.4137E+01  2.5147E+03

           1    1.47000E+01     1.7687E-01 -3.7142E-03 -8.9138E-01  9.0876E-01
ac ID =   33377                 4.6137E-01  1.1997E+00 -6.5747E-01  1.4437E+00
                               -4.5772E-01  1.9262E+01 -4.4018E+01  2.5147E+03

           1    1.48005E+01     1.5480E-01 -1.5290E-02 -8.0946E-01  8.2427E-01
ac ID =   33377                 2.1540E-01  3.2941E-01 -2.4021E-01  4.6109E-01
                               -4.5885E-01  1.9382E+01 -4.3898E+01  2.5147E+03

           1    1.49005E+01     1.3117E-01 -3.4703E-02 -7.6861E-01  7.8049E-01
ac ID =   33377                 9.7704E-01 -2.6634E-01  7.8733E-03  1.0127E+00
                               -4.6024E-01  1.9501E+01 -4.3778E+01  2.5147E+03

           1    1.50005E+01     1.7023E-01  1.3969E-03 -7.3805E-01  7.5743E-01
ac ID =   33377                 2.9004E-01  5.4767E-01 -2.9395E-01  6.8591E-01
                               -4.6181E-01  1.9621E+01 -4.3656E+01  2.5147E+03

           1    1.51005E+01     1.1152E-01 -1.7119E-02 -6.1726E-01  6.2749E-01
ac ID =   33377                 1.6030E-01 -7.3622E-01 -2.4355E-01  7.9186E-01
                               -4.6344E-01  1.9740E+01 -4.3534E+01  2.5147E+03

           1    1.52005E+01     1.4016E-01 -1.5064E-02 -6.0473E-01  6.2095E-01
ac ID =   33377                 4.6145E-01 -7.7455E-02 -7.4343E-02  4.7378E-01
                               -4.6525E-01  1.9859E+01 -4.3410E+01  2.5147E+03

           1    1.53005E+01     1.4492E-01 -9.6386E-03 -5.3100E-01  5.5050E-01
ac ID =   33377                 2.0510E-01  2.8923E-01  5.2743E-02  3.5848E-01
                               -4.6716E-01  1.9978E+01 -4.3286E+01  2.5147E+03

           1    1.54005E+01     1.1904E-01 -1.3257E-02 -4.4138E-01  4.5734E-01
ac ID =   33377                 7.3882E-01  6.5758E-02  1.2772E-01  7.5266E-01
                               -4.6917E-01  2.0096E+01 -4.3161E+01  2.5147E+03

           1    1.55004E+01     1.2926E-01 -1.5028E-02 -4.0631E-01  4.2664E-01
ac ID =   33377                 1.4925E-02  5.8412E-01 -1.7119E-02  5.8456E-01
                               -4.7112E-01  2.0215E+01 -4.3036E+01  2.5147E+03

           1    1.56004E+01     1.7688E-01 -2.2802E-05 -3.9662E-01  4.3427E-01
ac ID =   33377                 6.5732E-01  1.6420E+00 -2.1889E-01  1.7822E+00
                               -4.7325E-01  2.0333E+01 -4.2909E+01  2.5147E+03

           1    1.57004E+01     1.2354E-01  3.3075E-03 -2.9166E-01  3.1676E-01
ac ID =   33377                 2.0103E-01  8.7830E-01  4.4301E-01  1.0040E+00
                               -4.7521E-01  2.0451E+01 -4.2783E+01  2.5147E+03

           1    1.58004E+01     1.3164E-01 -2.6576E-02 -2.2850E-01  2.6504E-01
ac ID =   33377                 1.1058E+00  9.7556E-01 -6.2910E-02  1.4759E+00
                               -4.7714E-01  2.0568E+01 -4.2656E+01  2.5147E+03

           1    1.59004E+01     1.4626E-01  1.1463E-02 -1.8876E-01  2.3907E-01
ac ID =   33377                 4.2332E-01  1.5791E+00  1.2510E-01  1.6397E+00
                               -4.7923E-01  2.0686E+01 -4.2528E+01  2.5147E+03

           1    1.60004E+01     1.1797E-01 -3.7760E-03 -1.0407E-01  1.5736E-01
ac ID =   33377                 4.0942E-01  1.0778E+00 -5.2937E-01  1.2687E+00
                               -4.8114E-01  2.0803E+01 -4.2401E+01  2.5147E+03

           1    1.61004E+01     1.2187E-01 -2.2232E-02 -4.9297E-02  1.3333E-01
ac ID =   33377                 9.2853E-01  1.1131E+00 -4.1845E-01  1.5088E+00
                               -4.8302E-01  2.0921E+01 -4.2273E+01  2.5147E+03

           1    1.62004E+01     1.3493E-01 -3.2540E-03  2.0161E-02  1.3647E-01
ac ID =   33377                 6.1100E-01  1.5878E+00  1.0738E-01  1.7047E+00
                               -4.8496E-01  2.1038E+01 -4.2146E+01  2.5147E+03

           1    1.63004E+01     1.2364E-01 -5.9424E-03  8.7550E-02  1.5161E-01
ac ID =   33377                 5.4321E-01  1.7914E+00 -3.9681E-01  1.9136E+00
                               -4.8684E-01  2.1155E+01 -4.2019E+01  2.5147E+03

           1    1.64004E+01     8.6472E-02  4.1454E-03  1.1705E-01  1.4559E-01
ac ID =   33377                 4.0386E-01  9.1406E-01 -5.0020E-01  1.1175E+00
                               -4.8873E-01  2.1272E+01 -4.1892E+01  2.5147E+03

           1    1.65003E+01     1.1027E-01 -2.0565E-02  1.4824E-01  1.8590E-01
ac ID =   33377                 9.4226E-01  1.0864E+00 -4.2852E-01  1.5006E+00
                               -4.9041E-01  2.1388E+01 -4.1766E+01  2.5147E+03

           1    1.66003E+01     1.3820E-01 -2.0774E-02  2.1435E-01  2.5589E-01
ac ID =   33377                 8.5279E-01  7.9897E-01 -1.1878E-01  1.1746E+00
                               -4.9220E-01  2.1505E+01 -4.1640E+01  2.5147E+03

           1    1.67003E+01     6.6433E-02  1.4207E-02  2.7284E-01  2.8117E-01
ac ID =   33377                 4.4799E-01 -3.1868E-01 -3.5821E-02  5.5094E-01
                               -4.9401E-01  2.1622E+01 -4.1515E+01  2.5147E+03

           1    1.68003E+01     7.1867E-02 -1.0262E-02  3.2143E-01  3.2952E-01
ac ID =   33377                 9.7436E-01 -2.5356E-01 -3.2409E-01  1.0577E+00
                               -4.9571E-01  2.1738E+01 -4.1391E+01  2.5147E+03

           1    1.69003E+01     8.6389E-02  6.1335E-03  3.5849E-01  3.6881E-01
ac ID =   33377                 7.4144E-01 -4.6893E-02 -1.7621E-01  7.6353E-01
                               -4.9731E-01  2.1855E+01 -4.1267E+01  2.5147E+03

           1    1.70003E+01     7.0810E-02 -3.7815E-03  3.8246E-01  3.8898E-01
ac ID =   33377                 5.9661E-01 -7.8418E-01 -7.2356E-02  9.8798E-01
                               -4.9881E-01  2.1972E+01 -4.1145E+01  2.5147E+03

           1    1.71003E+01     6.3159E-02  1.3409E-02  4.6439E-01  4.6886E-01
ac ID =   33377                 4.1690E-01 -7.3323E-01 -1.6210E-01  8.5890E-01
                               -5.0030E-01  2.2090E+01 -4.1023E+01  2.5147E+03

           1    1.72003E+01     7.5473E-02 -1.3570E-02  4.9827E-01  5.0414E-01
ac ID =   33377                 8.3570E-01 -8.3343E-01  2.1787E-01  1.2002E+00
                               -5.0163E-01  2.2207E+01 -4.0903E+01  2.5147E+03

           1    1.73003E+01     5.1800E-02 -5.5170E-03  5.1486E-01  5.1749E-01
ac ID =   33377                 9.4858E-01 -1.3466E+00  7.1487E-02  1.6487E+00
                               -5.0312E-01  2.2325E+01 -4.0784E+01  2.5147E+03

           1    1.74003E+01     3.0984E-02  3.2067E-03  5.5336E-01  5.5423E-01
ac ID =   33377                 6.9998E-01 -2.2050E+00  2.0211E-01  2.3223E+00
                               -5.0458E-01  2.2443E+01 -4.0666E+01  2.5147E+03

           1    1.75002E+01     4.8686E-02 -7.9794E-03  6.1528E-01  6.1726E-01
ac ID =   33377                 1.0161E+00 -2.3910E+00 -1.7892E-01  2.6041E+00
                               -5.0596E-01  2.2562E+01 -4.0550E+01  2.5147E+03

           1    1.76002E+01     4.7521E-02 -5.1427E-03  6.5856E-01  6.6029E-01
ac ID =   33377                 1.4728E+00 -2.4506E+00 -3.5791E-01  2.8814E+00
                               -5.0733E-01  2.2681E+01 -4.0436E+01  2.5147E+03

           1    1.77002E+01     2.1189E-03  1.9351E-03  6.8218E-01  6.8219E-01
ac ID =   33377                 2.8207E-01 -3.1846E+00 -1.4240E-01  3.2002E+00
                               -5.0851E-01  2.2801E+01 -4.0323E+01  2.5147E+03

           1    1.78002E+01     3.9741E-02 -1.3490E-03  7.1012E-01  7.1124E-01
ac ID =   33377                 6.8696E-01 -2.8371E+00  7.0705E-02  2.9200E+00
                               -5.0965E-01  2.2921E+01 -4.0212E+01  2.5147E+03

           1    1.79002E+01     2.1524E-02 -1.9387E-02  7.4633E-01  7.4689E-01
ac ID =   33377                 7.2168E-01 -3.3658E+00  3.9065E-02  3.4425E+00
                               -5.1072E-01  2.3042E+01 -4.0103E+01  2.5147E+03

           1    1.80002E+01    -3.1120E-03  1.7726E-02  7.9604E-01  7.9625E-01
ac ID =   33377                 1.5705E-01 -4.2729E+00 -3.8894E-01  4.2935E+00
                               -5.1188E-01  2.3164E+01 -3.9996E+01  2.5147E+03

           1    1.81002E+01     2.3828E-02  9.3987E-03  8.4634E-01  8.4673E-01
ac ID =   33377                -4.5392E-02 -3.8383E+00 -2.1786E-01  3.8448E+00
                               -5.1288E-01  2.3286E+01 -3.9890E+01  2.5147E+03

           1    1.82002E+01     3.8497E-03 -1.6824E-02  8.3242E-01  8.3259E-01
ac ID =   33377                 1.1259E+00 -4.2505E+00 -2.3930E-01  4.4036E+00
                               -5.1389E-01  2.3409E+01 -3.9787E+01  2.5147E+03

           1    1.83002E+01     5.9262E-04 -5.3767E-03  8.5234E-01  8.5236E-01
ac ID =   33377                 7.9801E-01 -4.0833E+00 -3.7153E-02  4.1607E+00
                               -5.1482E-01  2.3532E+01 -3.9686E+01  2.5147E+03

           1    1.84002E+01     6.3142E-04  3.1525E-03  9.1419E-01  9.1419E-01
ac ID =   33377                 8.9860E-01 -4.7695E+00  3.8181E-02  4.8536E+00
                               -5.1580E-01  2.3657E+01 -3.9587E+01  2.5147E+03

           1    1.85001E+01     9.8605E-03 -3.2609E-03  9.2841E-01  9.2847E-01
ac ID =   33377                 1.3204E+00 -4.6253E+00 -4.9051E-01  4.8351E+00
                               -5.1675E-01  2.3782E+01 -3.9490E+01  2.5147E+03

           1    1.86001E+01    -4.9655E-03 -2.0959E-02  9.3144E-01  9.3168E-01
ac ID =   33377                 1.2619E+00 -5.2472E+00 -2.9774E-01  5.4050E+00
                               -5.1755E-01  2.3907E+01 -3.9395E+01  2.5147E+03

           1    1.87001E+01    -2.1534E-02 -2.1815E-03  9.5431E-01  9.5456E-01
ac ID =   33377                 9.1130E-01 -5.6569E+00  2.4981E-01  5.7353E+00
                               -5.1849E-01  2.4034E+01 -3.9303E+01  2.5147E+03

           1    1.88001E+01    -1.7598E-03  6.7290E-03  9.6449E-01  9.6451E-01
ac ID =   33377                 1.6061E-01 -5.7750E+00  6.4021E-02  5.7776E+00
                               -5.1943E-01  2.4161E+01 -3.9213E+01  2.5147E+03

           1    1.89001E+01    -2.2849E-02 -2.2299E-02  9.8349E-01  9.8400E-01
ac ID =   33377                 1.2380E+00 -6.4926E+00 -4.1959E-01  6.6229E+00
                               -5.2040E-01  2.4290E+01 -3.9125E+01  2.5147E+03

           1    1.90001E+01    -1.2119E-02 -5.3255E-03  1.0070E+00  1.0071E+00
ac ID =   33377                 4.4554E-01 -6.2605E+00 -3.5355E-01  6.2862E+00
                               -5.2137E-01  2.4419E+01 -3.9040E+01  2.5147E+03

           1    1.91001E+01    -1.1870E-02  5.1367E-03  9.9222E-01  9.9230E-01
ac ID =   33377                 6.2226E-01 -6.4966E+00 -1.4215E-01  6.5279E+00
                               -5.2246E-01  2.4548E+01 -3.8957E+01  2.5147E+03

           1    1.92001E+01    -2.2377E-02 -1.0978E-03  1.0114E+00  1.0117E+00
ac ID =   33377                 6.8597E-01 -6.7298E+00  2.1457E-01  6.7681E+00
                               -5.2351E-01  2.4679E+01 -3.8876E+01  2.5147E+03

           1    1.93001E+01    -1.0001E-02 -1.5136E-02  1.0383E+00  1.0384E+00
ac ID =   33377                 1.2217E+00 -6.7791E+00 -1.6239E-01  6.8902E+00
                               -5.2448E-01  2.4811E+01 -3.8798E+01  2.5147E+03

           1    1.94001E+01    -1.3930E-02  7.1958E-03  1.0468E+00  1.0470E+00
ac ID =   33377                 8.6752E-01 -7.0753E+00 -4.0181E-01  7.1396E+00
                               -5.2549E-01  2.4943E+01 -3.8722E+01  2.5147E+03

           1    1.95000E+01    -3.3831E-02  7.4923E-03  1.0172E+00  1.0178E+00
ac ID =   33377                 9.3173E-01 -7.3143E+00 -4.2610E-01  7.3857E+00
                               -5.2645E-01  2.5076E+01 -3.8649E+01  2.5147E+03

           1    1.96000E+01    -2.9286E-02 -1.3295E-02  1.0128E+00  1.0134E+00
ac ID =   33377                 1.0999E+00 -7.4871E+00 -2.6225E-01  7.5720E+00
                               -5.2736E-01  2.5211E+01 -3.8578E+01  2.5147E+03

           1    1.97005E+01    -2.9043E-02 -7.5818E-03  1.0343E+00  1.0348E+00
ac ID =   33377                 7.6085E-01 -7.6639E+00  3.0721E-02  7.7017E+00
                               -5.2823E-01  2.5346E+01 -3.8510E+01  2.5147E+03

           1    1.98005E+01    -2.1649E-02  8.0677E-03  1.0160E+00  1.0162E+00
ac ID =   33377                 3.5736E-01 -7.6121E+00  1.1167E-02  7.6205E+00
                               -5.2917E-01  2.5482E+01 -3.8443E+01  2.5147E+03

           1    1.99005E+01    -1.9268E-02  8.1004E-03  1.0170E+00  1.0172E+00
ac ID =   33377                 9.1678E-01 -7.7040E+00  8.9357E-02  7.7589E+00
                               -5.3002E-01  2.5619E+01 -3.8380E+01  2.5147E+03

           1    2.00005E+01    -2.3740E-02 -2.4402E-02  9.9585E-01  9.9644E-01
ac ID =   33377                 1.0734E+00 -8.3696E+00  8.3178E-02  8.4386E+00
                               -5.3071E-01  2.5756E+01 -3.8319E+01  2.5147E+03

           1    2.01005E+01    -2.2067E-02 -1.9109E-03  1.0148E+00  1.0151E+00
ac ID =   33377                 1.0592E+00 -8.2080E+00  1.0248E-01  8.2767E+00
                               -5.3156E-01  2.5895E+01 -3.8260E+01  2.5147E+03

           1    2.02005E+01    -1.8543E-02 -3.4938E-03  1.0049E+00  1.0051E+00
ac ID =   33377                 1.1932E+00 -8.4050E+00 -7.2420E-02  8.4896E+00
                               -5.3234E-01  2.6034E+01 -3.8203E+01  2.5147E+03

           1    2.03005E+01    -2.5269E-02 -2.8746E-02  9.7258E-01  9.7333E-01
ac ID =   33377                 1.7372E+00 -8.7083E+00 -8.7295E-02  8.8803E+00
                               -5.3308E-01  2.6174E+01 -3.8149E+01  2.5147E+03

           1    2.04005E+01    -2.3220E-02 -2.3018E-02  9.5263E-01  9.5319E-01
ac ID =   33377                 1.5309E+00 -8.4662E+00  3.1150E-02  8.6036E+00
                               -5.3383E-01  2.6315E+01 -3.8097E+01  2.5147E+03

           1    2.05004E+01    -2.0625E-02  5.2594E-03  9.3151E-01  9.3176E-01
ac ID =   33377                 1.0741E+00 -8.7376E+00 -1.7166E-01  8.8050E+00
                               -5.3460E-01  2.6456E+01 -3.8047E+01  2.5147E+03

           1    2.06004E+01    -2.5295E-02 -1.8475E-02  9.3013E-01  9.3066E-01
ac ID =   33377                 1.5316E+00 -9.0280E+00 -6.1303E-02  9.1572E+00
                               -5.3523E-01  2.6598E+01 -3.8000E+01  2.5147E+03

           1    2.07004E+01    -4.6077E-03 -1.7735E-02  8.9665E-01  8.9684E-01
ac ID =   33377                 1.2811E+00 -8.4241E+00 -3.8822E-02  8.5211E+00
                               -5.3581E-01  2.6741E+01 -3.7954E+01  2.5147E+03

           1    2.08004E+01    -3.0260E-02  7.8514E-03  8.7523E-01  8.7579E-01
ac ID =   33377                 8.4421E-01 -9.2831E+00  3.6140E-01  9.3284E+00
                               -5.3643E-01  2.6885E+01 -3.7911E+01  2.5147E+03

           1    2.09004E+01     2.2408E-03 -1.9566E-03  8.5276E-01  8.5276E-01
ac ID =   33377                 1.0209E+00 -8.8370E+00  2.4755E-01  8.8993E+00
                               -5.3701E-01  2.7029E+01 -3.7870E+01  2.5147E+03

           1    2.10004E+01     8.9919E-03 -1.5803E-02  8.4864E-01  8.4884E-01
ac ID =   33377                 1.5474E+00 -8.7558E+00 -4.0175E-02  8.8915E+00
                               -5.3748E-01  2.7174E+01 -3.7831E+01  2.5147E+03

           1    2.11004E+01    -5.7040E-03 -1.4338E-02  8.3737E-01  8.3751E-01
ac ID =   33377                 1.2196E+00 -9.0672E+00 -2.7703E-01  9.1530E+00
                               -5.3790E-01  2.7320E+01 -3.7793E+01  2.5147E+03

           1    2.12004E+01    -1.0998E-02  1.0985E-02  7.8282E-01  7.8297E-01
ac ID =   33377                 1.0030E+00 -9.0673E+00 -2.1900E-01  9.1252E+00
                               -5.3832E-01  2.7466E+01 -3.7758E+01  2.5147E+03

           1    2.13004E+01     3.1336E-02 -1.7361E-02  7.4714E-01  7.4800E-01
ac ID =   33377                 1.5658E+00 -8.3458E+00 -7.1584E-02  8.4917E+00
                               -5.3857E-01  2.7612E+01 -3.7724E+01  2.5147E+03

           1    2.14004E+01     1.3169E-02 -1.9761E-02  7.3381E-01  7.3420E-01
ac ID =   33377                 1.1925E+00 -8.7777E+00 -5.1379E-02  8.8585E+00
                               -5.3866E-01  2.7760E+01 -3.7693E+01  2.5147E+03

           1    2.15003E+01    -2.0882E-03  1.3752E-02  7.1114E-01  7.1127E-01
ac ID =   33377                 4.8718E-01 -9.2451E+00 -7.2676E-02  9.2582E+00
                               -5.3881E-01  2.7907E+01 -3.7662E+01  2.5147E+03

           1    2.16003E+01     4.6719E-02 -9.6578E-03  6.5946E-01  6.6118E-01
ac ID =   33377                 8.8572E-01 -8.3313E+00 -6.2853E-04  8.3782E+00
                               -5.3882E-01  2.8055E+01 -3.7634E+01  2.5147E+03

           1    2.17003E+01     2.8526E-02 -2.4442E-02  6.2570E-01  6.2683E-01
ac ID =   33377                 1.1354E+00 -9.0752E+00  1.4071E-01  9.1470E+00
                               -5.3880E-01  2.8204E+01 -3.7607E+01  2.5147E+03

           1    2.18003E+01     4.7540E-03  2.6773E-03  6.0161E-01  6.0164E-01
ac ID =   33377                 5.2900E-01 -9.7028E+00  8.0068E-02  9.7176E+00
                               -5.3893E-01  2.8353E+01 -3.7581E+01  2.5147E+03

           1    2.19003E+01     4.2182E-02  2.4054E-02  5.7108E-01  5.7314E-01
ac ID =   33377                 5.6545E-01 -9.3530E+00 -2.5035E-02  9.3701E+00
                               -5.3895E-01  2.8502E+01 -3.7557E+01  2.5147E+03

           1    2.20003E+01     4.6310E-02 -2.6221E-02  5.3261E-01  5.3526E-01
ac ID =   33377                 1.2313E+00 -9.5832E+00 -2.7579E-01  9.6659E+00
                               -5.3876E-01  2.8651E+01 -3.7534E+01  2.5147E+03

           1    2.21003E+01     8.1730E-03 -2.2432E-02  4.9221E-01  4.9279E-01
ac ID =   33377                 1.2932E+00 -1.0525E+01 -2.3088E-01  1.0607E+01
                               -5.3865E-01  2.8800E+01 -3.7512E+01  2.5147E+03

           1    2.22003E+01     3.7496E-02  2.0761E-02  4.5114E-01  4.5317E-01
ac ID =   33377                -7.3349E-02 -1.0126E+01 -1.7799E-01  1.0127E+01
                               -5.3853E-01  2.8950E+01 -3.7491E+01  2.5147E+03

           1    2.23003E+01     4.4055E-02 -8.9511E-03  4.1963E-01  4.2203E-01
ac ID =   33377                 9.1640E-01 -1.0372E+01 -3.8625E-01  1.0420E+01
                               -5.3829E-01  2.9100E+01 -3.7471E+01  2.5147E+03

           1    2.24003E+01     3.5484E-02 -9.6918E-03  3.7211E-01  3.7393E-01
ac ID =   33377                 4.3867E-01 -1.0671E+01 -3.2179E-01  1.0685E+01
                               -5.3793E-01  2.9250E+01 -3.7451E+01  2.5147E+03

           1    2.25002E+01     3.7864E-02  2.3094E-02  3.3361E-01  3.3654E-01
ac ID =   33377                -1.5422E-01 -1.0706E+01 -1.5655E-01  1.0709E+01
                               -5.3758E-01  2.9401E+01 -3.7433E+01  2.5147E+03

           1    2.26002E+01     5.3891E-02  1.0843E-02  2.9116E-01  2.9630E-01
ac ID =   33377                -4.2516E-01 -1.0816E+01 -1.2019E-01  1.0825E+01
                               -5.3705E-01  2.9551E+01 -3.7415E+01  2.5147E+03

           1    2.27002E+01     4.1923E-02 -1.7244E-02  2.5424E-01  2.5825E-01
ac ID =   33377                 4.8066E-01 -1.0984E+01 -3.0739E-01  1.0999E+01
                               -5.3650E-01  2.9702E+01 -3.7397E+01  2.5147E+03

           1    2.28002E+01     3.9463E-02  1.0500E-02  2.3446E-01  2.3799E-01
ac ID =   33377                 3.3726E-02 -1.1606E+01 -2.8871E-01  1.1610E+01
                               -5.3594E-01  2.9852E+01 -3.7381E+01  2.5147E+03

           1    2.29002E+01     6.9159E-02  2.4218E-02  1.7062E-01  1.8569E-01
ac ID =   33377                -2.5005E-01 -1.1151E+01 -2.0846E-01  1.1156E+01
                               -5.3532E-01  3.0003E+01 -3.7364E+01  2.5147E+03

           1    2.30002E+01     5.4768E-02  1.5566E-03  1.2936E-01  1.4048E-01
ac ID =   33377                 6.8755E-01 -1.1565E+01 -2.2087E-01  1.1587E+01
                               -5.3458E-01  3.0154E+01 -3.7348E+01  2.5147E+03

           1    2.31002E+01     5.7827E-02 -6.6612E-03  1.1156E-01  1.2583E-01
ac ID =   33377                -3.0523E-02 -1.1559E+01 -9.7451E-03  1.1559E+01
                               -5.3370E-01  3.0305E+01 -3.7332E+01  2.5147E+03

           1    2.32002E+01     7.9920E-02  2.4192E-02  6.8584E-02  1.0806E-01
ac ID =   33377                -7.9177E-02 -1.1222E+01 -3.6251E-01  1.1229E+01
                               -5.3290E-01  3.0455E+01 -3.7316E+01  2.5147E+03

           1    2.33002E+01     6.7459E-02 -9.8353E-03  3.7697E-02  7.7901E-02
ac ID =   33377                -1.8545E-01 -1.1533E+01 -2.6518E-01  1.1537E+01
                               -5.3196E-01  3.0606E+01 -3.7300E+01  2.5147E+03

           1    2.34002E+01     9.0856E-02  1.4914E-03 -2.0095E-02  9.3064E-02
ac ID =   33377                 2.3852E-01 -1.1155E+01 -3.0017E-02  1.1158E+01
                               -5.3107E-01  3.0757E+01 -3.7284E+01  2.5147E+03

           1    2.35001E+01     9.1539E-02  1.0677E-02 -4.6786E-02  1.0336E-01
ac ID =   33377                -7.9520E-01 -1.1427E+01  1.4176E-01  1.1455E+01
                               -5.3018E-01  3.0907E+01 -3.7267E+01  2.5147E+03

           1    2.36001E+01     9.4336E-02  1.2855E-02 -8.3188E-02  1.2643E-01
ac ID =   33377                -2.6454E-01 -1.1398E+01  2.9220E-02  1.1401E+01
                               -5.2930E-01  3.1058E+01 -3.7251E+01  2.5147E+03

           1    2.37001E+01     1.1404E-01 -1.3366E-02 -1.1827E-01  1.6483E-01
ac ID =   33377                -1.6678E-01 -1.0975E+01 -1.1877E-01  1.0977E+01
                               -5.2833E-01  3.1208E+01 -3.7234E+01  2.5147E+03

           1    2.38001E+01     1.0628E-01 -8.1269E-03 -1.5419E-01  1.8745E-01
ac ID =   33377                 2.4966E-01 -1.0999E+01 -5.3551E-01  1.1015E+01
                               -5.2749E-01  3.1358E+01 -3.7216E+01  2.5147E+03

           1    2.39001E+01     1.2344E-01  5.5989E-03 -2.0824E-01  2.4214E-01
ac ID =   33377                -1.7551E-01 -1.0356E+01 -2.3445E-01  1.0360E+01
                               -5.2668E-01  3.1508E+01 -3.7198E+01  2.5147E+03

           1    2.40001E+01     1.1751E-01  9.1246E-03 -2.1658E-01  2.4657E-01
ac ID =   33377                -9.1991E-02 -1.0497E+01 -1.5559E-01  1.0498E+01
                               -5.2588E-01  3.1657E+01 -3.7180E+01  2.5147E+03

           1    2.41001E+01     1.4424E-01 -1.5363E-02 -2.4551E-01  2.8516E-01
ac ID =   33377                 2.9642E-01 -9.9343E+00 -1.3165E-01  9.9396E+00
                               -5.2502E-01  3.1806E+01 -3.7161E+01  2.5147E+03

           1    2.42001E+01     1.2994E-01  1.8746E-03 -2.7353E-01  3.0283E-01
ac ID =   33377                -3.4607E-01 -9.9610E+00 -9.9498E-02  9.9675E+00
                               -5.2418E-01  3.1955E+01 -3.7141E+01  2.5147E+03

           1    2.43001E+01     1.3927E-01  1.0354E-02 -3.1297E-01  3.4271E-01
ac ID =   33377                -4.8145E-01 -1.0071E+01 -1.9539E-01  1.0084E+01
                               -5.2337E-01  3.2103E+01 -3.7120E+01  2.5147E+03

           1    2.44001E+01     1.6176E-01  1.9714E-05 -3.4398E-01  3.8011E-01
ac ID =   33377                -5.0107E-01 -9.4128E+00 -1.8732E-01  9.4280E+00
                               -5.2253E-01  3.2252E+01 -3.7099E+01  2.5147E+03

           1    2.45005E+01     1.5728E-01  8.0237E-04 -3.7019E-01  4.0222E-01
ac ID =   33377                -3.2107E-01 -9.6792E+00 -9.1691E-03  9.6846E+00
                               -5.2170E-01  3.2400E+01 -3.7077E+01  2.5147E+03

           1    2.46005E+01     1.5546E-01  5.4799E-03 -3.9783E-01  4.2716E-01
ac ID =   33377                -6.8008E-01 -9.4829E+00  1.9947E-01  9.5094E+00
                               -5.2089E-01  3.2547E+01 -3.7053E+01  2.5147E+03

           1    2.47005E+01     1.6897E-01  8.4037E-03 -4.2116E-01  4.5387E-01
ac ID =   33377                -1.4429E-02 -9.1727E+00 -2.8614E-02  9.1728E+00
                               -5.2010E-01  3.2694E+01 -3.7029E+01  2.5147E+03

           1    2.48005E+01     1.7757E-01 -1.3542E-02 -4.5027E-01  4.8421E-01
ac ID =   33377                -5.9346E-02 -8.8230E+00 -2.1791E-01  8.8259E+00
                               -5.1924E-01  3.2840E+01 -3.7004E+01  2.5147E+03

           1    2.49005E+01     1.6350E-01  1.4272E-03 -4.5390E-01  4.8245E-01
ac ID =   33377                 6.7158E-02 -9.0687E+00 -1.9455E-01  9.0710E+00
                               -5.1840E-01  3.2986E+01 -3.6978E+01  2.5147E+03

