 LSTC 50th% Full_FE H-III Dummy (Beta Version, February 17, 2019)        
                    ls-dyna smp s R16 R16.0_619_d222963 date 03/18/2025

{BEGIN LEGEND}
 Entity #        Title
        1     Upper_Neck_Force_INJURY                                              
{END LEGEND}



 line#1  section#     time        x-force     y-force     z-force    magnitude
 line#2  resultant  moments       x-moment    y-moment    z-moment   magnitude
 line#3  centroids                x           y           z            area  
           1    0.00000E+00     0.0000E+00  0.0000E+00  0.0000E+00  0.0000E+00
ac ID =   33377                 0.0000E+00  0.0000E+00  0.0000E+00  0.0000E+00
                               -3.7437E-01  1.0501E+01 -4.6940E+01  0.0000E+00

           1    1.00490E-01     1.3622E-04 -4.9880E-03  2.5983E-01  2.5988E-01
ac ID =   33377                 4.2544E-01 -1.2521E+00 -2.7100E-02  1.3227E+00
                               -3.7387E-01  1.0590E+01 -4.6886E+01  2.5147E+03

           1    2.00480E-01    -4.4291E-02  5.0784E-04  4.4119E-01  4.4341E-01
ac ID =   33377                 3.0746E-01 -1.5986E+00  2.0194E-02  1.6280E+00
                               -3.7386E-01  1.0591E+01 -4.6888E+01  2.5147E+03

           1    3.00470E-01     1.4940E-02 -2.8878E-03  2.1768E-01  2.1821E-01
ac ID =   33377                 2.7548E-02 -3.3887E-01  6.9245E-02  3.4696E-01
                               -3.7382E-01  1.0591E+01 -4.6889E+01  2.5147E+03

           1    4.00460E-01     2.7196E-03  1.0617E-02  8.8188E-02  8.8867E-02
ac ID =   33377                -4.9323E-01 -9.4336E-01  7.8937E-04  1.0645E+00
                               -3.7383E-01  1.0592E+01 -4.6890E+01  2.5147E+03

           1    5.00450E-01    -4.0743E-02  4.5128E-03  1.6170E-01  1.6682E-01
ac ID =   33377                -4.0097E-01 -1.5083E+00 -1.1422E-01  1.5649E+00
                               -3.7385E-01  1.0594E+01 -4.6893E+01  2.5147E+03

           1    6.00440E-01    -1.0863E-02  3.9417E-03  3.4326E-01  3.4345E-01
ac ID =   33377                 9.4625E-02 -1.3276E+00 -3.8652E-02  1.3315E+00
                               -3.7385E-01  1.0595E+01 -4.6897E+01  2.5147E+03

           1    7.00430E-01     2.5773E-03 -5.3879E-03  2.9515E-01  2.9521E-01
ac ID =   33377                 1.3623E-01 -5.0279E-01  7.9488E-02  5.2695E-01
                               -3.7389E-01  1.0597E+01 -4.6901E+01  2.5147E+03

           1    8.00420E-01    -3.0855E-02 -1.1258E-03  1.0042E-01  1.0506E-01
ac ID =   33377                 8.3071E-02 -1.0531E+00  4.8136E-02  1.0574E+00
                               -3.7394E-01  1.0599E+01 -4.6905E+01  2.5147E+03

           1    9.00410E-01    -3.9175E-02  1.0839E-03  6.2618E-02  7.3871E-02
ac ID =   33377                 9.0875E-02 -1.0715E+00 -2.6325E-03  1.0754E+00
                               -3.7399E-01  1.0601E+01 -4.6909E+01  2.5147E+03

           1    1.00040E+00     1.4706E-02 -3.9912E-03  2.2074E-01  2.2126E-01
ac ID =   33377                 3.6738E-01 -2.8787E-01 -6.2729E-02  4.7093E-01
                               -3.7400E-01  1.0604E+01 -4.6915E+01  2.5147E+03

           1    1.10039E+00     4.5282E-04 -3.0085E-03  2.7079E-01  2.7081E-01
ac ID =   33377                 3.4415E-01 -8.8174E-01 -5.4917E-02  9.4811E-01
                               -3.7401E-01  1.0607E+01 -4.6921E+01  2.5147E+03

           1    1.20038E+00    -3.2386E-02 -4.9425E-04  1.2919E-01  1.3319E-01
ac ID =   33377                -1.5271E-01 -1.1805E+00  8.9770E-03  1.1903E+00
                               -3.7403E-01  1.0610E+01 -4.6927E+01  2.5147E+03

           1    1.30037E+00    -1.0173E-02  4.9204E-03  7.4421E-02  7.5274E-02
ac ID =   33377                -3.0189E-01 -8.8905E-01  1.2963E-02  9.3900E-01
                               -3.7407E-01  1.0612E+01 -4.6933E+01  2.5147E+03

           1    1.40036E+00     7.8475E-03  3.5809E-03  1.7391E-01  1.7412E-01
ac ID =   33377                -2.8971E-01 -8.3562E-01  3.2865E-02  8.8502E-01
                               -3.7409E-01  1.0616E+01 -4.6941E+01  2.5147E+03

           1    1.50035E+00    -2.7041E-02  1.4917E-03  3.2785E-01  3.2897E-01
ac ID =   33377                -1.6019E-02 -1.5795E+00 -4.4289E-02  1.5803E+00
                               -3.7413E-01  1.0620E+01 -4.6949E+01  2.5147E+03

           1    1.60034E+00    -1.9190E-02 -2.2925E-03  2.2146E-01  2.2230E-01
ac ID =   33377                -2.0597E-02 -1.3684E+00 -1.9391E-02  1.3687E+00
                               -3.7420E-01  1.0624E+01 -4.6957E+01  2.5147E+03

           1    1.70033E+00    -3.0015E-03 -5.1567E-04  5.8847E-02  5.8925E-02
ac ID =   33377                -4.2874E-02 -6.6648E-01  9.4711E-02  6.7454E-01
                               -3.7427E-01  1.0627E+01 -4.6965E+01  2.5147E+03

           1    1.80032E+00    -2.0000E-02  1.1502E-03  7.7261E-02  7.9816E-02
ac ID =   33377                 8.2128E-02 -1.1142E+00  1.2742E-01  1.1245E+00
                               -3.7434E-01  1.0632E+01 -4.6974E+01  2.5147E+03

           1    1.90031E+00    -7.5996E-03 -2.6777E-03  1.9170E-01  1.9187E-01
ac ID =   33377                 2.7190E-01 -8.2377E-01 -6.5515E-02  8.6995E-01
                               -3.7439E-01  1.0636E+01 -4.6984E+01  2.5147E+03

           1    2.00030E+00    -1.7331E-03 -4.5000E-03  1.5632E-01  1.5640E-01
ac ID =   33377                 2.0387E-01 -4.4343E-01 -1.4659E-01  5.0959E-01
                               -3.7444E-01  1.0641E+01 -4.6993E+01  2.5147E+03

           1    2.10029E+00    -2.5287E-02  2.5234E-03  2.9491E-03  2.5583E-02
ac ID =   33377                -7.1463E-02 -6.9711E-01  4.2236E-02  7.0204E-01
                               -3.7450E-01  1.0645E+01 -4.7003E+01  2.5147E+03

           1    2.20028E+00    -1.3424E-02  5.1272E-03  3.5210E-03  1.4795E-02
ac ID =   33377                -2.3382E-01 -6.5310E-01  2.4290E-02  6.9412E-01
                               -3.7456E-01  1.0650E+01 -4.7013E+01  2.5147E+03

           1    2.30027E+00     1.1658E-03  4.8292E-03  1.4867E-01  1.4875E-01
ac ID =   33377                -1.4801E-01 -8.1632E-01 -6.4328E-02  8.3212E-01
                               -3.7462E-01  1.0655E+01 -4.7024E+01  2.5147E+03

           1    2.40026E+00    -1.7648E-02 -1.8576E-03  1.8883E-01  1.8966E-01
ac ID =   33377                -1.5492E-01 -1.1818E+00  8.3082E-02  1.1948E+00
                               -3.7469E-01  1.0661E+01 -4.7035E+01  2.5147E+03

           1    2.50025E+00    -1.8633E-02  1.2502E-03  1.3765E-04  1.8676E-02
ac ID =   33377                -1.9695E-01 -8.8560E-01  1.3062E-01  9.1659E-01
                               -3.7479E-01  1.0665E+01 -4.7045E+01  2.5147E+03

           1    2.60024E+00    -6.9258E-03  5.8464E-03 -7.6956E-02  7.7488E-02
ac ID =   33377                -2.0832E-01 -1.7951E-01  4.1956E-02  2.7817E-01
                               -3.7490E-01  1.0671E+01 -4.7056E+01  2.5147E+03

           1    2.70023E+00    -1.1811E-02 -1.6903E-03  9.7710E-03  1.5421E-02
ac ID =   33377                 3.1896E-02 -2.1789E-01  3.3457E-02  2.2274E-01
                               -3.7501E-01  1.0676E+01 -4.7068E+01  2.5147E+03

           1    2.80022E+00    -5.5727E-03 -4.7153E-03  6.3548E-02  6.3966E-02
ac ID =   33377                 3.6804E-01 -1.3794E-01 -1.5734E-02  3.9336E-01
                               -3.7511E-01  1.0682E+01 -4.7079E+01  2.5147E+03

           1    2.90021E+00     5.0334E-03 -2.4937E-03 -1.0094E-02  1.1551E-02
ac ID =   33377                 1.4892E-01  3.0900E-01 -8.1464E-02  3.5255E-01
                               -3.7520E-01  1.0687E+01 -4.7090E+01  2.5147E+03

           1    3.00020E+00    -7.2372E-03  1.9433E-03 -8.8846E-02  8.9162E-02
ac ID =   33377                -3.4643E-02  8.0286E-02 -5.4046E-02  1.0280E-01
                               -3.7530E-01  1.0692E+01 -4.7101E+01  2.5147E+03

           1    3.10019E+00    -2.4359E-03  4.9889E-04 -8.7996E-03  9.1442E-03
ac ID =   33377                 3.6733E-02 -2.5121E-01 -3.3964E-02  2.5615E-01
                               -3.7538E-01  1.0698E+01 -4.7113E+01  2.5147E+03

           1    3.20018E+00     3.6213E-03  1.8751E-03  6.9850E-02  6.9969E-02
ac ID =   33377                -1.8527E-02 -3.3918E-01  2.3509E-02  3.4049E-01
                               -3.7545E-01  1.0703E+01 -4.7125E+01  2.5147E+03

           1    3.30017E+00     3.4014E-04  1.1568E-03  1.3449E-02  1.3503E-02
ac ID =   33377                -2.3153E-01 -3.6265E-01  1.1026E-01  4.4416E-01
                               -3.7554E-01  1.0708E+01 -4.7137E+01  2.5147E+03

           1    3.40016E+00    -2.6498E-03  2.7990E-03 -1.0114E-01  1.0121E-01
ac ID =   33377                -3.0234E-01 -3.1572E-02  1.2321E-01  3.2801E-01
                               -3.7565E-01  1.0713E+01 -4.7148E+01  2.5147E+03

           1    3.50015E+00    -4.8889E-03  3.1442E-03 -1.3200E-01  1.3213E-01
ac ID =   33377                -1.6304E-01  2.6833E-01  4.0769E-02  3.1662E-01
                               -3.7576E-01  1.0719E+01 -4.7160E+01  2.5147E+03

           1    3.60014E+00     5.7681E-03 -3.1149E-03 -5.2651E-02  5.3058E-02
ac ID =   33377                 1.1989E-01  7.3844E-01 -9.7379E-02  7.5442E-01
                               -3.7586E-01  1.0724E+01 -4.7172E+01  2.5147E+03

           1    3.70013E+00     1.0617E-02 -4.9837E-03 -4.6579E-02  4.8033E-02
ac ID =   33377                 3.1311E-01  8.5938E-01 -1.6497E-01  9.2940E-01
                               -3.7596E-01  1.0729E+01 -4.7183E+01  2.5147E+03

           1    3.80012E+00     7.5884E-03 -2.8927E-03 -1.2884E-01  1.2909E-01
ac ID =   33377                 2.4809E-01  1.0760E+00 -6.5876E-02  1.1062E+00
                               -3.7605E-01  1.0734E+01 -4.7195E+01  2.5147E+03

           1    3.90011E+00     8.5980E-03 -5.1900E-04 -1.8959E-01  1.8978E-01
ac ID =   33377                 1.6793E-01  1.1270E+00 -5.8416E-02  1.1409E+00
                               -3.7613E-01  1.0739E+01 -4.7206E+01  2.5147E+03

           1    4.00010E+00     2.0955E-03 -8.8518E-04 -1.3569E-01  1.3571E-01
ac ID =   33377                -2.4442E-02  7.1166E-01 -1.9067E-02  7.1233E-01
                               -3.7618E-01  1.0744E+01 -4.7217E+01  2.5147E+03

           1    4.10009E+00     4.1350E-03 -2.8570E-04 -9.7768E-02  9.7855E-02
ac ID =   33377                -7.0095E-02  5.3597E-01  9.5019E-03  5.4062E-01
                               -3.7623E-01  1.0748E+01 -4.7228E+01  2.5147E+03

           1    4.20008E+00    -1.4458E-03  2.9098E-03 -1.4137E-01  1.4141E-01
ac ID =   33377                -2.2449E-01  5.2034E-01  9.5700E-02  5.7473E-01
                               -3.7629E-01  1.0753E+01 -4.7239E+01  2.5147E+03

           1    4.30007E+00     1.9519E-03  4.8103E-03 -2.3894E-01  2.3899E-01
ac ID =   33377                -3.3950E-01  9.2688E-01  8.4901E-02  9.9074E-01
                               -3.7637E-01  1.0757E+01 -4.7249E+01  2.5147E+03

           1    4.40006E+00     1.1209E-02  4.4165E-03 -2.0547E-01  2.0583E-01
ac ID =   33377                -1.3547E-01  1.2205E+00  3.2784E-02  1.2284E+00
                               -3.7644E-01  1.0761E+01 -4.7259E+01  2.5147E+03

           1    4.50005E+00     7.2419E-03 -2.4006E-03 -1.2044E-01  1.2068E-01
ac ID =   33377                 2.2035E-01  9.7649E-01 -4.0283E-02  1.0019E+00
                               -3.7650E-01  1.0765E+01 -4.7269E+01  2.5147E+03

           1    4.60004E+00     9.7661E-03 -4.7616E-03 -1.5746E-01  1.5783E-01
ac ID =   33377                 3.2183E-01  1.0705E+00 -1.0299E-01  1.1226E+00
                               -3.7656E-01  1.0768E+01 -4.7279E+01  2.5147E+03

           1    4.70003E+00     7.7246E-03  1.2416E-04 -2.2831E-01  2.2844E-01
ac ID =   33377                 2.2073E-01  9.8518E-01 -6.8506E-02  1.0119E+00
                               -3.7662E-01  1.0771E+01 -4.7288E+01  2.5147E+03

           1    4.80002E+00     7.4642E-03  5.3694E-04 -2.5148E-01  2.5160E-01
ac ID =   33377                 1.0280E-01  9.1679E-01 -3.2035E-03  9.2254E-01
                               -3.7665E-01  1.0774E+01 -4.7297E+01  2.5147E+03

           1    4.90001E+00     8.6796E-03 -1.2639E-03 -1.8844E-01  1.8864E-01
ac ID =   33377                 6.8488E-02  9.0747E-01  1.6391E-02  9.1020E-01
                               -3.7666E-01  1.0778E+01 -4.7306E+01  2.5147E+03

           1    5.00000E+00     9.5659E-03  1.5506E-04 -1.6507E-01  1.6534E-01
ac ID =   33377                -1.7919E-01  8.5582E-01  9.7088E-02  8.7975E-01
                               -3.7667E-01  1.0780E+01 -4.7314E+01  2.5147E+03

           1    5.10049E+00     1.1612E-02  7.6680E-03 -2.4277E-01  2.4317E-01
ac ID =   33377                -3.4636E-01  1.0217E+00  1.0917E-01  1.0843E+00
                               -3.7668E-01  1.0783E+01 -4.7322E+01  2.5147E+03

           1    5.20048E+00     1.8048E-02  5.0834E-03 -2.7154E-01  2.7219E-01
ac ID =   33377                -3.0075E-01  1.4079E+00 -1.8390E-02  1.4398E+00
                               -3.7670E-01  1.0785E+01 -4.7330E+01  2.5147E+03

           1    5.30047E+00     1.9201E-02  9.9152E-04 -2.4001E-01  2.4077E-01
ac ID =   33377                -2.0738E-01  1.3301E+00 -3.9601E-02  1.3468E+00
                               -3.7670E-01  1.0788E+01 -4.7338E+01  2.5147E+03

           1    5.40046E+00     2.5303E-02  2.8146E-03 -2.1746E-01  2.1894E-01
ac ID =   33377                 9.6426E-03  1.3956E+00 -2.0621E-02  1.3958E+00
                               -3.7669E-01  1.0790E+01 -4.7345E+01  2.5147E+03

           1    5.50045E+00     2.8322E-02 -2.4673E-04 -2.8775E-01  2.8914E-01
ac ID =   33377                 8.5936E-02  1.5426E+00 -9.1692E-03  1.5450E+00
                               -3.7667E-01  1.0793E+01 -4.7352E+01  2.5147E+03

           1    5.60044E+00     2.3797E-02 -4.3754E-03 -3.5573E-01  3.5655E-01
ac ID =   33377                 1.8055E-01  1.5718E+00  3.3871E-03  1.5821E+00
                               -3.7666E-01  1.0795E+01 -4.7358E+01  2.5147E+03

           1    5.70043E+00     2.5222E-02 -2.0703E-03 -3.5561E-01  3.5651E-01
ac ID =   33377                 6.5520E-02  1.4385E+00 -5.9131E-02  1.4412E+00
                               -3.7664E-01  1.0798E+01 -4.7364E+01  2.5147E+03

           1    5.80042E+00     3.7143E-02  5.9745E-03 -3.1400E-01  3.1624E-01
ac ID =   33377                -1.9893E-01  1.4875E+00 -3.3600E-02  1.5011E+00
                               -3.7660E-01  1.0801E+01 -4.7371E+01  2.5147E+03

           1    5.90041E+00     4.2151E-02  4.4802E-05 -3.1806E-01  3.2084E-01
ac ID =   33377                -4.8574E-02  1.6170E+00  7.7615E-02  1.6196E+00
                               -3.7657E-01  1.0805E+01 -4.7376E+01  2.5147E+03

           1    6.00040E+00     4.3050E-02  2.2230E-03 -3.8375E-01  3.8616E-01
ac ID =   33377                -2.5018E-01  1.7118E+00  1.8545E-01  1.7399E+00
                               -3.7652E-01  1.0809E+01 -4.7381E+01  2.5147E+03

           1    6.10039E+00     4.8745E-02  1.0075E-02 -3.7912E-01  3.8237E-01
ac ID =   33377                -4.4790E-01  1.6890E+00 -2.0575E-02  1.7475E+00
                               -3.7649E-01  1.0813E+01 -4.7387E+01  2.5147E+03

           1    6.20038E+00     5.8162E-02 -2.2152E-04 -3.5341E-01  3.5816E-01
ac ID =   33377                -2.2904E-01  1.6252E+00 -2.9752E-01  1.6680E+00
                               -3.7647E-01  1.0819E+01 -4.7392E+01  2.5147E+03

           1    6.30037E+00     5.5039E-02  5.7724E-05 -3.7053E-01  3.7459E-01
ac ID =   33377                -4.9509E-02  1.5076E+00 -1.0760E-01  1.5123E+00
                               -3.7641E-01  1.0826E+01 -4.7398E+01  2.5147E+03

           1    6.40036E+00     6.2454E-02  9.8957E-03 -4.5236E-01  4.5676E-01
ac ID =   33377                -2.3579E-01  1.8840E+00  1.5177E-01  1.9048E+00
                               -3.7631E-01  1.0833E+01 -4.7403E+01  2.5147E+03

           1    6.50035E+00     7.9868E-02  4.8767E-03 -5.0261E-01  5.0894E-01
ac ID =   33377                -1.3771E-01  2.5063E+00  9.3570E-02  2.5119E+00
                               -3.7621E-01  1.0842E+01 -4.7409E+01  2.5147E+03

           1    6.60034E+00     8.3653E-02 -4.8844E-03 -4.8584E-01  4.9301E-01
ac ID =   33377                 3.7075E-02  2.5874E+00 -8.1776E-02  2.5889E+00
                               -3.7607E-01  1.0852E+01 -4.7415E+01  2.5147E+03

           1    6.70033E+00     8.6407E-02  4.6118E-03 -4.8559E-01  4.9324E-01
ac ID =   33377                -2.3567E-01  2.7242E+00 -9.4845E-03  2.7344E+00
                               -3.7593E-01  1.0865E+01 -4.7422E+01  2.5147E+03

           1    6.80032E+00     1.0230E-01  1.7744E-02 -5.1895E-01  5.2923E-01
ac ID =   33377                -4.5072E-01  2.9642E+00  1.7541E-01  3.0034E+00
                               -3.7578E-01  1.0878E+01 -4.7428E+01  2.5147E+03

           1    6.90031E+00     1.0722E-01  6.4399E-03 -5.7622E-01  5.8615E-01
ac ID =   33377                -3.7280E-01  3.0160E+00  1.5131E-01  3.0427E+00
                               -3.7559E-01  1.0894E+01 -4.7435E+01  2.5147E+03

           1    7.00030E+00     1.1411E-01 -2.3962E-04 -5.9080E-01  6.0172E-01
ac ID =   33377                -6.0832E-01  3.2610E+00 -3.0812E-02  3.3174E+00
                               -3.7534E-01  1.0912E+01 -4.7443E+01  2.5147E+03

           1    7.10029E+00     1.0827E-01  1.0215E-02 -5.9767E-01  6.0748E-01
ac ID =   33377                -5.8401E-01  2.9304E+00 -1.3610E-01  2.9912E+00
                               -3.7516E-01  1.0932E+01 -4.7452E+01  2.5147E+03

           1    7.20028E+00     1.2055E-01  3.1250E-03 -6.6110E-01  6.7200E-01
ac ID =   33377                -3.2102E-01  3.3942E+00 -7.6746E-02  3.4102E+00
                               -3.7499E-01  1.0955E+01 -4.7461E+01  2.5147E+03

           1    7.30027E+00     1.3160E-01  7.9596E-03 -7.5115E-01  7.6263E-01
ac ID =   33377                -2.5969E-01  3.9000E+00  1.0804E-01  3.9101E+00
                               -3.7481E-01  1.0980E+01 -4.7471E+01  2.5147E+03

           1    7.40026E+00     1.3771E-01  7.4214E-03 -7.9035E-01  8.0230E-01
ac ID =   33377                -3.4518E-01  4.3559E+00  5.3231E-02  4.3698E+00
                               -3.7457E-01  1.1007E+01 -4.7482E+01  2.5147E+03

           1    7.50025E+00     1.5037E-01 -1.7594E-04 -7.7826E-01  7.9265E-01
ac ID =   33377                -1.4412E-01  4.6900E+00  5.5249E-02  4.6925E+00
                               -3.7434E-01  1.1038E+01 -4.7493E+01  2.5147E+03

           1    7.60024E+00     1.5740E-01  2.5386E-03 -8.1373E-01  8.2882E-01
ac ID =   33377                -1.5935E-01  4.9293E+00 -7.1446E-02  4.9324E+00
                               -3.7410E-01  1.1071E+01 -4.7506E+01  2.5147E+03

           1    7.70023E+00     1.5889E-01  7.4296E-03 -8.4813E-01  8.6292E-01
ac ID =   33377                -5.6103E-01  4.9765E+00 -1.6052E-01  5.0106E+00
                               -3.7381E-01  1.1107E+01 -4.7519E+01  2.5147E+03

           1    7.80022E+00     1.5299E-01  1.0705E-02 -8.9762E-01  9.1063E-01
ac ID =   33377                -7.2449E-01  4.6721E+00 -3.2894E-01  4.7394E+00
                               -3.7354E-01  1.1146E+01 -4.7533E+01  2.5147E+03

           1    7.90021E+00     1.7106E-01  8.5995E-03 -9.2850E-01  9.4416E-01
ac ID =   33377                -7.4949E-01  5.0815E+00 -3.6679E-01  5.1495E+00
                               -3.7326E-01  1.1188E+01 -4.7548E+01  2.5147E+03

           1    8.00020E+00     1.8311E-01  5.5973E-03 -9.5705E-01  9.7442E-01
ac ID =   33377                -5.9096E-01  5.3166E+00 -2.0083E-02  5.3494E+00
                               -3.7294E-01  1.1233E+01 -4.7565E+01  2.5147E+03

           1    8.10019E+00     1.7053E-01  1.2497E-02 -1.0476E+00  1.0614E+00
ac ID =   33377                -6.8802E-01  5.6645E+00  3.8448E-01  5.7191E+00
                               -3.7267E-01  1.1282E+01 -4.7582E+01  2.5147E+03

           1    8.20018E+00     1.9487E-01  6.2168E-03 -1.1155E+00  1.1324E+00
ac ID =   33377                -3.1020E-01  6.4747E+00  1.7240E-01  6.4845E+00
                               -3.7240E-01  1.1333E+01 -4.7600E+01  2.5147E+03

           1    8.30017E+00     2.0029E-01 -6.7923E-03 -1.1526E+00  1.1699E+00
ac ID =   33377                -2.6629E-01  6.7739E+00 -1.6666E-01  6.7811E+00
                               -3.7206E-01  1.1388E+01 -4.7619E+01  2.5147E+03

           1    8.40016E+00     1.9744E-01  9.2358E-03 -1.1849E+00  1.2012E+00
ac ID =   33377                -3.1993E-01  6.8527E+00 -2.5294E-01  6.8648E+00
                               -3.7174E-01  1.1446E+01 -4.7639E+01  2.5147E+03

           1    8.50015E+00     2.1238E-01 -2.1800E-03 -1.2459E+00  1.2638E+00
ac ID =   33377                -2.0928E-01  7.4937E+00 -4.3172E-03  7.4966E+00
                               -3.7135E-01  1.1508E+01 -4.7659E+01  2.5147E+03

           1    8.60014E+00     2.0818E-01  4.3837E-03 -1.3155E+00  1.3319E+00
ac ID =   33377                -3.7733E-01  7.4202E+00  2.4575E-01  7.4339E+00
                               -3.7099E-01  1.1572E+01 -4.7681E+01  2.5147E+03

           1    8.70013E+00     2.1614E-01  1.2409E-02 -1.3866E+00  1.4034E+00
ac ID =   33377                -8.9885E-01  7.8340E+00 -1.7511E-02  7.8854E+00
                               -3.7060E-01  1.1640E+01 -4.7703E+01  2.5147E+03

           1    8.80012E+00     2.1799E-01  9.6962E-03 -1.4507E+00  1.4670E+00
ac ID =   33377                -8.8636E-01  7.9981E+00 -2.1742E-01  8.0500E+00
                               -3.7017E-01  1.1711E+01 -4.7726E+01  2.5147E+03

           1    8.90011E+00     2.3175E-01  5.3013E-03 -1.5087E+00  1.5264E+00
ac ID =   33377                -7.5754E-01  8.4195E+00 -1.5255E-01  8.4549E+00
                               -3.6976E-01  1.1786E+01 -4.7749E+01  2.5147E+03

           1    9.00010E+00     2.4137E-01  7.8935E-03 -1.5965E+00  1.6147E+00
ac ID =   33377                -5.7460E-01  8.9679E+00  7.9322E-02  8.9867E+00
                               -3.6933E-01  1.1864E+01 -4.7773E+01  2.5147E+03

           1    9.10009E+00     2.4090E-01  7.8787E-03 -1.6606E+00  1.6780E+00
ac ID =   33377                -5.9316E-01  9.3203E+00  1.5052E-01  9.3403E+00
                               -3.6888E-01  1.1945E+01 -4.7797E+01  2.5147E+03

           1    9.20008E+00     2.5181E-01 -2.9834E-04 -1.7208E+00  1.7391E+00
ac ID =   33377                -2.1351E-01  9.6544E+00 -1.1855E-01  9.6575E+00
                               -3.6842E-01  1.2029E+01 -4.7822E+01  2.5147E+03

           1    9.30007E+00     2.5620E-01  1.5376E-03 -1.7956E+00  1.8138E+00
ac ID =   33377                -3.3531E-01  9.7697E+00 -1.5946E-01  9.7768E+00
                               -3.6789E-01  1.2116E+01 -4.7847E+01  2.5147E+03

           1    9.40006E+00     2.6120E-01  3.3466E-03 -1.8738E+00  1.8919E+00
ac ID =   33377                -3.0467E-01  1.0266E+01 -2.0690E-01  1.0273E+01
                               -3.6734E-01  1.2207E+01 -4.7872E+01  2.5147E+03

           1    9.50005E+00     2.5969E-01  6.2117E-03 -1.9470E+00  1.9642E+00
ac ID =   33377                -6.3828E-01  1.0510E+01 -2.6864E-02  1.0529E+01
                               -3.6674E-01  1.2300E+01 -4.7897E+01  2.5147E+03

           1    9.60004E+00     2.7612E-01  5.9915E-03 -2.0257E+00  2.0445E+00
ac ID =   33377                -7.5087E-01  1.1236E+01 -3.0070E-03  1.1261E+01
                               -3.6615E-01  1.2397E+01 -4.7922E+01  2.5147E+03

           1    9.70003E+00     2.8538E-01  1.2876E-02 -2.0822E+00  2.1017E+00
ac ID =   33377                -8.9177E-01  1.1787E+01  5.9092E-02  1.1821E+01
                               -3.6549E-01  1.2497E+01 -4.7946E+01  2.5147E+03

           1    9.80002E+00     2.9293E-01  8.9854E-03 -2.1641E+00  2.1839E+00
ac ID =   33377                -9.4179E-01  1.2197E+01 -3.6678E-02  1.2233E+01
                               -3.6480E-01  1.2599E+01 -4.7971E+01  2.5147E+03

           1    9.90001E+00     3.0318E-01  5.1224E-03 -2.2582E+00  2.2785E+00
ac ID =   33377                -6.5380E-01  1.2923E+01 -1.5704E-01  1.2940E+01
                               -3.6413E-01  1.2705E+01 -4.7995E+01  2.5147E+03

           1    1.00005E+01     3.1314E-01  6.3341E-03 -2.3398E+00  2.3606E+00
ac ID =   33377                -5.7215E-01  1.3498E+01 -7.3713E-02  1.3510E+01
                               -3.6340E-01  1.2814E+01 -4.8019E+01  2.5147E+03

           1    1.01005E+01     3.2298E-01  5.5719E-03 -2.4430E+00  2.4643E+00
ac ID =   33377                -5.8036E-01  1.4214E+01 -7.8741E-03  1.4226E+01
                               -3.6261E-01  1.2926E+01 -4.8043E+01  2.5147E+03

           1    1.02005E+01     3.3517E-01  3.9425E-03 -2.5473E+00  2.5692E+00
ac ID =   33377                -5.1086E-01  1.4691E+01  5.6409E-02  1.4700E+01
                               -3.6178E-01  1.3040E+01 -4.8065E+01  2.5147E+03

           1    1.03005E+01     3.4329E-01  3.8285E-03 -2.6403E+00  2.6625E+00
ac ID =   33377                -5.4210E-01  1.5643E+01 -1.2124E-01  1.5653E+01
                               -3.6093E-01  1.3157E+01 -4.8088E+01  2.5147E+03

           1    1.04005E+01     3.4656E-01  6.6147E-03 -2.7174E+00  2.7394E+00
ac ID =   33377                -7.4606E-01  1.6048E+01 -3.1925E-01  1.6069E+01
                               -3.6002E-01  1.3277E+01 -4.8109E+01  2.5147E+03

           1    1.05004E+01     3.5553E-01  8.4013E-03 -2.7957E+00  2.8182E+00
ac ID =   33377                -1.1188E+00  1.6794E+01 -1.5632E-01  1.6832E+01
                               -3.5905E-01  1.3399E+01 -4.8129E+01  2.5147E+03

           1    1.06004E+01     3.8355E-01  1.0905E-02 -2.8652E+00  2.8908E+00
ac ID =   33377                -8.6449E-01  1.7626E+01  1.4755E-01  1.7648E+01
                               -3.5811E-01  1.3524E+01 -4.8148E+01  2.5147E+03

           1    1.07004E+01     3.7989E-01  4.7533E-03 -2.9386E+00  2.9631E+00
ac ID =   33377                -8.6966E-01  1.7988E+01  3.1409E-01  1.8012E+01
                               -3.5709E-01  1.3651E+01 -4.8166E+01  2.5147E+03

           1    1.08004E+01     3.7634E-01  1.1625E-02 -3.0200E+00  3.0434E+00
ac ID =   33377                -9.6229E-01  1.8475E+01  2.4734E-02  1.8500E+01
                               -3.5608E-01  1.3781E+01 -4.8182E+01  2.5147E+03

           1    1.09004E+01     3.9594E-01  8.5069E-03 -3.1126E+00  3.1377E+00
ac ID =   33377                -7.4589E-01  1.9112E+01 -3.4947E-01  1.9130E+01
                               -3.5505E-01  1.3912E+01 -4.8197E+01  2.5147E+03

           1    1.10004E+01     4.1217E-01 -5.9521E-06 -3.2085E+00  3.2349E+00
ac ID =   33377                -6.3715E-01  2.0022E+01 -4.0918E-01  2.0036E+01
                               -3.5397E-01  1.4046E+01 -4.8210E+01  2.5147E+03

           1    1.11004E+01     3.9895E-01 -5.6347E-04 -3.2589E+00  3.2832E+00
ac ID =   33377                -6.0900E-01  2.0624E+01 -2.1171E-01  2.0634E+01
                               -3.5290E-01  1.4181E+01 -4.8221E+01  2.5147E+03

           1    1.12004E+01     4.2117E-01  6.7636E-03 -3.3255E+00  3.3521E+00
ac ID =   33377                -7.7602E-01  2.1617E+01 -1.8674E-01  2.1632E+01
                               -3.5186E-01  1.4318E+01 -4.8230E+01  2.5147E+03

           1    1.13004E+01     4.3279E-01  1.9242E-03 -3.3934E+00  3.4209E+00
ac ID =   33377                -8.2423E-01  2.2311E+01 -3.6935E-01  2.2329E+01
                               -3.5080E-01  1.4457E+01 -4.8237E+01  2.5147E+03

           1    1.14004E+01     4.1392E-01 -9.3318E-03 -3.4264E+00  3.4513E+00
ac ID =   33377                -7.4995E-01  2.2201E+01 -4.6440E-01  2.2218E+01
                               -3.4975E-01  1.4597E+01 -4.8241E+01  2.5147E+03

           1    1.15003E+01     4.2364E-01  1.1245E-02 -3.4714E+00  3.4972E+00
ac ID =   33377                -1.1622E+00  2.2824E+01 -2.2151E-01  2.2855E+01
                               -3.4875E-01  1.4739E+01 -4.8242E+01  2.5147E+03

           1    1.16003E+01     4.3495E-01  4.1604E-03 -3.5578E+00  3.5843E+00
ac ID =   33377                -9.8804E-01  2.3522E+01  8.3813E-02  2.3543E+01
                               -3.4776E-01  1.4881E+01 -4.8241E+01  2.5147E+03

           1    1.17003E+01     4.3716E-01 -1.9562E-03 -3.6253E+00  3.6516E+00
ac ID =   33377                -6.1971E-01  2.4430E+01  2.1533E-02  2.4437E+01
                               -3.4682E-01  1.5024E+01 -4.8236E+01  2.5147E+03

           1    1.18003E+01     4.3745E-01  8.0348E-04 -3.6793E+00  3.7052E+00
ac ID =   33377                -8.7963E-01  2.4862E+01 -3.4738E-02  2.4877E+01
                               -3.4586E-01  1.5168E+01 -4.8228E+01  2.5147E+03

           1    1.19003E+01     4.6486E-01  6.1348E-03 -3.7446E+00  3.7733E+00
ac ID =   33377                -8.6314E-01  2.5855E+01  8.1679E-02  2.5869E+01
                               -3.4491E-01  1.5313E+01 -4.8216E+01  2.5147E+03

           1    1.20003E+01     4.7740E-01 -4.5109E-03 -3.8123E+00  3.8421E+00
ac ID =   33377                -3.3922E-01  2.6649E+01  3.1372E-01  2.6653E+01
                               -3.4400E-01  1.5457E+01 -4.8201E+01  2.5147E+03

           1    1.21003E+01     4.6273E-01  6.2488E-03 -3.8546E+00  3.8823E+00
ac ID =   33377                -7.8699E-01  2.7209E+01  2.0052E-01  2.7222E+01
                               -3.4303E-01  1.5603E+01 -4.8182E+01  2.5147E+03

           1    1.22003E+01     4.7713E-01 -6.5246E-03 -3.8977E+00  3.9268E+00
ac ID =   33377                -8.3553E-01  2.7860E+01 -7.2793E-02  2.7872E+01
                               -3.4205E-01  1.5749E+01 -4.8159E+01  2.5147E+03

           1    1.23003E+01     5.0997E-01 -1.5457E-03 -3.9493E+00  3.9821E+00
ac ID =   33377                -7.4988E-01  2.8904E+01 -3.7040E-01  2.8916E+01
                               -3.4111E-01  1.5895E+01 -4.8132E+01  2.5147E+03

           1    1.24003E+01     4.9755E-01 -1.2132E-03 -3.9634E+00  3.9945E+00
ac ID =   33377                -7.6797E-01  2.8923E+01 -1.8178E-01  2.8934E+01
                               -3.4012E-01  1.6041E+01 -4.8102E+01  2.5147E+03

           1    1.25002E+01     5.0025E-01  1.1960E-02 -4.0059E+00  4.0370E+00
ac ID =   33377                -1.1573E+00  2.9468E+01  5.1608E-02  2.9491E+01
                               -3.3916E-01  1.6187E+01 -4.8068E+01  2.5147E+03

           1    1.26002E+01     5.1668E-01  4.0242E-03 -4.0594E+00  4.0921E+00
ac ID =   33377                -9.0742E-01  3.0369E+01 -2.0245E-02  3.0382E+01
                               -3.3817E-01  1.6334E+01 -4.8029E+01  2.5147E+03

           1    1.27002E+01     5.3193E-01 -1.8198E-05 -4.0819E+00  4.1164E+00
ac ID =   33377                -6.5706E-01  3.1436E+01 -2.1917E-02  3.1443E+01
                               -3.3714E-01  1.6480E+01 -4.7987E+01  2.5147E+03

           1    1.28002E+01     5.2805E-01  1.0417E-02 -4.0867E+00  4.1207E+00
ac ID =   33377                -6.4773E-01  3.1947E+01  4.7471E-03  3.1953E+01
                               -3.3611E-01  1.6627E+01 -4.7941E+01  2.5147E+03

           1    1.29002E+01     5.3692E-01  9.0159E-03 -4.0990E+00  4.1340E+00
ac ID =   33377                -7.1009E-01  3.2594E+01  9.7855E-02  3.2602E+01
                               -3.3505E-01  1.6773E+01 -4.7891E+01  2.5147E+03

           1    1.30002E+01     5.4819E-01  1.8201E-03 -4.1231E+00  4.1594E+00
ac ID =   33377                -6.6894E-01  3.3308E+01 -1.6500E-01  3.3315E+01
                               -3.3394E-01  1.6920E+01 -4.7837E+01  2.5147E+03

           1    1.31002E+01     5.4341E-01 -9.3607E-03 -4.1031E+00  4.1390E+00
ac ID =   33377                -5.7829E-01  3.3494E+01 -5.2697E-01  3.3503E+01
                               -3.3281E-01  1.7066E+01 -4.7778E+01  2.5147E+03

           1    1.32002E+01     5.4918E-01  1.0802E-02 -4.0943E+00  4.1310E+00
ac ID =   33377                -9.4732E-01  3.3834E+01 -5.8448E-01  3.3852E+01
                               -3.3172E-01  1.7212E+01 -4.7716E+01  2.5147E+03

           1    1.33002E+01     5.5801E-01  3.1628E-03 -4.1081E+00  4.1459E+00
ac ID =   33377                -1.2418E+00  3.4503E+01 -3.1791E-01  3.4527E+01
                               -3.3055E-01  1.7358E+01 -4.7650E+01  2.5147E+03

           1    1.34002E+01     5.6014E-01  3.3591E-03 -4.0904E+00  4.1285E+00
ac ID =   33377                -8.3448E-01  3.5030E+01 -4.2245E-01  3.5042E+01
                               -3.2943E-01  1.7504E+01 -4.7579E+01  2.5147E+03

           1    1.35001E+01     5.5811E-01  8.9743E-03 -4.0866E+00  4.1246E+00
ac ID =   33377                -9.1670E-01  3.5334E+01 -2.0609E-01  3.5346E+01
                               -3.2831E-01  1.7649E+01 -4.7504E+01  2.5147E+03

           1    1.36001E+01     5.5678E-01  1.2434E-02 -4.0632E+00  4.1012E+00
ac ID =   33377                -1.1572E+00  3.5520E+01 -8.2375E-02  3.5539E+01
                               -3.2712E-01  1.7794E+01 -4.7426E+01  2.5147E+03

           1    1.37001E+01     5.7919E-01  4.0423E-03 -4.0361E+00  4.0774E+00
ac ID =   33377                -4.6233E-01  3.6146E+01 -3.8394E-01  3.6151E+01
                               -3.2602E-01  1.7938E+01 -4.7343E+01  2.5147E+03

           1    1.38001E+01     5.5305E-01  4.0019E-03 -3.9793E+00  4.0176E+00
ac ID =   33377                -5.8363E-01  3.5962E+01 -4.7368E-01  3.5970E+01
                               -3.2480E-01  1.8082E+01 -4.7257E+01  2.5147E+03

           1    1.39001E+01     5.7187E-01  1.2730E-02 -3.9594E+00  4.0005E+00
ac ID =   33377                -1.2656E+00  3.5823E+01  3.5288E-03  3.5845E+01
                               -3.2347E-01  1.8226E+01 -4.7166E+01  2.5147E+03

           1    1.40001E+01     5.7641E-01  1.8522E-02 -3.9336E+00  3.9756E+00
ac ID =   33377                -1.1458E+00  3.6078E+01  7.5841E-02  3.6096E+01
                               -3.2218E-01  1.8369E+01 -4.7071E+01  2.5147E+03

           1    1.41001E+01     5.5027E-01 -8.7503E-03 -3.8522E+00  3.8913E+00
ac ID =   33377                -7.5613E-01  3.5864E+01 -1.8225E-01  3.5873E+01
                               -3.2071E-01  1.8512E+01 -4.6973E+01  2.5147E+03

           1    1.42001E+01     5.7893E-01  2.3667E-02 -3.8041E+00  3.8480E+00
ac ID =   33377                -1.7094E+00  3.6284E+01 -3.4175E-01  3.6326E+01
                               -3.1922E-01  1.8654E+01 -4.6870E+01  2.5147E+03

           1    1.43001E+01     5.7013E-01  2.8812E-02 -3.7594E+00  3.8025E+00
ac ID =   33377                -1.5613E+00  3.6303E+01 -5.5247E-01  3.6341E+01
                               -3.1773E-01  1.8796E+01 -4.6764E+01  2.5147E+03

           1    1.44001E+01     5.5299E-01 -4.1185E-03 -3.7151E+00  3.7560E+00
ac ID =   33377                -7.5933E-01  3.6446E+01 -4.2961E-01  3.6456E+01
                               -3.1614E-01  1.8937E+01 -4.6655E+01  2.5147E+03

           1    1.45000E+01     5.6625E-01  2.4292E-02 -3.6366E+00  3.6805E+00
ac ID =   33377                -1.4239E+00  3.6744E+01 -5.1473E-01  3.6775E+01
                               -3.1451E-01  1.9078E+01 -4.6541E+01  2.5147E+03

           1    1.46000E+01     5.5890E-01  2.5738E-02 -3.5639E+00  3.6076E+00
ac ID =   33377                -1.3923E+00  3.6519E+01 -7.1684E-01  3.6553E+01
                               -3.1290E-01  1.9219E+01 -4.6425E+01  2.5147E+03

           1    1.47000E+01     5.5910E-01  2.9808E-03 -3.5336E+00  3.5776E+00
ac ID =   33377                -8.2266E-01  3.6834E+01 -7.9857E-01  3.6852E+01
                               -3.1120E-01  1.9359E+01 -4.6305E+01  2.5147E+03

           1    1.48005E+01     5.6103E-01  2.7312E-03 -3.4857E+00  3.5305E+00
ac ID =   33377                -1.4365E+00  3.6956E+01 -1.0287E+00  3.6999E+01
                               -3.0943E-01  1.9500E+01 -4.6181E+01  2.5147E+03

           1    1.49005E+01     5.6092E-01  4.6849E-02 -3.3941E+00  3.4404E+00
ac ID =   33377                -1.8958E+00  3.7232E+01 -1.0038E+00  3.7294E+01
                               -3.0777E-01  1.9640E+01 -4.6056E+01  2.5147E+03

           1    1.50005E+01     5.5788E-01  1.2509E-02 -3.2850E+00  3.3321E+00
ac ID =   33377                -1.6719E+00  3.6946E+01  5.2575E-02  3.6984E+01
                               -3.0598E-01  1.9780E+01 -4.5927E+01  2.5147E+03

           1    1.51005E+01     5.6511E-01  4.6414E-03 -3.2267E+00  3.2758E+00
ac ID =   33377                -1.7968E+00  3.7046E+01  2.4821E-01  3.7091E+01
                               -3.0420E-01  1.9920E+01 -4.5795E+01  2.5147E+03

           1    1.52005E+01     5.4821E-01  1.4790E-02 -3.1497E+00  3.1971E+00
ac ID =   33377                -1.7551E+00  3.6693E+01 -5.0530E-01  3.6738E+01
                               -3.0248E-01  2.0060E+01 -4.5661E+01  2.5147E+03

           1    1.53005E+01     5.6012E-01  2.3580E-02 -3.0718E+00  3.1225E+00
ac ID =   33377                -2.0590E+00  3.6353E+01 -5.7735E-01  3.6416E+01
                               -3.0075E-01  2.0200E+01 -4.5525E+01  2.5147E+03

           1    1.54005E+01     4.7275E-01  1.3409E-03 -2.8571E+00  2.8960E+00
ac ID =   33377                -1.5403E+00  3.4861E+01 -7.1086E-01  3.4902E+01
                               -2.9901E-01  2.0340E+01 -4.5387E+01  2.5147E+03

           1    1.55004E+01     5.9111E-01  1.4778E-02 -2.8993E+00  2.9589E+00
ac ID =   33377                -1.7451E+00  3.6199E+01 -2.8245E-01  3.6242E+01
                               -2.9726E-01  2.0478E+01 -4.5245E+01  2.5147E+03

           1    1.56004E+01     5.0178E-01  1.7012E-02 -2.7983E+00  2.8430E+00
ac ID =   33377                -1.7970E+00  3.4604E+01  5.0748E-01  3.4654E+01
                               -2.9560E-01  2.0617E+01 -4.5101E+01  2.5147E+03

           1    1.57004E+01     5.0044E-01  3.2469E-02 -2.6331E+00  2.6804E+00
ac ID =   33377                -2.2770E+00  3.3334E+01  4.4693E-01  3.3415E+01
                               -2.9388E-01  2.0755E+01 -4.4955E+01  2.5147E+03

           1    1.58004E+01     5.5034E-01  1.7712E-04 -2.5388E+00  2.5978E+00
ac ID =   33377                -1.8092E+00  3.5446E+01 -5.6667E-01  3.5497E+01
                               -2.9218E-01  2.0894E+01 -4.4808E+01  2.5147E+03

           1    1.59004E+01     4.6578E-01  1.7463E-02 -2.3915E+00  2.4365E+00
ac ID =   33377                -2.0773E+00  3.2261E+01 -3.9043E-01  3.2330E+01
                               -2.9058E-01  2.1031E+01 -4.4658E+01  2.5147E+03

           1    1.60004E+01     4.9695E-01  3.7840E-02 -2.4215E+00  2.4723E+00
ac ID =   33377                -2.8582E+00  3.3257E+01  1.6044E-01  3.3380E+01
                               -2.8899E-01  2.1169E+01 -4.4506E+01  2.5147E+03

           1    1.61004E+01     4.5524E-01  1.4493E-02 -2.3158E+00  2.3602E+00
ac ID =   33377                -1.9032E+00  3.1677E+01 -7.7998E-01  3.1744E+01
                               -2.8746E-01  2.1307E+01 -4.4354E+01  2.5147E+03

           1    1.62004E+01     5.1878E-01  2.5895E-02 -2.1102E+00  2.1732E+00
ac ID =   33377                -2.1744E+00  3.1506E+01 -1.3068E+00  3.1608E+01
                               -2.8597E-01  2.1445E+01 -4.4200E+01  2.5147E+03

           1    1.63004E+01     4.2363E-01 -8.7091E-03 -2.0817E+00  2.1244E+00
ac ID =   33377                -2.1536E+00  3.0758E+01 -1.0735E+00  3.0852E+01
                               -2.8444E-01  2.1583E+01 -4.4045E+01  2.5147E+03

