 LSTC 50th% Full_FE H-III Dummy (Beta Version, February 17, 2019)        
                    ls-dyna smp s R16 R16.0_619_d222963 date 03/18/2025

{BEGIN LEGEND}
 Entity #        Title
    22626                                                                                     
{END LEGEND}




 n o d a l   p r i n t   o u t   f o r   t i m e  s t e p       1                              ( at time 0.0000000E+00 )

 nodal point  x-disp     y-disp      z-disp      x-vel       y-vel       z-vel      x-accl      y-accl      z-accl      x-coor      y-coor      z-coor
    22626  0.00000E+00 0.00000E+00 0.00000E+00 0.00000E+00 0.00000E+00-3.12000E+00 0.00000E+00 0.00000E+00 0.00000E+00 4.79642E+01-2.20298E+01 7.33850E+00



 n o d a l   p r i n t   o u t   f o r   t i m e  s t e p       1                              ( at time 0.0000000E+00 )

 nodal point  x-rot      y-rot       z-rot       x-rot vel   y-rot vel   z-rot vel   x-rot acc   y-rot acc   z-rot acc
    22626  0.00000E+00 0.00000E+00 0.00000E+00 0.00000E+00 0.00000E+00 0.00000E+00 0.00000E+00 0.00000E+00 0.00000E+00



 n o d a l   p r i n t   o u t   f o r   t i m e  s t e p     201                              ( at time 9.9989993E-02 )

 nodal point  x-disp     y-disp      z-disp      x-vel       y-vel       z-vel      x-accl      y-accl      z-accl      x-coor      y-coor      z-coor
    22626  8.34517E-07-4.04298E-06-3.12016E-01 4.76982E-05-4.96288E-04-3.12074E+00 4.77030E-04-4.96338E-03-7.42748E-03 4.79642E+01-2.20298E+01 7.02648E+00



 n o d a l   p r i n t   o u t   f o r   t i m e  s t e p     201                              ( at time 9.9989993E-02 )

 nodal point  x-rot      y-rot       z-rot       x-rot vel   y-rot vel   z-rot vel   x-rot acc   y-rot acc   z-rot acc
    22626  9.62199E-09 3.04100E-08 5.27270E-08 1.30810E-06 2.72264E-06 5.21395E-06 1.30823E-05 2.72291E-05 5.21447E-05



 n o d a l   p r i n t   o u t   f o r   t i m e  s t e p     401                              ( at time 1.9997999E-01 )

 nodal point  x-disp     y-disp      z-disp      x-vel       y-vel       z-vel      x-accl      y-accl      z-accl      x-coor      y-coor      z-coor
    22626 -5.12680E-05-5.21493E-04-6.23853E-01-1.09637E-03-1.11125E-02-3.11558E+00-1.14418E-02-1.06172E-01 5.16156E-02 4.79641E+01-2.20303E+01 6.71465E+00



 n o d a l   p r i n t   o u t   f o r   t i m e  s t e p     401                              ( at time 1.9997999E-01 )

 nodal point  x-rot      y-rot       z-rot       x-rot vel   y-rot vel   z-rot vel   x-rot acc   y-rot acc   z-rot acc
    22626  4.60222E-07 1.33039E-06 2.50328E-06 2.64624E-06 1.90766E-05 3.49932E-05 1.33827E-05 1.63556E-04 2.97822E-04



 n o d a l   p r i n t   o u t   f o r   t i m e  s t e p     601                              ( at time 2.9996998E-01 )

 nodal point  x-disp     y-disp      z-disp      x-vel       y-vel       z-vel      x-accl      y-accl      z-accl      x-coor      y-coor      z-coor
    22626 -2.44542E-05-1.97523E-03-9.35239E-01 1.66305E-03-1.60222E-02-3.11416E+00 2.75969E-02-4.91022E-02 1.42040E-02 4.79642E+01-2.20318E+01 6.40326E+00



 n o d a l   p r i n t   o u t   f o r   t i m e  s t e p     601                              ( at time 2.9996998E-01 )

 nodal point  x-rot      y-rot       z-rot       x-rot vel   y-rot vel   z-rot vel   x-rot acc   y-rot acc   z-rot acc
    22626  6.74362E-07 2.41305E-06 4.83260E-06 8.23770E-06 5.32787E-06 1.47265E-05 5.59202E-05-1.37501E-04-2.02687E-04



 n o d a l   p r i n t   o u t   f o r   t i m e  s t e p     801                              ( at time 3.9995997E-01 )

 nodal point  x-disp     y-disp      z-disp      x-vel       y-vel       z-vel      x-accl      y-accl      z-accl      x-coor      y-coor      z-coor
    22626  6.00080E-05-3.56754E-03-1.24663E+00 1.95712E-04-1.72968E-02-3.11359E+00-1.46748E-02-1.27470E-02 5.76077E-03 4.79642E+01-2.20334E+01 6.09187E+00



 n o d a l   p r i n t   o u t   f o r   t i m e  s t e p     801                              ( at time 3.9995997E-01 )

 nodal point  x-rot      y-rot       z-rot       x-rot vel   y-rot vel   z-rot vel   x-rot acc   y-rot acc   z-rot acc
    22626  1.57589E-06 3.64619E-06 6.61732E-06 6.19673E-06 2.34340E-05 3.65752E-05-2.04117E-05 1.81079E-04 2.18509E-04



 n o d a l   p r i n t   o u t   f o r   t i m e  s t e p    1001                              ( at time 4.9994997E-01 )

 nodal point  x-disp     y-disp      z-disp      x-vel       y-vel       z-vel      x-accl      y-accl      z-accl      x-coor      y-coor      z-coor
    22626  6.96704E-05-5.60832E-03-1.55784E+00 7.96853E-04-2.35902E-02-3.11098E+00 6.01201E-03-6.29406E-02 2.60594E-02 4.79642E+01-2.20354E+01 5.78067E+00



 n o d a l   p r i n t   o u t   f o r   t i m e  s t e p    1001                              ( at time 4.9994997E-01 )

 nodal point  x-rot      y-rot       z-rot       x-rot vel   y-rot vel   z-rot vel   x-rot acc   y-rot acc   z-rot acc
    22626  1.48651E-06 6.47455E-06 1.14576E-05-4.80252E-06 4.16817E-05 6.71205E-05-1.10003E-04 1.82495E-04 3.05483E-04



 n o d a l   p r i n t   o u t   f o r   t i m e  s t e p    1201                              ( at time 5.9993996E-01 )

 nodal point  x-disp     y-disp      z-disp      x-vel       y-vel       z-vel      x-accl      y-accl      z-accl      x-coor      y-coor      z-coor
    22626  4.39363E-05-8.07961E-03-1.86891E+00-5.51375E-04-2.57096E-02-3.11104E+00-1.34836E-02-2.11964E-02-6.19950E-04 4.79642E+01-2.20379E+01 5.46959E+00



 n o d a l   p r i n t   o u t   f o r   t i m e  s t e p    1201                              ( at time 5.9993996E-01 )

 nodal point  x-rot      y-rot       z-rot       x-rot vel   y-rot vel   z-rot vel   x-rot acc   y-rot acc   z-rot acc
    22626  1.23235E-06 9.43284E-06 1.67684E-05-2.58349E-06 2.27797E-05 4.56969E-05 2.21925E-05-1.89039E-04-2.14257E-04



 n o d a l   p r i n t   o u t   f o r   t i m e  s t e p    1401                              ( at time 6.9992995E-01 )

 nodal point  x-disp     y-disp      z-disp      x-vel       y-vel       z-vel      x-accl      y-accl      z-accl      x-coor      y-coor      z-coor
    22626  1.15411E-05-1.09198E-02-2.17982E+00 6.88858E-04-3.17509E-02-3.10798E+00 1.24036E-02-6.04190E-02 3.06303E-02 4.79642E+01-2.20407E+01 5.15869E+00



 n o d a l   p r i n t   o u t   f o r   t i m e  s t e p    1401                              ( at time 6.9992995E-01 )

 nodal point  x-rot      y-rot       z-rot       x-rot vel   y-rot vel   z-rot vel   x-rot acc   y-rot acc   z-rot acc
    22626  1.03041E-06 1.21378E-05 2.08143E-05-2.67413E-06 3.14677E-05 4.74946E-05-9.06543E-07 8.68883E-05 1.79787E-05



 n o d a l   p r i n t   o u t   f o r   t i m e  s t e p    1601                              ( at time 7.9991994E-01 )

 nodal point  x-disp     y-disp      z-disp      x-vel       y-vel       z-vel      x-accl      y-accl      z-accl      x-coor      y-coor      z-coor
    22626  1.17562E-04-1.44005E-02-2.49047E+00 1.25414E-03-3.59031E-02-3.10650E+00 5.65334E-03-4.15263E-02 1.47882E-02 4.79643E+01-2.20442E+01 4.84803E+00



 n o d a l   p r i n t   o u t   f o r   t i m e  s t e p    1601                              ( at time 7.9991994E-01 )

 nodal point  x-rot      y-rot       z-rot       x-rot vel   y-rot vel   z-rot vel   x-rot acc   y-rot acc   z-rot acc
    22626  9.34586E-07 1.55415E-05 2.62974E-05 3.00416E-06 4.00387E-05 5.83561E-05 5.67886E-05 8.57182E-05 1.08626E-04



 n o d a l   p r i n t   o u t   f o r   t i m e  s t e p    1801                              ( at time 8.9990994E-01 )

 nodal point  x-disp     y-disp      z-disp      x-vel       y-vel       z-vel      x-accl      y-accl      z-accl      x-coor      y-coor      z-coor
    22626  1.78397E-04-1.79386E-02-2.80118E+00-6.43883E-04-3.52679E-02-3.10802E+00-1.89821E-02 6.35323E-03-1.51888E-02 4.79644E+01-2.20477E+01 4.53732E+00



 n o d a l   p r i n t   o u t   f o r   t i m e  s t e p    1801                              ( at time 8.9990994E-01 )

 nodal point  x-rot      y-rot       z-rot       x-rot vel   y-rot vel   z-rot vel   x-rot acc   y-rot acc   z-rot acc
    22626  9.19410E-07 1.86157E-05 3.11938E-05-2.47680E-06 2.61605E-05 4.44860E-05-5.48151E-05-1.38795E-04-1.38716E-04



 n o d a l   p r i n t   o u t   f o r   t i m e  s t e p    2001                              ( at time 9.9989993E-01 )

 nodal point  x-disp     y-disp      z-disp      x-vel       y-vel       z-vel      x-accl      y-accl      z-accl      x-coor      y-coor      z-coor
    22626  7.09075E-05-2.15216E-02-3.11197E+00-9.13285E-04-3.69096E-02-3.10846E+00-2.69429E-03-1.64188E-02-4.41595E-03 4.79643E+01-2.20513E+01 4.22653E+00



 n o d a l   p r i n t   o u t   f o r   t i m e  s t e p    2001                              ( at time 9.9989993E-01 )

 nodal point  x-rot      y-rot       z-rot       x-rot vel   y-rot vel   z-rot vel   x-rot acc   y-rot acc   z-rot acc
    22626  7.06992E-07 2.14190E-05 3.56592E-05-1.08644E-06 2.92869E-05 5.45784E-05 1.39050E-05 3.12665E-05 1.00934E-04



 n o d a l   p r i n t   o u t   f o r   t i m e  s t e p    2201                              ( at time 1.0998899E+00 )

 nodal point  x-disp     y-disp      z-disp      x-vel       y-vel       z-vel      x-accl      y-accl      z-accl      x-coor      y-coor      z-coor
    22626  4.35853E-05-2.53028E-02-3.42277E+00-2.81500E-04-3.84526E-02-3.10807E+00 6.31848E-03-1.54315E-02 3.94861E-03 4.79642E+01-2.20551E+01 3.91573E+00



 n o d a l   p r i n t   o u t   f o r   t i m e  s t e p    2201                              ( at time 1.0998899E+00 )

 nodal point  x-rot      y-rot       z-rot       x-rot vel   y-rot vel   z-rot vel   x-rot acc   y-rot acc   z-rot acc
    22626  7.56334E-07 2.43558E-05 4.07416E-05 4.92535E-06 2.56981E-05 3.48069E-05 6.01239E-05-3.58915E-05-1.97735E-04



 n o d a l   p r i n t   o u t   f o r   t i m e  s t e p    2401                              ( at time 1.1998799E+00 )

 nodal point  x-disp     y-disp      z-disp      x-vel       y-vel       z-vel      x-accl      y-accl      z-accl      x-coor      y-coor      z-coor
    22626  7.93480E-05-2.91273E-02-3.73361E+00 5.94588E-04-3.77091E-02-3.10969E+00 8.76176E-03 7.43564E-03-1.62403E-02 4.79643E+01-2.20589E+01 3.60489E+00



 n o d a l   p r i n t   o u t   f o r   t i m e  s t e p    2401                              ( at time 1.1998799E+00 )

 nodal point  x-rot      y-rot       z-rot       x-rot vel   y-rot vel   z-rot vel   x-rot acc   y-rot acc   z-rot acc
    22626  1.11206E-06 2.62460E-05 4.33319E-05 4.49689E-06 1.52452E-05 1.97079E-05-4.28497E-06-1.04539E-04-1.51005E-04



 n o d a l   p r i n t   o u t   f o r   t i m e  s t e p    2601                              ( at time 1.2998699E+00 )

 nodal point  x-disp     y-disp      z-disp      x-vel       y-vel       z-vel      x-accl      y-accl      z-accl      x-coor      y-coor      z-coor
    22626  7.24204E-05-3.27319E-02-4.04468E+00-6.22807E-04-3.40104E-02-3.11282E+00-1.21752E-02 3.69908E-02-3.12646E-02 4.79643E+01-2.20625E+01 3.29382E+00



 n o d a l   p r i n t   o u t   f o r   t i m e  s t e p    2601                              ( at time 1.2998699E+00 )

 nodal point  x-rot      y-rot       z-rot       x-rot vel   y-rot vel   z-rot vel   x-rot acc   y-rot acc   z-rot acc
    22626  1.31067E-06 2.76183E-05 4.51515E-05-3.49565E-06 1.63635E-05 2.60271E-05-7.99334E-05 1.11843E-05 6.31986E-05



 n o d a l   p r i n t   o u t   f o r   t i m e  s t e p    2801                              ( at time 1.3998599E+00 )

 nodal point  x-disp     y-disp      z-disp      x-vel       y-vel       z-vel      x-accl      y-accl      z-accl      x-coor      y-coor      z-coor
    22626 -5.17380E-05-3.58563E-02-4.35614E+00-1.27518E-03-2.87417E-02-3.11667E+00-6.52440E-03 5.26922E-02-3.85728E-02 4.79641E+01-2.20656E+01 2.98236E+00



 n o d a l   p r i n t   o u t   f o r   t i m e  s t e p    2801                              ( at time 1.3998599E+00 )

 nodal point  x-rot      y-rot       z-rot       x-rot vel   y-rot vel   z-rot vel   x-rot acc   y-rot acc   z-rot acc
    22626  8.35755E-07 2.89498E-05 4.72495E-05-4.95459E-06 1.21295E-05 1.40939E-05-1.45908E-05-4.23446E-05-1.19344E-04



 n o d a l   p r i n t   o u t   f o r   t i m e  s t e p    3001                              ( at time 1.4998499E+00 )

 nodal point  x-disp     y-disp      z-disp      x-vel       y-vel       z-vel      x-accl      y-accl      z-accl      x-coor      y-coor      z-coor
    22626 -1.51199E-04-3.86337E-02-4.66789E+00-4.29761E-04-2.70596E-02-3.11868E+00 8.45506E-03 1.68228E-02-2.00506E-02 4.79640E+01-2.20684E+01 2.67061E+00



 n o d a l   p r i n t   o u t   f o r   t i m e  s t e p    3001                              ( at time 1.4998499E+00 )

 nodal point  x-rot      y-rot       z-rot       x-rot vel   y-rot vel   z-rot vel   x-rot acc   y-rot acc   z-rot acc
    22626  4.09881E-07 2.93901E-05 4.76365E-05-2.01247E-06-3.04754E-06-5.91256E-06 2.94241E-05-1.51785E-04-2.00084E-04



 n o d a l   p r i n t   o u t   f o r   t i m e  s t e p    3201                              ( at time 1.5998399E+00 )

 nodal point  x-disp     y-disp      z-disp      x-vel       y-vel       z-vel      x-accl      y-accl      z-accl      x-coor      y-coor      z-coor
    22626 -2.02030E-04-4.12518E-02-4.97982E+00-8.32507E-04-2.47719E-02-3.12108E+00-4.02786E-03 2.28796E-02-2.40326E-02 4.79640E+01-2.20710E+01 2.35869E+00



 n o d a l   p r i n t   o u t   f o r   t i m e  s t e p    3201                              ( at time 1.5998399E+00 )

 nodal point  x-rot      y-rot       z-rot       x-rot vel   y-rot vel   z-rot vel   x-rot acc   y-rot acc   z-rot acc
    22626  6.88935E-08 2.88624E-05 4.62205E-05-2.17632E-06-3.94473E-06-1.44126E-05-1.63868E-06-8.97279E-06-8.50092E-05



 n o d a l   p r i n t   o u t   f o r   t i m e  s t e p    3401                              ( at time 1.6998299E+00 )

 nodal point  x-disp     y-disp      z-disp      x-vel       y-vel       z-vel      x-accl      y-accl      z-accl      x-coor      y-coor      z-coor
    22626 -2.87108E-04-4.34943E-02-5.29208E+00-9.81473E-04-1.98118E-02-3.12488E+00-1.48982E-03 4.96057E-02-3.79529E-02 4.79639E+01-2.20733E+01 2.04642E+00



 n o d a l   p r i n t   o u t   f o r   t i m e  s t e p    3401                              ( at time 1.6998299E+00 )

 nodal point  x-rot      y-rot       z-rot       x-rot vel   y-rot vel   z-rot vel   x-rot acc   y-rot acc   z-rot acc
    22626 -1.75715E-07 2.82896E-05 4.49653E-05-4.55435E-06-6.45758E-06-1.37097E-05-2.37827E-05-2.51311E-05 7.03008E-06



 n o d a l   p r i n t   o u t   f o r   t i m e  s t e p    3601                              ( at time 1.7998199E+00 )

 nodal point  x-disp     y-disp      z-disp      x-vel       y-vel       z-vel      x-accl      y-accl      z-accl      x-coor      y-coor      z-coor
    22626 -3.73954E-04-4.52255E-02-5.60474E+00-1.25899E-03-1.52526E-02-3.12877E+00-2.77542E-03 4.55966E-02-3.89615E-02 4.79638E+01-2.20750E+01 1.73377E+00



 n o d a l   p r i n t   o u t   f o r   t i m e  s t e p    3601                              ( at time 1.7998199E+00 )

 nodal point  x-rot      y-rot       z-rot       x-rot vel   y-rot vel   z-rot vel   x-rot acc   y-rot acc   z-rot acc
    22626 -3.67188E-07 2.75075E-05 4.36010E-05 2.34540E-07-1.34503E-05-1.76986E-05 4.78938E-05-6.99345E-05-3.98929E-05



 n o d a l   p r i n t   o u t   f o r   t i m e  s t e p    3801                              ( at time 1.8998099E+00 )

 nodal point  x-disp     y-disp      z-disp      x-vel       y-vel       z-vel      x-accl      y-accl      z-accl      x-coor      y-coor      z-coor
    22626 -5.53033E-04-4.66385E-02-5.91769E+00-2.06170E-03-1.31192E-02-3.13104E+00-8.02793E-03 2.13361E-02-2.26616E-02 4.79636E+01-2.20764E+01 1.42081E+00



 n o d a l   p r i n t   o u t   f o r   t i m e  s t e p    3801                              ( at time 1.8998099E+00 )

 nodal point  x-rot      y-rot       z-rot       x-rot vel   y-rot vel   z-rot vel   x-rot acc   y-rot acc   z-rot acc
    22626 -5.48299E-07 2.58023E-05 4.11308E-05 2.51908E-06-1.99024E-05-3.04893E-05 2.28477E-05-6.45273E-05-1.27920E-04



 n o d a l   p r i n t   o u t   f o r   t i m e  s t e p    4001                              ( at time 1.9997999E+00 )

 nodal point  x-disp     y-disp      z-disp      x-vel       y-vel       z-vel      x-accl      y-accl      z-accl      x-coor      y-coor      z-coor
    22626 -7.17022E-04-4.78443E-02-6.23088E+00-1.50978E-03-1.10796E-02-3.13316E+00 5.51979E-03 2.03978E-02-2.12714E-02 4.79635E+01-2.20776E+01 1.10762E+00



 n o d a l   p r i n t   o u t   f o r   t i m e  s t e p    4001                              ( at time 1.9997999E+00 )

 nodal point  x-rot      y-rot       z-rot       x-rot vel   y-rot vel   z-rot vel   x-rot acc   y-rot acc   z-rot acc
    22626 -3.64686E-07 2.36811E-05 3.78386E-05 2.23484E-06-2.10778E-05-3.42598E-05-2.84266E-06-1.17550E-05-3.77092E-05



 n o d a l   p r i n t   o u t   f o r   t i m e  s t e p    4201                              ( at time 2.0997899E+00 )

 nodal point  x-disp     y-disp      z-disp      x-vel       y-vel       z-vel      x-accl      y-accl      z-accl      x-coor      y-coor      z-coor
    22626 -8.77469E-04-4.87818E-02-6.54431E+00-1.79873E-03-7.85848E-03-3.13593E+00-2.88984E-03 3.22145E-02-2.76879E-02 4.79633E+01-2.20786E+01 7.94194E-01



 n o d a l   p r i n t   o u t   f o r   t i m e  s t e p    4201                              ( at time 2.0997899E+00 )

 nodal point  x-rot      y-rot       z-rot       x-rot vel   y-rot vel   z-rot vel   x-rot acc   y-rot acc   z-rot acc
    22626 -1.94441E-07 2.10929E-05 3.37285E-05-2.25816E-06-2.76417E-05-4.63568E-05-4.49345E-05-6.56451E-05-1.20982E-04



 n o d a l   p r i n t   o u t   f o r   t i m e  s t e p    4401                              ( at time 2.1997798E+00 )

 nodal point  x-disp     y-disp      z-disp      x-vel       y-vel       z-vel      x-accl      y-accl      z-accl      x-coor      y-coor      z-coor
    22626 -1.11586E-03-4.93587E-02-6.85803E+00-2.71279E-03-3.47499E-03-3.13936E+00-9.14155E-03 4.38394E-02-3.42809E-02 4.79631E+01-2.20791E+01 4.80472E-01



 n o d a l   p r i n t   o u t   f o r   t i m e  s t e p    4401                              ( at time 2.1997798E+00 )

 nodal point  x-rot      y-rot       z-rot       x-rot vel   y-rot vel   z-rot vel   x-rot acc   y-rot acc   z-rot acc
    22626 -4.62881E-07 1.81210E-05 2.90914E-05-2.71716E-06-3.07173E-05-4.65292E-05-4.59040E-06-3.07594E-05-1.72407E-06



 n o d a l   p r i n t   o u t   f o r   t i m e  s t e p    4601                              ( at time 2.2997698E+00 )

 nodal point  x-disp     y-disp      z-disp      x-vel       y-vel       z-vel      x-accl      y-accl      z-accl      x-coor      y-coor      z-coor
    22626 -1.41592E-03-4.94868E-02-7.17211E+00-3.38879E-03 2.88004E-04-3.14243E+00-6.76062E-03 3.76336E-02-3.07328E-02 4.79628E+01-2.20793E+01 1.66390E-01



 n o d a l   p r i n t   o u t   f o r   t i m e  s t e p    4601                              ( at time 2.2997698E+00 )

 nodal point  x-rot      y-rot       z-rot       x-rot vel   y-rot vel   z-rot vel   x-rot acc   y-rot acc   z-rot acc
    22626 -1.09365E-06 1.51061E-05 2.45660E-05-7.04793E-06-3.45711E-05-5.13040E-05-4.33120E-05-3.85424E-05-4.77526E-05



 n o d a l   p r i n t   o u t   f o r   t i m e  s t e p    4801                              ( at time 2.3997598E+00 )

 nodal point  x-disp     y-disp      z-disp      x-vel       y-vel       z-vel      x-accl      y-accl      z-accl      x-coor      y-coor      z-coor
    22626 -1.76853E-03-4.94002E-02-7.48640E+00-3.47400E-03 1.48142E-03-3.14408E+00-8.52188E-04 1.19353E-02-1.65122E-02 4.79624E+01-2.20792E+01-1.47899E-01



 n o d a l   p r i n t   o u t   f o r   t i m e  s t e p    4801                              ( at time 2.3997598E+00 )

 nodal point  x-rot      y-rot       z-rot       x-rot vel   y-rot vel   z-rot vel   x-rot acc   y-rot acc   z-rot acc
    22626 -1.89673E-06 1.16552E-05 1.87875E-05-8.57692E-06-3.46089E-05-6.04325E-05-1.52915E-05-3.77442E-07-9.12946E-05



 n o d a l   p r i n t   o u t   f o r   t i m e  s t e p    5001                              ( at time 2.4997498E+00 )

 nodal point  x-disp     y-disp      z-disp      x-vel       y-vel       z-vel      x-accl      y-accl      z-accl      x-coor      y-coor      z-coor
    22626 -2.14921E-03-4.91481E-02-7.80088E+00-4.18136E-03 4.26584E-03-3.14660E+00-7.07434E-03 2.78470E-02-2.51103E-02 4.79620E+01-2.20789E+01-4.62379E-01



 n o d a l   p r i n t   o u t   f o r   t i m e  s t e p    5001                              ( at time 2.4997498E+00 )

 nodal point  x-rot      y-rot       z-rot       x-rot vel   y-rot vel   z-rot vel   x-rot acc   y-rot acc   z-rot acc
    22626 -2.61548E-06 7.74976E-06 1.23374E-05-7.75183E-06-4.20024E-05-7.13717E-05 8.25175E-06-7.39420E-05-1.09403E-04



 n o d a l   p r i n t   o u t   f o r   t i m e  s t e p    5201                              ( at time 2.5997398E+00 )

 nodal point  x-disp     y-disp      z-disp      x-vel       y-vel       z-vel      x-accl      y-accl      z-accl      x-coor      y-coor      z-coor
    22626 -2.60769E-03-4.85215E-02-8.11569E+00-5.06863E-03 8.18443E-03-3.14995E+00-8.87358E-03 3.91898E-02-3.35966E-02 4.79616E+01-2.20783E+01-7.77185E-01



 n o d a l   p r i n t   o u t   f o r   t i m e  s t e p    5201                              ( at time 2.5997398E+00 )

 nodal point  x-rot      y-rot       z-rot       x-rot vel   y-rot vel   z-rot vel   x-rot acc   y-rot acc   z-rot acc
    22626 -3.37771E-06 3.30495E-06 5.07660E-06-8.69143E-06-4.53516E-05-7.46215E-05-9.39698E-06-3.34961E-05-3.25007E-05



 n o d a l   p r i n t   o u t   f o r   t i m e  s t e p    5401                              ( at time 2.6997298E+00 )

 nodal point  x-disp     y-disp      z-disp      x-vel       y-vel       z-vel      x-accl      y-accl      z-accl      x-coor      y-coor      z-coor
    22626 -3.15482E-03-4.75281E-02-8.43081E+00-6.18977E-03 1.11861E-02-3.15306E+00-1.12125E-02 3.00193E-02-3.11048E-02 4.79610E+01-2.20773E+01-1.09231E+00



 n o d a l   p r i n t   o u t   f o r   t i m e  s t e p    5401                              ( at time 2.6997298E+00 )

 nodal point  x-rot      y-rot       z-rot       x-rot vel   y-rot vel   z-rot vel   x-rot acc   y-rot acc   z-rot acc
    22626 -4.11300E-06-1.12133E-06-2.11825E-06-6.83201E-06-4.50677E-05-6.87271E-05 1.85960E-05 2.83954E-06 5.89500E-05



 n o d a l   p r i n t   o u t   f o r   t i m e  s t e p    5601                              ( at time 2.7997198E+00 )

 nodal point  x-disp     y-disp      z-disp      x-vel       y-vel       z-vel      x-accl      y-accl      z-accl      x-coor      y-coor      z-coor
    22626 -3.83558E-03-4.63075E-02-8.74619E+00-7.24251E-03 1.28824E-02-3.15500E+00-1.05284E-02 1.69646E-02-1.94068E-02 4.79603E+01-2.20761E+01-1.40769E+00



 n o d a l   p r i n t   o u t   f o r   t i m e  s t e p    5601                              ( at time 2.7997198E+00 )

 nodal point  x-rot      y-rot       z-rot       x-rot vel   y-rot vel   z-rot vel   x-rot acc   y-rot acc   z-rot acc
    22626 -4.73453E-06-6.14977E-06-1.01374E-05-4.33431E-06-5.67316E-05-9.43943E-05 2.49795E-05-1.16651E-04-2.56698E-04



 n o d a l   p r i n t   o u t   f o r   t i m e  s t e p    5801                              ( at time 2.8997098E+00 )

 nodal point  x-disp     y-disp      z-disp      x-vel       y-vel       z-vel      x-accl      y-accl      z-accl      x-coor      y-coor      z-coor
    22626 -4.55561E-03-4.49818E-02-9.06174E+00-7.24155E-03 1.35991E-02-3.15645E+00 9.53305E-06 7.16773E-03-1.44878E-02 4.79596E+01-2.20748E+01-1.72323E+00



 n o d a l   p r i n t   o u t   f o r   t i m e  s t e p    5801                              ( at time 2.8997098E+00 )

 nodal point  x-rot      y-rot       z-rot       x-rot vel   y-rot vel   z-rot vel   x-rot acc   y-rot acc   z-rot acc
    22626 -5.06061E-06-1.21510E-05-2.00940E-05-3.53045E-06-5.87275E-05-1.02102E-04 8.03950E-06-1.99607E-05-7.70864E-05



 n o d a l   p r i n t   o u t   f o r   t i m e  s t e p    6001                              ( at time 2.9996998E+00 )

 nodal point  x-disp     y-disp      z-disp      x-vel       y-vel       z-vel      x-accl      y-accl      z-accl      x-coor      y-coor      z-coor
    22626 -5.32006E-03-4.35205E-02-9.37745E+00-8.20306E-03 1.58813E-02-3.15870E+00-9.61601E-03 2.28248E-02-2.24183E-02 4.79589E+01-2.20733E+01-2.03895E+00



 n o d a l   p r i n t   o u t   f o r   t i m e  s t e p    6001                              ( at time 2.9996998E+00 )

 nodal point  x-rot      y-rot       z-rot       x-rot vel   y-rot vel   z-rot vel   x-rot acc   y-rot acc   z-rot acc
    22626 -5.46816E-06-1.79854E-05-2.97705E-05-5.73046E-06-5.84111E-05-9.86912E-05-2.20023E-05 3.16401E-06 3.41131E-05



 n o d a l   p r i n t   o u t   f o r   t i m e  s t e p    6201                              ( at time 3.0996898E+00 )

 nodal point  x-disp     y-disp      z-disp      x-vel       y-vel       z-vel      x-accl      y-accl      z-accl      x-coor      y-coor      z-coor
    22626 -6.21382E-03-4.18281E-02-9.69339E+00-9.47747E-03 1.75711E-02-3.16057E+00-1.27454E-02 1.69001E-02-1.87392E-02 4.79580E+01-2.20716E+01-2.35489E+00



 n o d a l   p r i n t   o u t   f o r   t i m e  s t e p    6201                              ( at time 3.0996898E+00 )

 nodal point  x-rot      y-rot       z-rot       x-rot vel   y-rot vel   z-rot vel   x-rot acc   y-rot acc   z-rot acc
    22626 -6.19470E-06-2.37503E-05-3.96019E-05-9.13442E-06-5.96466E-05-1.03407E-04-3.40430E-05-1.23561E-05-4.71597E-05



 n o d a l   p r i n t   o u t   f o r   t i m e  s t e p    6401                              ( at time 3.1996798E+00 )

 nodal point  x-disp     y-disp      z-disp      x-vel       y-vel       z-vel      x-accl      y-accl      z-accl      x-coor      y-coor      z-coor
    22626 -7.17949E-03-4.01195E-02-1.00095E+01-9.77191E-03 1.64118E-02-3.16100E+00-2.94471E-03-1.15943E-02-4.34203E-03 4.79570E+01-2.20699E+01-2.67095E+00



 n o d a l   p r i n t   o u t   f o r   t i m e  s t e p    6401                              ( at time 3.1996798E+00 )

 nodal point  x-rot      y-rot       z-rot       x-rot vel   y-rot vel   z-rot vel   x-rot acc   y-rot acc   z-rot acc
    22626 -7.06014E-06-2.98397E-05-4.98031E-05-8.46967E-06-6.35487E-05-1.08263E-04 6.64815E-06-3.90242E-05-4.85673E-05



 n o d a l   p r i n t   o u t   f o r   t i m e  s t e p    6601                              ( at time 3.2996698E+00 )

 nodal point  x-disp     y-disp      z-disp      x-vel       y-vel       z-vel      x-accl      y-accl      z-accl      x-coor      y-coor      z-coor
    22626 -8.16049E-03-3.85823E-02-1.03255E+01-9.78697E-03 1.43719E-02-3.16069E+00-1.50638E-04-2.04013E-02 3.15221E-03 4.79560E+01-2.20684E+01-2.98700E+00



 n o d a l   p r i n t   o u t   f o r   t i m e  s t e p    6601                              ( at time 3.2996698E+00 )

 nodal point  x-rot      y-rot       z-rot       x-rot vel   y-rot vel   z-rot vel   x-rot acc   y-rot acc   z-rot acc
    22626 -7.97891E-06-3.59703E-05-6.04846E-05-9.67274E-06-6.18361E-05-1.07324E-04-1.20319E-05 1.71277E-05 9.39057E-06



 n o d a l   p r i n t   o u t   f o r   t i m e  s t e p    6801                              ( at time 3.3996598E+00 )

 nodal point  x-disp     y-disp      z-disp      x-vel       y-vel       z-vel      x-accl      y-accl      z-accl      x-coor      y-coor      z-coor
    22626 -9.15863E-03-3.72249E-02-1.06415E+01-1.01537E-02 1.27636E-02-3.16077E+00-3.66724E-03-1.60844E-02-8.70314E-04 4.79550E+01-2.20670E+01-3.30303E+00



 n o d a l   p r i n t   o u t   f o r   t i m e  s t e p    6801                              ( at time 3.3996598E+00 )

 nodal point  x-rot      y-rot       z-rot       x-rot vel   y-rot vel   z-rot vel   x-rot acc   y-rot acc   z-rot acc
    22626 -8.74798E-06-4.19545E-05-7.11417E-05-8.98402E-06-5.94473E-05-1.06605E-04 6.88788E-06 2.38901E-05 7.19147E-06



 n o d a l   p r i n t   o u t   f o r   t i m e  s t e p    7001                              ( at time 3.4996498E+00 )

 nodal point  x-disp     y-disp      z-disp      x-vel       y-vel       z-vel      x-accl      y-accl      z-accl      x-coor      y-coor      z-coor
    22626 -1.02047E-02-3.60014E-02-1.09576E+01-1.07684E-02 1.16018E-02-3.16109E+00-6.14813E-03-1.16191E-02-3.15937E-03 4.79540E+01-2.20658E+01-3.61910E+00



 n o d a l   p r i n t   o u t   f o r   t i m e  s t e p    7001                              ( at time 3.4996498E+00 )

 nodal point  x-rot      y-rot       z-rot       x-rot vel   y-rot vel   z-rot vel   x-rot acc   y-rot acc   z-rot acc
    22626 -9.48122E-06-4.77258E-05-8.11707E-05-7.18287E-06-5.63699E-05-9.87280E-05 1.80133E-05 3.07772E-05 7.87770E-05



 n o d a l   p r i n t   o u t   f o r   t i m e  s t e p    7201                              ( at time 3.5996397E+00 )

 nodal point  x-disp     y-disp      z-disp      x-vel       y-vel       z-vel      x-accl      y-accl      z-accl      x-coor      y-coor      z-coor
    22626 -1.12870E-02-3.49435E-02-1.12737E+01-1.05449E-02 9.23460E-03-3.16095E+00 2.23495E-03-2.36746E-02 1.42589E-03 4.79529E+01-2.20647E+01-3.93518E+00



 n o d a l   p r i n t   o u t   f o r   t i m e  s t e p    7201                              ( at time 3.5996397E+00 )

 nodal point  x-rot      y-rot       z-rot       x-rot vel   y-rot vel   z-rot vel   x-rot acc   y-rot acc   z-rot acc
    22626 -1.02784E-05-5.32191E-05-9.07138E-05-5.29378E-06-5.30458E-05-9.08330E-05 1.88928E-05 3.32436E-05 7.89576E-05



 n o d a l   p r i n t   o u t   f o r   t i m e  s t e p    7401                              ( at time 3.6996297E+00 )

 nodal point  x-disp     y-disp      z-disp      x-vel       y-vel       z-vel      x-accl      y-accl      z-accl      x-coor      y-coor      z-coor
    22626 -1.23263E-02-3.41697E-02-1.15897E+01-1.01514E-02 6.36124E-03-3.16019E+00 3.93570E-03-2.87365E-02 7.57292E-03 4.79519E+01-2.20640E+01-4.25120E+00



 n o d a l   p r i n t   o u t   f o r   t i m e  s t e p    7401                              ( at time 3.6996297E+00 )

 nodal point  x-rot      y-rot       z-rot       x-rot vel   y-rot vel   z-rot vel   x-rot acc   y-rot acc   z-rot acc
    22626 -1.06901E-05-5.83556E-05-9.98507E-05-3.12685E-06-5.19227E-05-9.17548E-05 2.16714E-05 1.12324E-05-9.21897E-06



 n o d a l   p r i n t   o u t   f o r   t i m e  s t e p    7601                              ( at time 3.7996197E+00 )

 nodal point  x-disp     y-disp      z-disp      x-vel       y-vel       z-vel      x-accl      y-accl      z-accl      x-coor      y-coor      z-coor
    22626 -1.33196E-02-3.36552E-02-1.19057E+01-9.73453E-03 3.96093E-03-3.15969E+00 4.16923E-03-2.40055E-02 4.97153E-03 4.79509E+01-2.20634E+01-4.56716E+00



 n o d a l   p r i n t   o u t   f o r   t i m e  s t e p    7601                              ( at time 3.7996197E+00 )

 nodal point  x-rot      y-rot       z-rot       x-rot vel   y-rot vel   z-rot vel   x-rot acc   y-rot acc   z-rot acc
    22626 -1.09916E-05-6.31687E-05-1.08351E-04-2.33259E-06-4.19788E-05-7.31581E-05 7.94336E-06 9.94490E-05 1.85986E-04



 n o d a l   p r i n t   o u t   f o r   t i m e  s t e p    7801                              ( at time 3.8996097E+00 )

 nodal point  x-disp     y-disp      z-disp      x-vel       y-vel       z-vel      x-accl      y-accl      z-accl      x-coor      y-coor      z-coor
    22626 -1.42716E-02-3.33275E-02-1.22216E+01-9.17510E-03 2.85529E-03-3.16007E+00 5.59485E-03-1.10575E-02-3.72923E-03 4.79499E+01-2.20631E+01-4.88311E+00



 n o d a l   p r i n t   o u t   f o r   t i m e  s t e p    7801                              ( at time 3.8996097E+00 )

 nodal point  x-rot      y-rot       z-rot       x-rot vel   y-rot vel   z-rot vel   x-rot acc   y-rot acc   z-rot acc
    22626 -1.13693E-05-6.67841E-05-1.14838E-04-5.89248E-06-2.97703E-05-5.31403E-05-3.56023E-05 1.22097E-04 2.00197E-04



 n o d a l   p r i n t   o u t   f o r   t i m e  s t e p    8001                              ( at time 3.9995997E+00 )

 nodal point  x-disp     y-disp      z-disp      x-vel       y-vel       z-vel      x-accl      y-accl      z-accl      x-coor      y-coor      z-coor
    22626 -1.51617E-02-3.30639E-02-1.25376E+01-8.55391E-03 2.21311E-03-3.16055E+00 6.21250E-03-6.42250E-03-4.81893E-03 4.79490E+01-2.20629E+01-5.19912E+00



 n o d a l   p r i n t   o u t   f o r   t i m e  s t e p    8001                              ( at time 3.9995997E+00 )

 nodal point  x-rot      y-rot       z-rot       x-rot vel   y-rot vel   z-rot vel   x-rot acc   y-rot acc   z-rot acc
    22626 -1.19022E-05-6.93209E-05-1.19491E-04-5.95998E-06-2.11398E-05-4.20450E-05-6.75086E-07 8.63132E-05 1.10964E-04



 n o d a l   p r i n t   o u t   f o r   t i m e  s t e p    8201                              ( at time 4.0995897E+00 )

 nodal point  x-disp     y-disp      z-disp      x-vel       y-vel       z-vel      x-accl      y-accl      z-accl      x-coor      y-coor      z-coor
    22626 -1.59395E-02-3.29534E-02-1.28536E+01-6.95831E-03-8.26332E-05-3.16025E+00 1.59576E-02-2.29597E-02 3.02821E-03 4.79482E+01-2.20627E+01-5.51513E+00



 n o d a l   p r i n t   o u t   f o r   t i m e  s t e p    8201                              ( at time 4.0995897E+00 )

 nodal point  x-rot      y-rot       z-rot       x-rot vel   y-rot vel   z-rot vel   x-rot acc   y-rot acc   z-rot acc
    22626 -1.24635E-05-7.09705E-05-1.22531E-04-5.63951E-06-8.12627E-06-1.86468E-05 3.20502E-06 1.30149E-04 2.34006E-04



 n o d a l   p r i n t   o u t   f o r   t i m e  s t e p    8401                              ( at time 4.1995797E+00 )

 nodal point  x-disp     y-disp      z-disp      x-vel       y-vel       z-vel      x-accl      y-accl      z-accl      x-coor      y-coor      z-coor
    22626 -1.65611E-02-3.30655E-02-1.31696E+01-5.45697E-03-1.97732E-03-3.15995E+00 1.50149E-02-1.89487E-02 2.94000E-03 4.79476E+01-2.20629E+01-5.83110E+00



 n o d a l   p r i n t   o u t   f o r   t i m e  s t e p    8401                              ( at time 4.1995797E+00 )

 nodal point  x-rot      y-rot       z-rot       x-rot vel   y-rot vel   z-rot vel   x-rot acc   y-rot acc   z-rot acc
    22626 -1.30026E-05-7.10464E-05-1.22839E-04-6.19062E-06 5.68259E-06 8.88494E-06-5.51169E-06 1.38103E-04 2.75345E-04



 n o d a l   p r i n t   o u t   f o r   t i m e  s t e p    8601                              ( at time 4.2995697E+00 )

 nodal point  x-disp     y-disp      z-disp      x-vel       y-vel       z-vel      x-accl      y-accl      z-accl      x-coor      y-coor      z-coor
    22626 -1.70462E-02-3.33389E-02-1.34856E+01-4.12650E-03-3.25034E-03-3.16019E+00 1.33061E-02-1.27315E-02-2.36774E-03 4.79471E+01-2.20631E+01-6.14707E+00



 n o d a l   p r i n t   o u t   f o r   t i m e  s t e p    8601                              ( at time 4.2995697E+00 )

 nodal point  x-rot      y-rot       z-rot       x-rot vel   y-rot vel   z-rot vel   x-rot acc   y-rot acc   z-rot acc
    22626 -1.34956E-05-6.96274E-05-1.20732E-04-4.37676E-06 1.95104E-05 3.27242E-05 1.81405E-05 1.38292E-04 2.38417E-04



 n o d a l   p r i n t   o u t   f o r   t i m e  s t e p    8801                              ( at time 4.3995597E+00 )

 nodal point  x-disp     y-disp      z-disp      x-vel       y-vel       z-vel      x-accl      y-accl      z-accl      x-coor      y-coor      z-coor
    22626 -1.73864E-02-3.36854E-02-1.38016E+01-2.68792E-03-3.81460E-03-3.16091E+00 1.43872E-02-5.64316E-03-7.26296E-03 4.79468E+01-2.20635E+01-6.46309E+00



 n o d a l   p r i n t   o u t   f o r   t i m e  s t e p    8801                              ( at time 4.3995597E+00 )

 nodal point  x-rot      y-rot       z-rot       x-rot vel   y-rot vel   z-rot vel   x-rot acc   y-rot acc   z-rot acc
    22626 -1.39380E-05-6.67942E-05-1.15731E-04-5.81086E-06 3.65729E-05 6.46627E-05-1.43425E-05 1.70642E-04 3.19417E-04



 n o d a l   p r i n t   o u t   f o r   t i m e  s t e p    9001                              ( at time 4.4995497E+00 )

 nodal point  x-disp     y-disp      z-disp      x-vel       y-vel       z-vel      x-accl      y-accl      z-accl      x-coor      y-coor      z-coor
    22626 -1.75809E-02-3.41530E-02-1.41177E+01-1.06567E-03-5.79799E-03-3.16074E+00 1.62241E-02-1.98359E-02 1.75970E-03 4.79466E+01-2.20639E+01-6.77915E+00



 n o d a l   p r i n t   o u t   f o r   t i m e  s t e p    9001                              ( at time 4.4995497E+00 )

 nodal point  x-rot      y-rot       z-rot       x-rot vel   y-rot vel   z-rot vel   x-rot acc   y-rot acc   z-rot acc
    22626 -1.43074E-05-6.21868E-05-1.07511E-04-3.38322E-07 5.10419E-05 9.39540E-05 5.47307E-05 1.44704E-04 2.92941E-04



 n o d a l   p r i n t   o u t   f o r   t i m e  s t e p    9201                              ( at time 4.5995397E+00 )

 nodal point  x-disp     y-disp      z-disp      x-vel       y-vel       z-vel      x-accl      y-accl      z-accl      x-coor      y-coor      z-coor
    22626 -1.75949E-02-3.48565E-02-1.44337E+01 7.37732E-04-8.12546E-03-3.16037E+00 1.80359E-02-2.32770E-02 3.71971E-03 4.79466E+01-2.20646E+01-7.09517E+00



 n o d a l   p r i n t   o u t   f o r   t i m e  s t e p    9201                              ( at time 4.5995397E+00 )

 nodal point  x-rot      y-rot       z-rot       x-rot vel   y-rot vel   z-rot vel   x-rot acc   y-rot acc   z-rot acc
    22626 -1.44154E-05-5.64614E-05-9.68878E-05-1.07405E-06 6.28246E-05 1.16285E-04-7.35799E-06 1.17839E-04 2.23329E-04



 n o d a l   p r i n t   o u t   f o r   t i m e  s t e p    9401                              ( at time 4.6995297E+00 )

 nodal point  x-disp     y-disp      z-disp      x-vel       y-vel       z-vel      x-accl      y-accl      z-accl      x-coor      y-coor      z-coor
    22626 -1.74285E-02-3.57278E-02-1.47497E+01 2.47696E-03-9.22491E-03-3.16053E+00 1.73941E-02-1.09956E-02-1.62618E-03 4.79468E+01-2.20655E+01-7.41118E+00



 n o d a l   p r i n t   o u t   f o r   t i m e  s t e p    9401                              ( at time 4.6995297E+00 )

 nodal point  x-rot      y-rot       z-rot       x-rot vel   y-rot vel   z-rot vel   x-rot acc   y-rot acc   z-rot acc
    22626 -1.45420E-05-4.92179E-05-8.34587E-05-7.81029E-07 8.40064E-05 1.51671E-04 2.93047E-06 2.11839E-04 3.53895E-04



 n o d a l   p r i n t   o u t   f o r   t i m e  s t e p    9601                              ( at time 4.7995197E+00 )

 nodal point  x-disp     y-disp      z-disp      x-vel       y-vel       z-vel      x-accl      y-accl      z-accl      x-coor      y-coor      z-coor
    22626 -1.71014E-02-3.66849E-02-1.50657E+01 4.04851E-03-9.76846E-03-3.16114E+00 1.57171E-02-5.43610E-03-6.11844E-03 4.79471E+01-2.20665E+01-7.72723E+00



 n o d a l   p r i n t   o u t   f o r   t i m e  s t e p    9601                              ( at time 4.7995197E+00 )

 nodal point  x-rot      y-rot       z-rot       x-rot vel   y-rot vel   z-rot vel   x-rot acc   y-rot acc   z-rot acc
    22626 -1.46029E-05-3.99520E-05-6.66653E-05-3.94900E-06 1.00417E-04 1.84979E-04-3.16829E-05 1.64118E-04 3.33123E-04



 n o d a l   p r i n t   o u t   f o r   t i m e  s t e p    9801                              ( at time 4.8995097E+00 )

 nodal point  x-disp     y-disp      z-disp      x-vel       y-vel       z-vel      x-accl      y-accl      z-accl      x-coor      y-coor      z-coor
    22626 -1.66212E-02-3.77009E-02-1.53818E+01 5.58399E-03-1.07330E-02-3.16157E+00 1.53563E-02-9.64674E-03-4.29674E-03 4.79476E+01-2.20675E+01-8.04335E+00



 n o d a l   p r i n t   o u t   f o r   t i m e  s t e p    9801                              ( at time 4.8995097E+00 )

 nodal point  x-rot      y-rot       z-rot       x-rot vel   y-rot vel   z-rot vel   x-rot acc   y-rot acc   z-rot acc
    22626 -1.50160E-05-2.93732E-05-4.69632E-05-5.04663E-06 1.10056E-04 2.05201E-04-1.09774E-05 9.64037E-05 2.02234E-04



 n o d a l   p r i n t   o u t   f o r   t i m e  s t e p   10001                              ( at time 4.9994997E+00 )

 nodal point  x-disp     y-disp      z-disp      x-vel       y-vel       z-vel      x-accl      y-accl      z-accl      x-coor      y-coor      z-coor
    22626 -1.59621E-02-3.88570E-02-1.56980E+01 7.46609E-03-1.23582E-02-3.16152E+00 1.88229E-02-1.62528E-02 4.64961E-04 4.79482E+01-2.20686E+01-8.35947E+00



 n o d a l   p r i n t   o u t   f o r   t i m e  s t e p   10001                              ( at time 4.9994997E+00 )

 nodal point  x-rot      y-rot       z-rot       x-rot vel   y-rot vel   z-rot vel   x-rot acc   y-rot acc   z-rot acc
    22626 -1.53643E-05-1.76238E-05-2.51402E-05-2.21541E-06 1.23422E-04 2.28619E-04 2.83150E-05 1.33668E-04 2.34201E-04



 n o d a l   p r i n t   o u t   f o r   t i m e  s t e p   10202                              ( at time 5.0999896E+00 )

 nodal point  x-disp     y-disp      z-disp      x-vel       y-vel       z-vel      x-accl      y-accl      z-accl      x-coor      y-coor      z-coor
    22626 -1.51194E-02-4.01383E-02-1.60157E+01 9.15628E-03-1.29804E-02-3.16199E+00 1.68195E-02-6.19158E-03-4.62651E-03 4.79491E+01-2.20699E+01-8.67718E+00



 n o d a l   p r i n t   o u t   f o r   t i m e  s t e p   10202                              ( at time 5.0999896E+00 )

 nodal point  x-rot      y-rot       z-rot       x-rot vel   y-rot vel   z-rot vel   x-rot acc   y-rot acc   z-rot acc
    22626 -1.56121E-05-4.22428E-06-6.37050E-07-2.66575E-06 1.37882E-04 2.56027E-04-4.48143E-06 1.43904E-04 2.72743E-04



 n o d a l   p r i n t   o u t   f o r   t i m e  s t e p   10402                              ( at time 5.1999796E+00 )

 nodal point  x-disp     y-disp      z-disp      x-vel       y-vel       z-vel      x-accl      y-accl      z-accl      x-coor      y-coor      z-coor
    22626 -1.41413E-02-4.14156E-02-1.63319E+01 1.03393E-02-1.23217E-02-3.16343E+00 1.18312E-02 6.58726E-03-1.43971E-02 4.79500E+01-2.20712E+01-8.99342E+00



 n o d a l   p r i n t   o u t   f o r   t i m e  s t e p   10402                              ( at time 5.1999796E+00 )

 nodal point  x-rot      y-rot       z-rot       x-rot vel   y-rot vel   z-rot vel   x-rot acc   y-rot acc   z-rot acc
    22626 -1.59229E-05 1.00848E-05 2.59520E-05-2.55124E-06 1.44866E-04 2.74307E-04 1.14519E-06 6.98401E-05 1.82825E-04



 n o d a l   p r i n t   o u t   f o r   t i m e  s t e p   10602                              ( at time 5.2999696E+00 )

 nodal point  x-disp     y-disp      z-disp      x-vel       y-vel       z-vel      x-accl      y-accl      z-accl      x-coor      y-coor      z-coor
    22626 -1.30678E-02-4.26133E-02-1.66483E+01 1.11735E-02-1.16634E-02-3.16488E+00 8.34300E-03 6.58383E-03-1.44997E-02 4.79511E+01-2.20724E+01-9.30981E+00



 n o d a l   p r i n t   o u t   f o r   t i m e  s t e p   10602                              ( at time 5.2999696E+00 )

 nodal point  x-rot      y-rot       z-rot       x-rot vel   y-rot vel   z-rot vel   x-rot acc   y-rot acc   z-rot acc
    22626 -1.61899E-05 2.53504E-05 5.41635E-05-3.19277E-06 1.56283E-04 2.87292E-04-6.41600E-06 1.14185E-04 1.29855E-04



 n o d a l   p r i n t   o u t   f o r   t i m e  s t e p   10802                              ( at time 5.3999596E+00 )

 nodal point  x-disp     y-disp      z-disp      x-vel       y-vel       z-vel      x-accl      y-accl      z-accl      x-coor      y-coor      z-coor
    22626 -1.19053E-02-4.37441E-02-1.69648E+01 1.21632E-02-1.10539E-02-3.16633E+00 9.89766E-03 6.09491E-03-1.44759E-02 4.79523E+01-2.20735E+01-9.62633E+00



 n o d a l   p r i n t   o u t   f o r   t i m e  s t e p   10802                              ( at time 5.3999596E+00 )

 nodal point  x-rot      y-rot       z-rot       x-rot vel   y-rot vel   z-rot vel   x-rot acc   y-rot acc   z-rot acc
    22626 -1.61651E-05 4.13148E-05 8.34699E-05 2.10543E-06 1.59639E-04 2.93216E-04 5.29874E-05 3.35613E-05 5.92468E-05



 n o d a l   p r i n t   o u t   f o r   t i m e  s t e p   11002                              ( at time 5.4999496E+00 )

 nodal point  x-disp     y-disp      z-disp      x-vel       y-vel       z-vel      x-accl      y-accl      z-accl      x-coor      y-coor      z-coor
    22626 -1.06280E-02-4.47906E-02-1.72815E+01 1.33034E-02-9.78785E-03-3.16803E+00 1.14038E-02 1.26622E-02-1.70343E-02 4.79536E+01-2.20746E+01-9.94302E+00



 n o d a l   p r i n t   o u t   f o r   t i m e  s t e p   11002                              ( at time 5.4999496E+00 )

 nodal point  x-rot      y-rot       z-rot       x-rot vel   y-rot vel   z-rot vel   x-rot acc   y-rot acc   z-rot acc
    22626 -1.59030E-05 5.75647E-05 1.13367E-04 1.96881E-06 1.64665E-04 3.01969E-04-1.36639E-06 5.02700E-05 8.75459E-05



 n o d a l   p r i n t   o u t   f o r   t i m e  s t e p   11202                              ( at time 5.5999396E+00 )

 nodal point  x-disp     y-disp      z-disp      x-vel       y-vel       z-vel      x-accl      y-accl      z-accl      x-coor      y-coor      z-coor
    22626 -9.27241E-03-4.56679E-02-1.75984E+01 1.37627E-02-7.66435E-03-3.17007E+00 4.59358E-03 2.12372E-02-2.04560E-02 4.79549E+01-2.20755E+01-1.02599E+01



 n o d a l   p r i n t   o u t   f o r   t i m e  s t e p   11202                              ( at time 5.5999396E+00 )

 nodal point  x-rot      y-rot       z-rot       x-rot vel   y-rot vel   z-rot vel   x-rot acc   y-rot acc   z-rot acc
    22626 -1.57392E-05 7.42746E-05 1.44106E-04 1.93171E-06 1.69591E-04 3.11287E-04-3.71055E-07 4.92618E-05 9.31827E-05



 n o d a l   p r i n t   o u t   f o r   t i m e  s t e p   11402                              ( at time 5.6999296E+00 )

 nodal point  x-disp     y-disp      z-disp      x-vel       y-vel       z-vel      x-accl      y-accl      z-accl      x-coor      y-coor      z-coor
    22626 -7.87446E-03-4.63105E-02-1.79155E+01 1.41087E-02-5.22775E-03-3.17263E+00 3.45998E-03 2.43683E-02-2.55538E-02 4.79563E+01-2.20761E+01-1.05770E+01



 n o d a l   p r i n t   o u t   f o r   t i m e  s t e p   11402                              ( at time 5.6999296E+00 )

 nodal point  x-rot      y-rot       z-rot       x-rot vel   y-rot vel   z-rot vel   x-rot acc   y-rot acc   z-rot acc
    22626 -1.55529E-05 9.14559E-05 1.75337E-04 2.60986E-06 1.71165E-04 3.12340E-04 6.78216E-06 1.57432E-05 1.05349E-05



 n o d a l   p r i n t   o u t   f o r   t i m e  s t e p   11602                              ( at time 5.7999195E+00 )

 nodal point  x-disp     y-disp      z-disp      x-vel       y-vel       z-vel      x-accl      y-accl      z-accl      x-coor      y-coor      z-coor
    22626 -6.44299E-03-4.67426E-02-1.82328E+01 1.46666E-02-3.72426E-03-3.17441E+00 5.57961E-03 1.50364E-02-1.77807E-02 4.79577E+01-2.20765E+01-1.08943E+01



 n o d a l   p r i n t   o u t   f o r   t i m e  s t e p   11602                              ( at time 5.7999195E+00 )

 nodal point  x-rot      y-rot       z-rot       x-rot vel   y-rot vel   z-rot vel   x-rot acc   y-rot acc   z-rot acc
    22626 -1.55364E-05 1.08804E-04 2.06642E-04-1.53073E-06 1.71533E-04 3.13067E-04-4.14101E-05 3.67604E-06 7.27407E-06



 n o d a l   p r i n t   o u t   f o r   t i m e  s t e p   11802                              ( at time 5.8999095E+00 )

 nodal point  x-disp     y-disp      z-disp      x-vel       y-vel       z-vel      x-accl      y-accl      z-accl      x-coor      y-coor      z-coor
    22626 -4.95679E-03-4.70960E-02-1.85503E+01 1.51392E-02-3.04828E-03-3.17557E+00 4.72656E-03 6.76052E-03-1.16217E-02 4.79592E+01-2.20769E+01-1.12118E+01



 n o d a l   p r i n t   o u t   f o r   t i m e  s t e p   11802                              ( at time 5.8999095E+00 )

 nodal point  x-rot      y-rot       z-rot       x-rot vel   y-rot vel   z-rot vel   x-rot acc   y-rot acc   z-rot acc
    22626 -1.55760E-05 1.25955E-04 2.37917E-04-5.18199E-08 1.73487E-04 3.10609E-04 1.47906E-05 1.95401E-05-2.45821E-05



 n o d a l   p r i n t   o u t   f o r   t i m e  s t e p   12002                              ( at time 5.9998995E+00 )

 nodal point  x-disp     y-disp      z-disp      x-vel       y-vel       z-vel      x-accl      y-accl      z-accl      x-coor      y-coor      z-coor
    22626 -3.43921E-03-4.73587E-02-1.88679E+01 1.49935E-02-2.03968E-03-3.17726E+00-1.45765E-03 1.00870E-02-1.69199E-02 4.79607E+01-2.20771E+01-1.15294E+01



 n o d a l   p r i n t   o u t   f o r   t i m e  s t e p   12002                              ( at time 5.9998995E+00 )

 nodal point  x-rot      y-rot       z-rot       x-rot vel   y-rot vel   z-rot vel   x-rot acc   y-rot acc   z-rot acc
    22626 -1.55407E-05 1.43057E-04 2.68619E-04 2.39495E-06 1.67816E-04 3.03146E-04 2.44702E-05-5.67112E-05-7.46426E-05



 n o d a l   p r i n t   o u t   f o r   t i m e  s t e p   12202                              ( at time 6.0998895E+00 )

 nodal point  x-disp     y-disp      z-disp      x-vel       y-vel       z-vel      x-accl      y-accl      z-accl      x-coor      y-coor      z-coor
    22626 -1.95292E-03-4.75058E-02-1.91857E+01 1.46262E-02-1.03035E-03-3.17905E+00-3.67286E-03 1.00943E-02-1.78927E-02 4.79622E+01-2.20773E+01-1.18472E+01



 n o d a l   p r i n t   o u t   f o r   t i m e  s t e p   12202                              ( at time 6.0998895E+00 )

 nodal point  x-rot      y-rot       z-rot       x-rot vel   y-rot vel   z-rot vel   x-rot acc   y-rot acc   z-rot acc
    22626 -1.55035E-05 1.59745E-04 2.98502E-04 7.58173E-07 1.65102E-04 2.97420E-04-1.63694E-05-2.71432E-05-5.72606E-05



 n o d a l   p r i n t   o u t   f o r   t i m e  s t e p   12402                              ( at time 6.1998795E+00 )

 nodal point  x-disp     y-disp      z-disp      x-vel       y-vel       z-vel      x-accl      y-accl      z-accl      x-coor      y-coor      z-coor
    22626 -5.21239E-04-4.75743E-02-1.95036E+01 1.42753E-02-4.21754E-04-3.18032E+00-3.50962E-03 6.08653E-03-1.26780E-02 4.79637E+01-2.20774E+01-1.21651E+01



 n o d a l   p r i n t   o u t   f o r   t i m e  s t e p   12402                              ( at time 6.1998795E+00 )

 nodal point  x-rot      y-rot       z-rot       x-rot vel   y-rot vel   z-rot vel   x-rot acc   y-rot acc   z-rot acc
    22626 -1.56052E-05 1.75876E-04 3.27492E-04 3.80859E-07 1.57817E-04 2.81499E-04-3.77352E-06-7.28540E-05-1.59228E-04



 n o d a l   p r i n t   o u t   f o r   t i m e  s t e p   12602                              ( at time 6.2998695E+00 )

 nodal point  x-disp     y-disp      z-disp      x-vel       y-vel       z-vel      x-accl      y-accl      z-accl      x-coor      y-coor      z-coor
    22626  8.92297E-04-4.76024E-02-1.98217E+01 1.39825E-02-1.33154E-04-3.18137E+00-2.92789E-03 2.88630E-03-1.05439E-02 4.79651E+01-2.20774E+01-1.24832E+01



 n o d a l   p r i n t   o u t   f o r   t i m e  s t e p   12602                              ( at time 6.2998695E+00 )

 nodal point  x-rot      y-rot       z-rot       x-rot vel   y-rot vel   z-rot vel   x-rot acc   y-rot acc   z-rot acc
    22626 -1.55088E-05 1.91004E-04 3.54756E-04 1.93776E-06 1.45039E-04 2.63227E-04 1.55706E-05-1.27793E-04-1.82739E-04



 n o d a l   p r i n t   o u t   f o r   t i m e  s t e p   12802                              ( at time 6.3998595E+00 )

 nodal point  x-disp     y-disp      z-disp      x-vel       y-vel       z-vel      x-accl      y-accl      z-accl      x-coor      y-coor      z-coor
    22626  2.27143E-03-4.75933E-02-2.01398E+01 1.35806E-02 4.63259E-04-3.18278E+00-4.01934E-03 5.96474E-03-1.41063E-02 4.79664E+01-2.20774E+01-1.28013E+01



 n o d a l   p r i n t   o u t   f o r   t i m e  s t e p   12802                              ( at time 6.3998595E+00 )

 nodal point  x-rot      y-rot       z-rot       x-rot vel   y-rot vel   z-rot vel   x-rot acc   y-rot acc   z-rot acc
    22626 -1.53570E-05 2.05271E-04 3.80322E-04-8.79577E-07 1.40890E-04 2.50526E-04-2.81762E-05-4.14990E-05-1.27025E-04



 n o d a l   p r i n t   o u t   f o r   t i m e  s t e p   13002                              ( at time 6.4998495E+00 )

 nodal point  x-disp     y-disp      z-disp      x-vel       y-vel       z-vel      x-accl      y-accl      z-accl      x-coor      y-coor      z-coor
    22626  3.58727E-03-4.74697E-02-2.04582E+01 1.29120E-02 2.09343E-03-3.18470E+00-6.68665E-03 1.63033E-02-1.91565E-02 4.79678E+01-2.20773E+01-1.31197E+01



 n o d a l   p r i n t   o u t   f o r   t i m e  s t e p   13002                              ( at time 6.4998495E+00 )

 nodal point  x-rot      y-rot       z-rot       x-rot vel   y-rot vel   z-rot vel   x-rot acc   y-rot acc   z-rot acc
    22626 -1.53458E-05 2.18955E-04 4.04686E-04-7.00995E-07 1.33858E-04 2.38278E-04 1.78601E-06-7.03282E-05-1.22495E-04



 n o d a l   p r i n t   o u t   f o r   t i m e  s t e p   13202                              ( at time 6.5998395E+00 )

 nodal point  x-disp     y-disp      z-disp      x-vel       y-vel       z-vel      x-accl      y-accl      z-accl      x-coor      y-coor      z-coor
    22626  4.83463E-03-4.71843E-02-2.07767E+01 1.22491E-02 3.31018E-03-3.18607E+00-6.62990E-03 1.21687E-02-1.37509E-02 4.79690E+01-2.20770E+01-1.34382E+01



 n o d a l   p r i n t   o u t   f o r   t i m e  s t e p   13202                              ( at time 6.5998395E+00 )

 nodal point  x-rot      y-rot       z-rot       x-rot vel   y-rot vel   z-rot vel   x-rot acc   y-rot acc   z-rot acc
    22626 -1.56053E-05 2.31711E-04 4.27607E-04-1.01891E-05 1.25189E-04 2.24637E-04-9.48903E-05-8.66992E-05-1.36420E-04



 n o d a l   p r i n t   o u t   f o r   t i m e  s t e p   13402                              ( at time 6.6998295E+00 )

 nodal point  x-disp     y-disp      z-disp      x-vel       y-vel       z-vel      x-accl      y-accl      z-accl      x-coor      y-coor      z-coor
    22626  6.00688E-03-4.68175E-02-2.10952E+01 1.13379E-02 4.60413E-03-3.18450E+00-9.11305E-03 1.29408E-02 1.57277E-02 4.79702E+01-2.20766E+01-1.37567E+01



 n o d a l   p r i n t   o u t   f o r   t i m e  s t e p   13402                              ( at time 6.6998295E+00 )

 nodal point  x-rot      y-rot       z-rot       x-rot vel   y-rot vel   z-rot vel   x-rot acc   y-rot acc   z-rot acc
    22626 -1.57213E-05 2.43986E-04 4.48700E-04 1.80318E-05 1.26996E-04 1.98783E-04 2.82237E-04 1.80734E-05-2.58562E-04



 n o d a l   p r i n t   o u t   f o r   t i m e  s t e p   13602                              ( at time 6.7998195E+00 )

 nodal point  x-disp     y-disp      z-disp      x-vel       y-vel       z-vel      x-accl      y-accl      z-accl      x-coor      y-coor      z-coor
    22626  7.07648E-03-4.62108E-02-2.14135E+01 1.00092E-02 7.35459E-03-3.18060E+00-1.32879E-02 2.75074E-02 3.90188E-02 4.79713E+01-2.20760E+01-1.40750E+01



 n o d a l   p r i n t   o u t   f o r   t i m e  s t e p   13602                              ( at time 6.7998195E+00 )

 nodal point  x-rot      y-rot       z-rot       x-rot vel   y-rot vel   z-rot vel   x-rot acc   y-rot acc   z-rot acc
    22626 -1.02152E-05 2.57818E-04 4.66999E-04 8.72404E-05 1.51251E-04 1.71020E-04 6.92157E-04 2.42577E-04-2.77662E-04



 n o d a l   p r i n t   o u t   f o r   t i m e  s t e p   13802                              ( at time 6.8998095E+00 )

 nodal point  x-disp     y-disp      z-disp      x-vel       y-vel       z-vel      x-accl      y-accl      z-accl      x-coor      y-coor      z-coor
    22626  8.04987E-03-4.53767E-02-2.17312E+01 9.32240E-03 9.23490E-03-3.17365E+00-6.86917E-03 1.88051E-02 6.94965E-02 4.79722E+01-2.20752E+01-1.43927E+01



 n o d a l   p r i n t   o u t   f o r   t i m e  s t e p   13802                              ( at time 6.8998095E+00 )

 nodal point  x-rot      y-rot       z-rot       x-rot vel   y-rot vel   z-rot vel   x-rot acc   y-rot acc   z-rot acc
    22626  1.15463E-06 2.74751E-04 4.82644E-04 1.43099E-04 1.87548E-04 1.40589E-04 5.58641E-04 3.63007E-04-3.04346E-04



 n o d a l   p r i n t   o u t   f o r   t i m e  s t e p   14002                              ( at time 6.9997995E+00 )

 nodal point  x-disp     y-disp      z-disp      x-vel       y-vel       z-vel      x-accl      y-accl      z-accl      x-coor      y-coor      z-coor
    22626  8.91295E-03-4.43351E-02-2.20481E+01 8.01670E-03 1.17981E-02-3.16410E+00-1.30584E-02 2.56343E-02 9.55034E-02 4.79731E+01-2.20741E+01-1.47096E+01



 n o d a l   p r i n t   o u t   f o r   t i m e  s t e p   14002                              ( at time 6.9997995E+00 )

 nodal point  x-rot      y-rot       z-rot       x-rot vel   y-rot vel   z-rot vel   x-rot acc   y-rot acc   z-rot acc
    22626  1.94094E-05 2.95423E-04 4.95522E-04 2.23957E-04 2.34879E-04 1.14082E-04 8.08661E-04 4.73354E-04-2.65092E-04



 n o d a l   p r i n t   o u t   f o r   t i m e  s t e p   14202                              ( at time 7.0997895E+00 )

 nodal point  x-disp     y-disp      z-disp      x-vel       y-vel       z-vel      x-accl      y-accl      z-accl      x-coor      y-coor      z-coor
    22626  9.65037E-03-4.30453E-02-2.23638E+01 6.82061E-03 1.37702E-02-3.15060E+00-1.19620E-02 1.97237E-02 1.35060E-01 4.79738E+01-2.20728E+01-1.50253E+01



 n o d a l   p r i n t   o u t   f o r   t i m e  s t e p   14202                              ( at time 7.0997895E+00 )

 nodal point  x-rot      y-rot       z-rot       x-rot vel   y-rot vel   z-rot vel   x-rot acc   y-rot acc   z-rot acc
    22626  4.60990E-05 3.22302E-04 5.05120E-04 3.19476E-04 3.12494E-04 8.19992E-05 9.55289E-04 7.76223E-04-3.20859E-04



 n o d a l   p r i n t   o u t   f o r   t i m e  s t e p   14402                              ( at time 7.1997794E+00 )

 nodal point  x-disp     y-disp      z-disp      x-vel       y-vel       z-vel      x-accl      y-accl      z-accl      x-coor      y-coor      z-coor
    22626  1.02318E-02-4.15559E-02-2.26780E+01 4.73975E-03 1.57092E-02-3.13306E+00-2.08108E-02 1.93915E-02 1.75415E-01 4.79744E+01-2.20713E+01-1.53395E+01



 n o d a l   p r i n t   o u t   f o r   t i m e  s t e p   14402                              ( at time 7.1997794E+00 )

 nodal point  x-rot      y-rot       z-rot       x-rot vel   y-rot vel   z-rot vel   x-rot acc   y-rot acc   z-rot acc
    22626  8.37705E-05 3.59426E-04 5.12086E-04 4.33645E-04 4.28635E-04 6.35505E-05 1.14180E-03 1.16154E-03-1.84506E-04



 n o d a l   p r i n t   o u t   f o r   t i m e  s t e p   14602                              ( at time 7.2997694E+00 )

 nodal point  x-disp     y-disp      z-disp      x-vel       y-vel       z-vel      x-accl      y-accl      z-accl      x-coor      y-coor      z-coor
    22626  1.05875E-02-3.99316E-02-2.29902E+01 2.23188E-03 1.66990E-02-3.11152E+00-2.50812E-02 9.89897E-03 2.15421E-01 4.79748E+01-2.20697E+01-1.56517E+01



 n o d a l   p r i n t   o u t   f o r   t i m e  s t e p   14602                              ( at time 7.2997694E+00 )

 nodal point  x-rot      y-rot       z-rot       x-rot vel   y-rot vel   z-rot vel   x-rot acc   y-rot acc   z-rot acc
    22626  1.33124E-04 4.09771E-04 5.17254E-04 5.57733E-04 5.85292E-04 4.12843E-05 1.24100E-03 1.56672E-03-2.22685E-04



 n o d a l   p r i n t   o u t   f o r   t i m e  s t e p   14802                              ( at time 7.3997594E+00 )

 nodal point  x-disp     y-disp      z-disp      x-vel       y-vel       z-vel      x-accl      y-accl      z-accl      x-coor      y-coor      z-coor
    22626  1.06170E-02-3.81890E-02-2.33001E+01-1.42357E-03 1.83735E-02-3.08642E+00-3.65581E-02 1.67468E-02 2.50951E-01 4.79748E+01-2.20680E+01-1.59616E+01



 n o d a l   p r i n t   o u t   f o r   t i m e  s t e p   14802                              ( at time 7.3997594E+00 )

 nodal point  x-rot      y-rot       z-rot       x-rot vel   y-rot vel   z-rot vel   x-rot acc   y-rot acc   z-rot acc
    22626  1.95918E-04 4.77346E-04 5.20219E-04 6.97722E-04 7.73257E-04 2.49734E-05 1.40004E-03 1.87984E-03-1.63125E-04



 n o d a l   p r i n t   o u t   f o r   t i m e  s t e p   15002                              ( at time 7.4997494E+00 )

 nodal point  x-disp     y-disp      z-disp      x-vel       y-vel       z-vel      x-accl      y-accl      z-accl      x-coor      y-coor      z-coor
    22626  1.02596E-02-3.62689E-02-2.36072E+01-5.35008E-03 1.93007E-02-3.05608E+00-3.92689E-02 9.27245E-03 3.03510E-01 4.79744E+01-2.20661E+01-1.62687E+01



 n o d a l   p r i n t   o u t   f o r   t i m e  s t e p   15002                              ( at time 7.4997494E+00 )

 nodal point  x-rot      y-rot       z-rot       x-rot vel   y-rot vel   z-rot vel   x-rot acc   y-rot acc   z-rot acc
    22626  2.74479E-04 5.65429E-04 5.22075E-04 8.78169E-04 9.94336E-04 2.19963E-05 1.80464E-03 2.21100E-03-2.97744E-05



 n o d a l   p r i n t   o u t   f o r   t i m e  s t e p   15202                              ( at time 7.5997394E+00 )

 nodal point  x-disp     y-disp      z-disp      x-vel       y-vel       z-vel      x-accl      y-accl      z-accl      x-coor      y-coor      z-coor
    22626  9.48862E-03-3.43026E-02-2.39110E+01-1.02238E-02 2.03876E-02-3.02094E+00-4.87420E-02 1.08702E-02 3.51443E-01 4.79737E+01-2.20641E+01-1.65725E+01



 n o d a l   p r i n t   o u t   f o r   t i m e  s t e p   15202                              ( at time 7.5997394E+00 )

 nodal point  x-rot      y-rot       z-rot       x-rot vel   y-rot vel   z-rot vel   x-rot acc   y-rot acc   z-rot acc
    22626  3.72112E-04 6.77386E-04 5.23234E-04 1.07618E-03 1.25837E-03 4.28091E-06 1.98029E-03 2.64065E-03-1.77172E-04



 n o d a l   p r i n t   o u t   f o r   t i m e  s t e p   15402                              ( at time 7.6997294E+00 )

 nodal point  x-disp     y-disp      z-disp      x-vel       y-vel       z-vel      x-accl      y-accl      z-accl      x-coor      y-coor      z-coor
    22626  8.21536E-03-3.22515E-02-2.42112E+01-1.55161E-02 2.04166E-02-2.98296E+00-5.29281E-02 2.90025E-04 3.79811E-01 4.79724E+01-2.20620E+01-1.68727E+01



 n o d a l   p r i n t   o u t   f o r   t i m e  s t e p   15402                              ( at time 7.6997294E+00 )

 nodal point  x-rot      y-rot       z-rot       x-rot vel   y-rot vel   z-rot vel   x-rot acc   y-rot acc   z-rot acc
    22626  4.90228E-04 8.17486E-04 5.23767E-04 1.28207E-03 1.54206E-03 8.88294E-06 2.05908E-03 2.83715E-03 4.60249E-05



 n o d a l   p r i n t   o u t   f o r   t i m e  s t e p   15602                              ( at time 7.7997194E+00 )

 nodal point  x-disp     y-disp      z-disp      x-vel       y-vel       z-vel      x-accl      y-accl      z-accl      x-coor      y-coor      z-coor
    22626  6.47132E-03-3.01755E-02-2.45074E+01-1.92681E-02 2.16228E-02-2.94038E+00-3.75240E-02 1.20634E-02 4.25789E-01 4.79706E+01-2.20600E+01-1.71689E+01



 n o d a l   p r i n t   o u t   f o r   t i m e  s t e p   15602                              ( at time 7.7997194E+00 )

 nodal point  x-rot      y-rot       z-rot       x-rot vel   y-rot vel   z-rot vel   x-rot acc   y-rot acc   z-rot acc
    22626  6.29765E-04 9.85642E-04 5.25076E-04 1.50940E-03 1.83181E-03 1.70051E-05 2.27356E-03 2.89781E-03 8.12298E-05



 n o d a l   p r i n t   o u t   f o r   t i m e  s t e p   15802                              ( at time 7.8997094E+00 )

 nodal point  x-disp     y-disp      z-disp      x-vel       y-vel       z-vel      x-accl      y-accl      z-accl      x-coor      y-coor      z-coor
    22626  4.30942E-03-2.79656E-02-2.47991E+01-2.34988E-02 2.20810E-02-2.89447E+00-4.23118E-02 4.58264E-03 4.59231E-01 4.79685E+01-2.20578E+01-1.74606E+01



 n o d a l   p r i n t   o u t   f o r   t i m e  s t e p   15802                              ( at time 7.8997094E+00 )

 nodal point  x-rot      y-rot       z-rot       x-rot vel   y-rot vel   z-rot vel   x-rot acc   y-rot acc   z-rot acc
    22626  7.92987E-04 1.18513E-03 5.27517E-04 1.75427E-03 2.15860E-03 3.34422E-05 2.44897E-03 3.26820E-03 1.64388E-04



 n o d a l   p r i n t   o u t   f o r   t i m e  s t e p   16002                              ( at time 7.9996994E+00 )

 nodal point  x-disp     y-disp      z-disp      x-vel       y-vel       z-vel      x-accl      y-accl      z-accl      x-coor      y-coor      z-coor
    22626  1.75761E-03-2.56823E-02-2.50861E+01-2.73542E-02 2.33976E-02-2.84508E+00-3.85572E-02 1.31667E-02 4.93929E-01 4.79659E+01-2.20555E+01-1.77476E+01



 n o d a l   p r i n t   o u t   f o r   t i m e  s t e p   16002                              ( at time 7.9996994E+00 )

 nodal point  x-rot      y-rot       z-rot       x-rot vel   y-rot vel   z-rot vel   x-rot acc   y-rot acc   z-rot acc
    22626  9.82884E-04 1.41657E-03 5.31047E-04 2.04496E-03 2.47321E-03 3.94815E-05 2.90715E-03 3.14642E-03 6.03987E-05



 n o d a l   p r i n t   o u t   f o r   t i m e  s t e p   16202                              ( at time 8.0996894E+00 )

 nodal point  x-disp     y-disp      z-disp      x-vel       y-vel       z-vel      x-accl      y-accl      z-accl      x-coor      y-coor      z-coor
    22626 -1.12969E-03-2.32547E-02-2.53679E+01-2.98090E-02 2.42317E-02-2.79293E+00-2.45504E-02 8.34236E-03 5.21505E-01 4.79631E+01-2.20530E+01-1.80294E+01



 n o d a l   p r i n t   o u t   f o r   t i m e  s t e p   16202                              ( at time 8.0996894E+00 )

 nodal point  x-rot      y-rot       z-rot       x-rot vel   y-rot vel   z-rot vel   x-rot acc   y-rot acc   z-rot acc
    22626  1.20255E-03 1.68038E-03 5.35872E-04 2.33831E-03 2.79938E-03 6.68353E-05 2.93380E-03 3.26200E-03 2.73566E-04



 n o d a l   p r i n t   o u t   f o r   t i m e  s t e p   16402                              ( at time 8.1996794E+00 )

 nodal point  x-disp     y-disp      z-disp      x-vel       y-vel       z-vel      x-accl      y-accl      z-accl      x-coor      y-coor      z-coor
    22626 -4.16079E-03-2.08002E-02-2.56445E+01-3.04044E-02 2.46601E-02-2.73845E+00-5.95488E-03 4.28459E-03 5.44892E-01 4.79600E+01-2.20506E+01-1.83060E+01



 n o d a l   p r i n t   o u t   f o r   t i m e  s t e p   16402                              ( at time 8.1996794E+00 )

 nodal point  x-rot      y-rot       z-rot       x-rot vel   y-rot vel   z-rot vel   x-rot acc   y-rot acc   z-rot acc
    22626  1.45066E-03 1.97559E-03 5.43126E-04 2.63504E-03 3.11312E-03 9.18448E-05 2.96759E-03 3.13772E-03 2.50120E-04



 n o d a l   p r i n t   o u t   f o r   t i m e  s t e p   16602                              ( at time 8.2996694E+00 )

 nodal point  x-disp     y-disp      z-disp      x-vel       y-vel       z-vel      x-accl      y-accl      z-accl      x-coor      y-coor      z-coor
    22626 -7.27915E-03-1.81910E-02-2.59155E+01-3.15513E-02 2.70428E-02-2.68211E+00-1.14705E-02 2.38286E-02 5.63411E-01 4.79569E+01-2.20480E+01-1.85770E+01



 n o d a l   p r i n t   o u t   f o r   t i m e  s t e p   16602                              ( at time 8.2996694E+00 )

 nodal point  x-rot      y-rot       z-rot       x-rot vel   y-rot vel   z-rot vel   x-rot acc   y-rot acc   z-rot acc
    22626  1.73052E-03 2.30199E-03 5.52647E-04 2.95652E-03 3.43095E-03 1.04844E-04 3.21521E-03 3.17869E-03 1.30002E-04



 n o d a l   p r i n t   o u t   f o r   t i m e  s t e p   16802                              ( at time 8.3996594E+00 )

 nodal point  x-disp     y-disp      z-disp      x-vel       y-vel       z-vel      x-accl      y-accl      z-accl      x-coor      y-coor      z-coor
    22626 -1.04273E-02-1.54782E-02-2.61809E+01-3.10889E-02 2.72383E-02-2.62512E+00 4.62450E-03 1.95542E-03 5.69995E-01 4.79538E+01-2.20453E+01-1.88424E+01



 n o d a l   p r i n t   o u t   f o r   t i m e  s t e p   16802                              ( at time 8.3996594E+00 )

 nodal point  x-rot      y-rot       z-rot       x-rot vel   y-rot vel   z-rot vel   x-rot acc   y-rot acc   z-rot acc
    22626  2.04269E-03 2.66066E-03 5.64340E-04 3.28450E-03 3.74608E-03 1.32953E-04 3.28007E-03 3.15163E-03 2.81124E-04



 n o d a l   p r i n t   o u t   f o r   t i m e  s t e p   17002                              ( at time 8.4996494E+00 )

 nodal point  x-disp     y-disp      z-disp      x-vel       y-vel       z-vel      x-accl      y-accl      z-accl      x-coor      y-coor      z-coor
    22626 -1.34279E-02-1.27516E-02-2.64404E+01-2.87538E-02 2.75663E-02-2.56573E+00 2.33542E-02 3.28038E-03 5.93934E-01 4.79508E+01-2.20425E+01-1.91019E+01



 n o d a l   p r i n t   o u t   f o r   t i m e  s t e p   17002                              ( at time 8.4996494E+00 )

 nodal point  x-rot      y-rot       z-rot       x-rot vel   y-rot vel   z-rot vel   x-rot acc   y-rot acc   z-rot acc
    22626  2.38637E-03 3.05104E-03 5.78046E-04 3.60199E-03 4.04362E-03 1.53289E-04 3.17519E-03 2.97566E-03 2.03378E-04



 n o d a l   p r i n t   o u t   f o r   t i m e  s t e p   17202                              ( at time 8.5996394E+00 )

 nodal point  x-disp     y-disp      z-disp      x-vel       y-vel       z-vel      x-accl      y-accl      z-accl      x-coor      y-coor      z-coor
    22626 -1.61535E-02-9.99292E-03-2.66939E+01-2.56071E-02 2.78788E-02-2.50399E+00 3.14693E-02 3.12511E-03 6.17459E-01 4.79480E+01-2.20398E+01-1.93554E+01



 n o d a l   p r i n t   o u t   f o r   t i m e  s t e p   17202                              ( at time 8.5996394E+00 )

 nodal point  x-rot      y-rot       z-rot       x-rot vel   y-rot vel   z-rot vel   x-rot acc   y-rot acc   z-rot acc
    22626  2.76301E-03 3.47092E-03 5.95089E-04 3.93319E-03 4.35204E-03 1.80807E-04 3.31239E-03 3.08448E-03 2.75204E-04



 n o d a l   p r i n t   o u t   f o r   t i m e  s t e p   17402                              ( at time 8.6996293E+00 )

 nodal point  x-disp     y-disp      z-disp      x-vel       y-vel       z-vel      x-accl      y-accl      z-accl      x-coor      y-coor      z-coor
    22626 -1.85177E-02-7.24551E-03-2.69409E+01-2.20135E-02 2.74508E-02-2.43934E+00 3.59395E-02-4.28021E-03 6.46529E-01 4.79457E+01-2.20370E+01-1.96024E+01



 n o d a l   p r i n t   o u t   f o r   t i m e  s t e p   17402                              ( at time 8.6996293E+00 )

 nodal point  x-rot      y-rot       z-rot       x-rot vel   y-rot vel   z-rot vel   x-rot acc   y-rot acc   z-rot acc
    22626  3.17218E-03 3.92119E-03 6.14910E-04 4.25489E-03 4.63245E-03 2.13916E-04 3.21732E-03 2.80441E-03 3.31121E-04



 n o d a l   p r i n t   o u t   f o r   t i m e  s t e p   17602                              ( at time 8.7996193E+00 )

 nodal point  x-disp     y-disp      z-disp      x-vel       y-vel       z-vel      x-accl      y-accl      z-accl      x-coor      y-coor      z-coor
    22626 -2.04506E-02-4.50406E-03-2.71816E+01-1.64471E-02 2.71452E-02-2.37248E+00 5.56700E-02-3.05641E-03 6.68748E-01 4.79437E+01-2.20343E+01-1.98431E+01



 n o d a l   p r i n t   o u t   f o r   t i m e  s t e p   17602                              ( at time 8.7996193E+00 )

 nodal point  x-rot      y-rot       z-rot       x-rot vel   y-rot vel   z-rot vel   x-rot acc   y-rot acc   z-rot acc
    22626  3.61447E-03 4.39866E-03 6.36686E-04 4.59043E-03 4.91600E-03 2.24474E-04 3.35568E-03 2.83572E-03 1.05593E-04



 n o d a l   p r i n t   o u t   f o r   t i m e  s t e p   17802                              ( at time 8.8996093E+00 )

 nodal point  x-disp     y-disp      z-disp      x-vel       y-vel       z-vel      x-accl      y-accl      z-accl      x-coor      y-coor      z-coor
    22626 -2.17795E-02-1.90729E-03-2.74152E+01-1.03259E-02 2.51127E-02-2.30185E+00 6.12182E-02-2.03263E-02 7.06334E-01 4.79424E+01-2.20317E+01-2.00767E+01



 n o d a l   p r i n t   o u t   f o r   t i m e  s t e p   17802                              ( at time 8.8996093E+00 )

 nodal point  x-rot      y-rot       z-rot       x-rot vel   y-rot vel   z-rot vel   x-rot acc   y-rot acc   z-rot acc
    22626  4.09060E-03 4.90353E-03 6.60422E-04 4.93227E-03 5.17428E-03 2.56741E-04 3.41875E-03 2.58308E-03 3.22698E-04



 n o d a l   p r i n t   o u t   f o r   t i m e  s t e p   18002                              ( at time 8.9995993E+00 )

 nodal point  x-disp     y-disp      z-disp      x-vel       y-vel       z-vel      x-accl      y-accl      z-accl      x-coor      y-coor      z-coor
    22626 -2.25115E-02 5.73139E-04-2.76419E+01-3.92334E-03 2.33128E-02-2.23129E+00 6.40320E-02-1.80016E-02 7.05716E-01 4.79417E+01-2.20292E+01-2.03034E+01



 n o d a l   p r i n t   o u t   f o r   t i m e  s t e p   18002                              ( at time 8.9995993E+00 )

 nodal point  x-rot      y-rot       z-rot       x-rot vel   y-rot vel   z-rot vel   x-rot acc   y-rot acc   z-rot acc
    22626  4.60097E-03 5.43209E-03 6.86747E-04 5.26881E-03 5.40617E-03 2.88641E-04 3.36577E-03 2.31915E-03 3.19033E-04



 n o d a l   p r i n t   o u t   f o r   t i m e  s t e p   18202                              ( at time 9.0995893E+00 )

 nodal point  x-disp     y-disp      z-disp      x-vel       y-vel       z-vel      x-accl      y-accl      z-accl      x-coor      y-coor      z-coor
    22626 -2.25451E-02 2.87672E-03-2.78614E+01 3.62576E-03 2.28411E-02-2.15766E+00 7.54987E-02-4.71688E-03 7.36352E-01 4.79416E+01-2.20269E+01-2.05229E+01



 n o d a l   p r i n t   o u t   f o r   t i m e  s t e p   18202                              ( at time 9.0995893E+00 )

 nodal point  x-rot      y-rot       z-rot       x-rot vel   y-rot vel   z-rot vel   x-rot acc   y-rot acc   z-rot acc
    22626  5.14405E-03 5.98376E-03 7.13761E-04 5.59629E-03 5.62271E-03 2.62848E-04 3.27515E-03 2.16559E-03-2.57951E-04



 n o d a l   p r i n t   o u t   f o r   t i m e  s t e p   18402                              ( at time 9.1995793E+00 )

 nodal point  x-disp     y-disp      z-disp      x-vel       y-vel       z-vel      x-accl      y-accl      z-accl      x-coor      y-coor      z-coor
    22626 -2.18134E-02 5.04051E-03-2.80734E+01 1.01908E-02 2.16407E-02-2.08213E+00 6.56565E-02-1.20050E-02 7.55386E-01 4.79424E+01-2.20247E+01-2.07349E+01



 n o d a l   p r i n t   o u t   f o r   t i m e  s t e p   18402                              ( at time 9.1995793E+00 )

 nodal point  x-rot      y-rot       z-rot       x-rot vel   y-rot vel   z-rot vel   x-rot acc   y-rot acc   z-rot acc
    22626  5.72084E-03 6.55540E-03 7.41196E-04 5.92502E-03 5.82216E-03 2.46194E-04 3.28757E-03 1.99475E-03-1.66560E-04



 n o d a l   p r i n t   o u t   f o r   t i m e  s t e p   18602                              ( at time 9.2995693E+00 )

 nodal point  x-disp     y-disp      z-disp      x-vel       y-vel       z-vel      x-accl      y-accl      z-accl      x-coor      y-coor      z-coor
    22626 -2.03182E-02 7.02810E-03-2.82777E+01 1.96536E-02 1.85563E-02-2.00645E+00 9.46378E-02-3.08476E-02 7.56803E-01 4.79439E+01-2.20228E+01-2.09392E+01



 n o d a l   p r i n t   o u t   f o r   t i m e  s t e p   18602                              ( at time 9.2995693E+00 )

 nodal point  x-rot      y-rot       z-rot       x-rot vel   y-rot vel   z-rot vel   x-rot acc   y-rot acc   z-rot acc
    22626  6.33010E-03 7.14656E-03 7.66861E-04 6.24398E-03 5.98146E-03 2.50041E-04 3.18996E-03 1.59317E-03 3.84803E-05



 n o d a l   p r i n t   o u t   f o r   t i m e  s t e p   18802                              ( at time 9.3995593E+00 )

 nodal point  x-disp     y-disp      z-disp      x-vel       y-vel       z-vel      x-accl      y-accl      z-accl      x-coor      y-coor      z-coor
    22626 -1.78874E-02 8.74638E-03-2.84744E+01 2.91758E-02 1.55955E-02-1.92732E+00 9.52316E-02-2.96110E-02 7.91413E-01 4.79463E+01-2.20210E+01-2.11359E+01



 n o d a l   p r i n t   o u t   f o r   t i m e  s t e p   18802                              ( at time 9.3995593E+00 )

 nodal point  x-rot      y-rot       z-rot       x-rot vel   y-rot vel   z-rot vel   x-rot acc   y-rot acc   z-rot acc
    22626  6.96898E-03 7.75368E-03 7.91660E-04 6.55474E-03 6.14931E-03 2.54490E-04 3.10792E-03 1.67865E-03 4.44874E-05



 n o d a l   p r i n t   o u t   f o r   t i m e  s t e p   19002                              ( at time 9.4995493E+00 )

 nodal point  x-disp     y-disp      z-disp      x-vel       y-vel       z-vel      x-accl      y-accl      z-accl      x-coor      y-coor      z-coor
    22626 -1.45336E-02 1.02284E-02-2.86631E+01 3.94351E-02 1.44289E-02-1.84641E+00 1.02604E-01-1.16674E-02 8.09165E-01 4.79496E+01-2.20196E+01-2.13246E+01



 n o d a l   p r i n t   o u t   f o r   t i m e  s t e p   19002                              ( at time 9.4995493E+00 )

 nodal point  x-rot      y-rot       z-rot       x-rot vel   y-rot vel   z-rot vel   x-rot acc   y-rot acc   z-rot acc
    22626  7.63840E-03 8.37436E-03 8.14835E-04 6.83829E-03 6.29324E-03 2.12978E-04 2.83577E-03 1.43943E-03-4.15164E-04



 n o d a l   p r i n t   o u t   f o r   t i m e  s t e p   19202                              ( at time 9.5995393E+00 )

 nodal point  x-disp     y-disp      z-disp      x-vel       y-vel       z-vel      x-accl      y-accl      z-accl      x-coor      y-coor      z-coor
    22626 -1.01161E-02 1.14608E-02-2.88438E+01 4.96130E-02 1.08219E-02-1.76782E+00 1.01788E-01-3.60726E-02 7.86052E-01 4.79541E+01-2.20183E+01-2.15053E+01



 n o d a l   p r i n t   o u t   f o r   t i m e  s t e p   19202                              ( at time 9.5995393E+00 )

 nodal point  x-rot      y-rot       z-rot       x-rot vel   y-rot vel   z-rot vel   x-rot acc   y-rot acc   z-rot acc
    22626  8.33612E-03 9.00741E-03 8.35135E-04 7.10931E-03 6.35982E-03 1.78214E-04 2.71045E-03 6.65817E-04-3.47670E-04



 n o d a l   p r i n t   o u t   f o r   t i m e  s t e p   19402                              ( at time 9.6995293E+00 )

 nodal point  x-disp     y-disp      z-disp      x-vel       y-vel       z-vel      x-accl      y-accl      z-accl      x-coor      y-coor      z-coor
    22626 -4.58304E-03 1.23297E-02-2.90163E+01 6.15404E-02 6.65716E-03-1.68320E+00 1.19286E-01-4.16520E-02 8.46216E-01 4.79596E+01-2.20175E+01-2.16778E+01



 n o d a l   p r i n t   o u t   f o r   t i m e  s t e p   19402                              ( at time 9.6995293E+00 )

 nodal point  x-rot      y-rot       z-rot       x-rot vel   y-rot vel   z-rot vel   x-rot acc   y-rot acc   z-rot acc
    22626  9.05999E-03 9.65029E-03 8.51923E-04 7.35069E-03 6.46615E-03 1.31682E-04 2.41410E-03 1.06347E-03-4.65363E-04



 n o d a l   p r i n t   o u t   f o r   t i m e  s t e p   19602                              ( at time 9.7995193E+00 )

 nodal point  x-disp     y-disp      z-disp      x-vel       y-vel       z-vel      x-accl      y-accl      z-accl      x-coor      y-coor      z-coor
    22626  2.17753E-03 1.27059E-02-2.91806E+01 7.27716E-02 1.40645E-03-1.60168E+00 1.12324E-01-5.25123E-02 8.15346E-01 4.79664E+01-2.20171E+01-2.18421E+01



 n o d a l   p r i n t   o u t   f o r   t i m e  s t e p   19602                              ( at time 9.7995193E+00 )

 nodal point  x-rot      y-rot       z-rot       x-rot vel   y-rot vel   z-rot vel   x-rot acc   y-rot acc   z-rot acc
    22626  9.80831E-03 1.03011E-02 8.64211E-04 7.60421E-03 6.56646E-03 1.22610E-04 2.53546E-03 1.00321E-03-9.07270E-05



 n o d a l   p r i n t   o u t   f o r   t i m e  s t e p   19802                              ( at time 9.8995093E+00 )

 nodal point  x-disp     y-disp      z-disp      x-vel       y-vel       z-vel      x-accl      y-accl      z-accl      x-coor      y-coor      z-coor
    22626  1.00328E-02 1.26360E-02-2.93366E+01 8.49675E-02-3.64754E-03-1.51844E+00 1.21971E-01-5.05451E-02 8.32473E-01 4.79742E+01-2.20172E+01-2.19981E+01



 n o d a l   p r i n t   o u t   f o r   t i m e  s t e p   19802                              ( at time 9.8995093E+00 )

 nodal point  x-rot      y-rot       z-rot       x-rot vel   y-rot vel   z-rot vel   x-rot acc   y-rot acc   z-rot acc
    22626  1.05800E-02 1.09610E-02 8.71565E-04 7.83891E-03 6.62829E-03 6.06842E-05 2.34719E-03 6.18279E-04-6.19325E-04



 n o d a l   p r i n t   o u t   f o r   t i m e  s t e p   20003                              ( at time 9.9999992E+00 )

 nodal point  x-disp     y-disp      z-disp      x-vel       y-vel       z-vel      x-accl      y-accl      z-accl      x-coor      y-coor      z-coor
[...]
    22626  1.96769E-01 1.17261E-01-2.08653E-02 1.83379E-02 6.68974E-03-4.44339E-03-1.66126E-04-2.50162E-04-1.23169E-04



 n o d a l   p r i n t   o u t   f o r   t i m e  s t e p   45205                              ( at time 2.2599738E+01 )

 nodal point  x-disp     y-disp      z-disp      x-vel       y-vel       z-vel      x-accl      y-accl      z-accl      x-coor      y-coor      z-coor
    22626  3.31416E+00-2.59609E+00-2.44314E+01 1.77397E-01-2.90272E-01 6.15074E-01 1.27709E-02 1.00833E-02 5.40842E-03 5.12783E+01-2.46259E+01-1.70929E+01



 n o d a l   p r i n t   o u t   f o r   t i m e  s t e p   45205                              ( at time 2.2599738E+01 )

 nodal point  x-rot      y-rot       z-rot       x-rot vel   y-rot vel   z-rot vel   x-rot acc   y-rot acc   z-rot acc
    22626  1.98601E-01 1.17928E-01-2.13096E-02 1.83047E-02 6.66125E-03-4.44085E-03-3.32308E-04-2.84936E-04 2.53389E-05



 n o d a l   p r i n t   o u t   f o r   t i m e  s t e p   45405                              ( at time 2.2699728E+01 )

 nodal point  x-disp     y-disp      z-disp      x-vel       y-vel       z-vel      x-accl      y-accl      z-accl      x-coor      y-coor      z-coor
    22626  3.33196E+00-2.62506E+00-2.43698E+01 1.78606E-01-2.89606E-01 6.16223E-01 1.20921E-02 6.66275E-03 1.14847E-02 5.12961E+01-2.46549E+01-1.70313E+01



 n o d a l   p r i n t   o u t   f o r   t i m e  s t e p   45405                              ( at time 2.2699728E+01 )

 nodal point  x-rot      y-rot       z-rot       x-rot vel   y-rot vel   z-rot vel   x-rot acc   y-rot acc   z-rot acc
    22626  2.00430E-01 1.18595E-01-2.17544E-02 1.82812E-02 6.65854E-03-4.44901E-03-2.34682E-04-2.71231E-05-8.15603E-05



 n o d a l   p r i n t   o u t   f o r   t i m e  s t e p   45605                              ( at time 2.2799718E+01 )

 nodal point  x-disp     y-disp      z-disp      x-vel       y-vel       z-vel      x-accl      y-accl      z-accl      x-coor      y-coor      z-coor
    22626  3.34988E+00-2.65400E+00-2.43082E+01 1.79700E-01-2.88903E-01 6.17112E-01 1.09419E-02 7.02445E-03 8.89740E-03 5.13141E+01-2.46838E+01-1.69697E+01



 n o d a l   p r i n t   o u t   f o r   t i m e  s t e p   45605                              ( at time 2.2799718E+01 )

 nodal point  x-rot      y-rot       z-rot       x-rot vel   y-rot vel   z-rot vel   x-rot acc   y-rot acc   z-rot acc
    22626  2.02257E-01 1.19259E-01-2.21988E-02 1.82578E-02 6.64355E-03-4.44219E-03-2.33690E-04-1.49919E-04 6.82023E-05



 n o d a l   p r i n t   o u t   f o r   t i m e  s t e p   45805                              ( at time 2.2899708E+01 )

 nodal point  x-disp     y-disp      z-disp      x-vel       y-vel       z-vel      x-accl      y-accl      z-accl      x-coor      y-coor      z-coor
    22626  3.36794E+00-2.68285E+00-2.42464E+01 1.81374E-01-2.87992E-01 6.18603E-01 1.67375E-02 9.11664E-03 1.49064E-02 5.13321E+01-2.47126E+01-1.69079E+01



 n o d a l   p r i n t   o u t   f o r   t i m e  s t e p   45805                              ( at time 2.2899708E+01 )

 nodal point  x-rot      y-rot       z-rot       x-rot vel   y-rot vel   z-rot vel   x-rot acc   y-rot acc   z-rot acc
    22626  2.04081E-01 1.19923E-01-2.26422E-02 1.82357E-02 6.64144E-03-4.43447E-03-2.21474E-04-2.11061E-05 7.71966E-05



 n o d a l   p r i n t   o u t   f o r   t i m e  s t e p   46005                              ( at time 2.2999698E+01 )

 nodal point  x-disp     y-disp      z-disp      x-vel       y-vel       z-vel      x-accl      y-accl      z-accl      x-coor      y-coor      z-coor
    22626  3.38611E+00-2.71164E+00-2.41845E+01 1.82256E-01-2.87634E-01 6.19033E-01 8.82200E-03 3.57690E-03 4.29908E-03 5.13503E+01-2.47414E+01-1.68460E+01



 n o d a l   p r i n t   o u t   f o r   t i m e  s t e p   46005                              ( at time 2.2999698E+01 )

 nodal point  x-rot      y-rot       z-rot       x-rot vel   y-rot vel   z-rot vel   x-rot acc   y-rot acc   z-rot acc
    22626  2.05904E-01 1.20587E-01-2.30854E-02 1.82217E-02 6.63217E-03-4.42325E-03-1.40307E-04-9.26425E-05 1.12211E-04



 n o d a l   p r i n t   o u t   f o r   t i m e  s t e p   46205                              ( at time 2.3099688E+01 )

 nodal point  x-disp     y-disp      z-disp      x-vel       y-vel       z-vel      x-accl      y-accl      z-accl      x-coor      y-coor      z-coor
    22626  3.40443E+00-2.74037E+00-2.41226E+01 1.83831E-01-2.87397E-01 6.20141E-01 1.57555E-02 2.37521E-03 1.10829E-02 5.13686E+01-2.47702E+01-1.67841E+01



 n o d a l   p r i n t   o u t   f o r   t i m e  s t e p   46205                              ( at time 2.3099688E+01 )

 nodal point  x-rot      y-rot       z-rot       x-rot vel   y-rot vel   z-rot vel   x-rot acc   y-rot acc   z-rot acc
    22626  2.07723E-01 1.21250E-01-2.35268E-02 1.81797E-02 6.63259E-03-4.39207E-03-4.19607E-04 4.17279E-06 3.11837E-04



 n o d a l   p r i n t   o u t   f o r   t i m e  s t e p   46405                              ( at time 2.3199678E+01 )

 nodal point  x-disp     y-disp      z-disp      x-vel       y-vel       z-vel      x-accl      y-accl      z-accl      x-coor      y-coor      z-coor
    22626  3.42286E+00-2.76907E+00-2.40605E+01 1.84871E-01-2.86230E-01 6.21072E-01 1.03993E-02 1.16696E-02 9.31408E-03 5.13870E+01-2.47989E+01-1.67220E+01



 n o d a l   p r i n t   o u t   f o r   t i m e  s t e p   46405                              ( at time 2.3199678E+01 )

 nodal point  x-rot      y-rot       z-rot       x-rot vel   y-rot vel   z-rot vel   x-rot acc   y-rot acc   z-rot acc
    22626  2.09540E-01 1.21914E-01-2.39659E-02 1.81558E-02 6.62888E-03-4.39335E-03-2.38664E-04-3.71585E-05-1.28022E-05



 n o d a l   p r i n t   o u t   f o r   t i m e  s t e p   46605                              ( at time 2.3299668E+01 )

 nodal point  x-disp     y-disp      z-disp      x-vel       y-vel       z-vel      x-accl      y-accl      z-accl      x-coor      y-coor      z-coor
    22626  3.44142E+00-2.79767E+00-2.39983E+01 1.86040E-01-2.85723E-01 6.23284E-01 1.16924E-02 5.06696E-03 2.21176E-02 5.14056E+01-2.48275E+01-1.66598E+01



 n o d a l   p r i n t   o u t   f o r   t i m e  s t e p   46605                              ( at time 2.3299668E+01 )

 nodal point  x-rot      y-rot       z-rot       x-rot vel   y-rot vel   z-rot vel   x-rot acc   y-rot acc   z-rot acc
    22626  2.11354E-01 1.22577E-01-2.44033E-02 1.81060E-02 6.64064E-03-4.36902E-03-4.98145E-04 1.17634E-04 2.43293E-04



 n o d a l   p r i n t   o u t   f o r   t i m e  s t e p   46805                              ( at time 2.3399658E+01 )

 nodal point  x-disp     y-disp      z-disp      x-vel       y-vel       z-vel      x-accl      y-accl      z-accl      x-coor      y-coor      z-coor
    22626  3.46007E+00-2.82619E+00-2.39360E+01 1.87157E-01-2.84640E-01 6.24447E-01 1.11630E-02 1.08338E-02 1.16359E-02 5.14242E+01-2.48560E+01-1.65975E+01



 n o d a l   p r i n t   o u t   f o r   t i m e  s t e p   46805                              ( at time 2.3399658E+01 )

 nodal point  x-rot      y-rot       z-rot       x-rot vel   y-rot vel   z-rot vel   x-rot acc   y-rot acc   z-rot acc
    22626  2.13161E-01 1.23241E-01-2.48380E-02 1.80511E-02 6.65287E-03-4.33190E-03-5.49009E-04 1.22373E-04 3.71278E-04



 n o d a l   p r i n t   o u t   f o r   t i m e  s t e p   47005                              ( at time 2.3499648E+01 )

 nodal point  x-disp     y-disp      z-disp      x-vel       y-vel       z-vel      x-accl      y-accl      z-accl      x-coor      y-coor      z-coor
    22626  3.47885E+00-2.85460E+00-2.38735E+01 1.88278E-01-2.84216E-01 6.25933E-01 1.12153E-02 4.23798E-03 1.48614E-02 5.14430E+01-2.48844E+01-1.65350E+01



 n o d a l   p r i n t   o u t   f o r   t i m e  s t e p   47005                              ( at time 2.3499648E+01 )

 nodal point  x-rot      y-rot       z-rot       x-rot vel   y-rot vel   z-rot vel   x-rot acc   y-rot acc   z-rot acc
    22626  2.14964E-01 1.23906E-01-2.52709E-02 1.80014E-02 6.65234E-03-4.31174E-03-4.97763E-04-5.31834E-06 2.01640E-04



 n o d a l   p r i n t   o u t   f o r   t i m e  s t e p   47205                              ( at time 2.3599638E+01 )

 nodal point  x-disp     y-disp      z-disp      x-vel       y-vel       z-vel      x-accl      y-accl      z-accl      x-coor      y-coor      z-coor
    22626  3.49776E+00-2.88297E+00-2.38107E+01 1.89647E-01-2.83221E-01 6.27707E-01 1.36873E-02 9.94971E-03 1.77391E-02 5.14619E+01-2.49128E+01-1.64722E+01



 n o d a l   p r i n t   o u t   f o r   t i m e  s t e p   47205                              ( at time 2.3599638E+01 )

 nodal point  x-rot      y-rot       z-rot       x-rot vel   y-rot vel   z-rot vel   x-rot acc   y-rot acc   z-rot acc
    22626  2.16761E-01 1.24572E-01-2.57012E-02 1.79499E-02 6.66607E-03-4.28573E-03-5.14799E-04 1.37311E-04 2.60077E-04



 n o d a l   p r i n t   o u t   f o r   t i m e  s t e p   47405                              ( at time 2.3699628E+01 )

 nodal point  x-disp     y-disp      z-disp      x-vel       y-vel       z-vel      x-accl      y-accl      z-accl      x-coor      y-coor      z-coor
    22626  3.51676E+00-2.91128E+00-2.37479E+01 1.90251E-01-2.83019E-01 6.28951E-01 6.04387E-03 2.02019E-03 1.24472E-02 5.14809E+01-2.49411E+01-1.64094E+01



 n o d a l   p r i n t   o u t   f o r   t i m e  s t e p   47405                              ( at time 2.3699628E+01 )

 nodal point  x-rot      y-rot       z-rot       x-rot vel   y-rot vel   z-rot vel   x-rot acc   y-rot acc   z-rot acc
    22626  2.18553E-01 1.25240E-01-2.61285E-02 1.79018E-02 6.67504E-03-4.26671E-03-4.81482E-04 8.97085E-05 1.90212E-04



 n o d a l   p r i n t   o u t   f o r   t i m e  s t e p   47605                              ( at time 2.3799618E+01 )

 nodal point  x-disp     y-disp      z-disp      x-vel       y-vel       z-vel      x-accl      y-accl      z-accl      x-coor      y-coor      z-coor
    22626  3.53585E+00-2.93958E+00-2.36850E+01 1.91523E-01-2.82809E-01 6.29863E-01 1.27218E-02 2.10040E-03 9.11873E-03 5.15000E+01-2.49694E+01-1.63465E+01



 n o d a l   p r i n t   o u t   f o r   t i m e  s t e p   47605                              ( at time 2.3799618E+01 )

 nodal point  x-rot      y-rot       z-rot       x-rot vel   y-rot vel   z-rot vel   x-rot acc   y-rot acc   z-rot acc
    22626  2.20340E-01 1.25908E-01-2.65541E-02 1.78401E-02 6.69321E-03-4.24401E-03-6.16939E-04 1.81693E-04 2.27007E-04



 n o d a l   p r i n t   o u t   f o r   t i m e  s t e p   47805                              ( at time 2.3899608E+01 )

 nodal point  x-disp     y-disp      z-disp      x-vel       y-vel       z-vel      x-accl      y-accl      z-accl      x-coor      y-coor      z-coor
    22626  3.55504E+00-2.96787E+00-2.36219E+01 1.92280E-01-2.82470E-01 6.32000E-01 7.57242E-03 3.38913E-03 2.13714E-02 5.15192E+01-2.49977E+01-1.62834E+01



 n o d a l   p r i n t   o u t   f o r   t i m e  s t e p   47805                              ( at time 2.3899608E+01 )

 nodal point  x-rot      y-rot       z-rot       x-rot vel   y-rot vel   z-rot vel   x-rot acc   y-rot acc   z-rot acc
    22626  2.22122E-01 1.26578E-01-2.69772E-02 1.78080E-02 6.71336E-03-4.21892E-03-3.20851E-04 2.01557E-04 2.50931E-04



 n o d a l   p r i n t   o u t   f o r   t i m e  s t e p   48005                              ( at time 2.3999598E+01 )

 nodal point  x-disp     y-disp      z-disp      x-vel       y-vel       z-vel      x-accl      y-accl      z-accl      x-coor      y-coor      z-coor
    22626  3.57432E+00-2.99614E+00-2.35587E+01 1.92690E-01-2.82843E-01 6.32571E-01 4.10006E-03-3.73047E-03 5.71314E-03 5.15385E+01-2.50259E+01-1.62202E+01



 n o d a l   p r i n t   o u t   f o r   t i m e  s t e p   48005                              ( at time 2.3999598E+01 )

 nodal point  x-rot      y-rot       z-rot       x-rot vel   y-rot vel   z-rot vel   x-rot acc   y-rot acc   z-rot acc
    22626  2.23900E-01 1.27249E-01-2.73981E-02 1.77441E-02 6.72240E-03-4.19981E-03-6.39051E-04 9.04228E-05 1.91138E-04



 n o d a l   p r i n t   o u t   f o r   t i m e  s t e p   48205                              ( at time 2.4099588E+01 )

 nodal point  x-disp     y-disp      z-disp      x-vel       y-vel       z-vel      x-accl      y-accl      z-accl      x-coor      y-coor      z-coor
    22626  3.59363E+00-3.02441E+00-2.34954E+01 1.93479E-01-2.82559E-01 6.33321E-01 7.88716E-03 2.83833E-03 7.50014E-03 5.15578E+01-2.50542E+01-1.61569E+01



 n o d a l   p r i n t   o u t   f o r   t i m e  s t e p   48205                              ( at time 2.4099588E+01 )

 nodal point  x-rot      y-rot       z-rot       x-rot vel   y-rot vel   z-rot vel   x-rot acc   y-rot acc   z-rot acc
    22626  2.25671E-01 1.27923E-01-2.78166E-02 1.76867E-02 6.73266E-03-4.17670E-03-5.73561E-04 1.02553E-04 2.31120E-04



 n o d a l   p r i n t   o u t   f o r   t i m e  s t e p   48405                              ( at time 2.4199578E+01 )

 nodal point  x-disp     y-disp      z-disp      x-vel       y-vel       z-vel      x-accl      y-accl      z-accl      x-coor      y-coor      z-coor
    22626  3.61302E+00-3.05265E+00-2.34320E+01 1.94362E-01-2.82693E-01 6.35441E-01 8.83006E-03-1.34036E-03 2.11942E-02 5.15772E+01-2.50824E+01-1.60935E+01



 n o d a l   p r i n t   o u t   f o r   t i m e  s t e p   48405                              ( at time 2.4199578E+01 )

 nodal point  x-rot      y-rot       z-rot       x-rot vel   y-rot vel   z-rot vel   x-rot acc   y-rot acc   z-rot acc
    22626  2.27437E-01 1.28597E-01-2.82339E-02 1.76386E-02 6.74928E-03-4.16079E-03-4.80932E-04 1.66250E-04 1.59171E-04



 n o d a l   p r i n t   o u t   f o r   t i m e  s t e p   48605                              ( at time 2.4299568E+01 )

 nodal point  x-disp     y-disp      z-disp      x-vel       y-vel       z-vel      x-accl      y-accl      z-accl      x-coor      y-coor      z-coor
    22626  3.63245E+00-3.08090E+00-2.33684E+01 1.94753E-01-2.82159E-01 6.37093E-01 3.91355E-03 5.34911E-03 1.65239E-02 5.15966E+01-2.51107E+01-1.60299E+01



 n o d a l   p r i n t   o u t   f o r   t i m e  s t e p   48605                              ( at time 2.4299568E+01 )

 nodal point  x-rot      y-rot       z-rot       x-rot vel   y-rot vel   z-rot vel   x-rot acc   y-rot acc   z-rot acc
    22626  2.29197E-01 1.29273E-01-2.86496E-02 1.75788E-02 6.76762E-03-4.15605E-03-5.98951E-04 1.83436E-04 4.73667E-05



 n o d a l   p r i n t   o u t   f o r   t i m e  s t e p   48805                              ( at time 2.4399558E+01 )

 nodal point  x-disp     y-disp      z-disp      x-vel       y-vel       z-vel      x-accl      y-accl      z-accl      x-coor      y-coor      z-coor
    22626  3.65193E+00-3.10909E+00-2.33046E+01 1.94737E-01-2.82031E-01 6.37595E-01-1.61990E-04 1.27625E-03 5.02155E-03 5.16161E+01-2.51389E+01-1.59661E+01



 n o d a l   p r i n t   o u t   f o r   t i m e  s t e p   48805                              ( at time 2.4399558E+01 )

 nodal point  x-rot      y-rot       z-rot       x-rot vel   y-rot vel   z-rot vel   x-rot acc   y-rot acc   z-rot acc
    22626  2.30952E-01 1.29950E-01-2.90646E-02 1.75195E-02 6.77103E-03-4.14716E-03-5.92264E-04 3.40756E-05 8.89262E-05



 n o d a l   p r i n t   o u t   f o r   t i m e  s t e p   49006                              ( at time 2.4500048E+01 )

 nodal point  x-disp     y-disp      z-disp      x-vel       y-vel       z-vel      x-accl      y-accl      z-accl      x-coor      y-coor      z-coor
    22626  3.67156E+00-3.13740E+00-2.32404E+01 1.95693E-01-2.81697E-01 6.39700E-01 9.51394E-03 3.31866E-03 2.09530E-02 5.16357E+01-2.51672E+01-1.59019E+01



 n o d a l   p r i n t   o u t   f o r   t i m e  s t e p   49006                              ( at time 2.4500048E+01 )

 nodal point  x-rot      y-rot       z-rot       x-rot vel   y-rot vel   z-rot vel   x-rot acc   y-rot acc   z-rot acc
    22626  2.32710E-01 1.30630E-01-2.94811E-02 1.74682E-02 6.78311E-03-4.14178E-03-5.10348E-04 1.20187E-04 5.35038E-05



 n o d a l   p r i n t   o u t   f o r   t i m e  s t e p   49206                              ( at time 2.4600038E+01 )

 nodal point  x-disp     y-disp      z-disp      x-vel       y-vel       z-vel      x-accl      y-accl      z-accl      x-coor      y-coor      z-coor
    22626  3.69114E+00-3.16553E+00-2.31764E+01 1.95789E-01-2.80681E-01 6.40159E-01 9.62256E-04 1.01707E-02 4.58521E-03 5.16553E+01-2.51953E+01-1.58379E+01



 n o d a l   p r i n t   o u t   f o r   t i m e  s t e p   49206                              ( at time 2.4600038E+01 )

 nodal point  x-rot      y-rot       z-rot       x-rot vel   y-rot vel   z-rot vel   x-rot acc   y-rot acc   z-rot acc
    22626  2.34455E-01 1.31308E-01-2.98953E-02 1.74298E-02 6.77817E-03-4.14559E-03-3.84839E-04-4.93739E-05-3.81086E-05



 n o d a l   p r i n t   o u t   f o r   t i m e  s t e p   49406                              ( at time 2.4700028E+01 )

 nodal point  x-disp     y-disp      z-disp      x-vel       y-vel       z-vel      x-accl      y-accl      z-accl      x-coor      y-coor      z-coor
    22626  3.71073E+00-3.19358E+00-2.31124E+01 1.96110E-01-2.80078E-01 6.40608E-01 3.21260E-03 6.02342E-03 4.48932E-03 5.16749E+01-2.52234E+01-1.57739E+01



 n o d a l   p r i n t   o u t   f o r   t i m e  s t e p   49406                              ( at time 2.4700028E+01 )

 nodal point  x-rot      y-rot       z-rot       x-rot vel   y-rot vel   z-rot vel   x-rot acc   y-rot acc   z-rot acc
    22626  2.36196E-01 1.31986E-01-3.03100E-02 1.73960E-02 6.77590E-03-4.14886E-03-3.37828E-04-2.26849E-05-3.26884E-05



 n o d a l   p r i n t   o u t   f o r   t i m e  s t e p   49606                              ( at time 2.4800018E+01 )

 nodal point  x-disp     y-disp      z-disp      x-vel       y-vel       z-vel      x-accl      y-accl      z-accl      x-coor      y-coor      z-coor
    22626  3.73037E+00-3.22152E+00-2.30483E+01 1.96414E-01-2.78936E-01 6.40999E-01 3.03356E-03 1.14189E-02 3.91102E-03 5.16945E+01-2.52513E+01-1.57098E+01



 n o d a l   p r i n t   o u t   f o r   t i m e  s t e p   49606                              ( at time 2.4800018E+01 )

 nodal point  x-rot      y-rot       z-rot       x-rot vel   y-rot vel   z-rot vel   x-rot acc   y-rot acc   z-rot acc
    22626  2.37934E-01 1.32663E-01-3.07254E-02 1.73633E-02 6.77238E-03-4.15278E-03-3.26440E-04-3.52165E-05-3.91936E-05



 n o d a l   p r i n t   o u t   f o r   t i m e  s t e p   49806                              ( at time 2.4900008E+01 )

 nodal point  x-disp     y-disp      z-disp      x-vel       y-vel       z-vel      x-accl      y-accl      z-accl      x-coor      y-coor      z-coor
    22626  3.75004E+00-3.24936E+00-2.29842E+01 1.96750E-01-2.77691E-01 6.41360E-01 3.36014E-03 1.24587E-02 3.61125E-03 5.17142E+01-2.52792E+01-1.56457E+01



 n o d a l   p r i n t   o u t   f o r   t i m e  s t e p   49806                              ( at time 2.4900008E+01 )

 nodal point  x-rot      y-rot       z-rot       x-rot vel   y-rot vel   z-rot vel   x-rot acc   y-rot acc   z-rot acc
    22626  2.39668E-01 1.33340E-01-3.11413E-02 1.73295E-02 6.76060E-03-4.16949E-03-3.38555E-04-1.17830E-04-1.67154E-04



 n o d a l   p r i n t   o u t   f o r   t i m e  s t e p   50006                              ( at time 2.4999998E+01 )

 nodal point  x-disp     y-disp      z-disp      x-vel       y-vel       z-vel      x-accl      y-accl      z-accl      x-coor      y-coor      z-coor
    22626  3.76974E+00-3.27705E+00-2.29201E+01 1.97046E-01-2.76570E-01 6.42120E-01 2.96516E-03 1.12043E-02 7.60208E-03 5.17339E+01-2.53068E+01-1.55816E+01



 n o d a l   p r i n t   o u t   f o r   t i m e  s t e p   50006                              ( at time 2.4999998E+01 )

 nodal point  x-rot      y-rot       z-rot       x-rot vel   y-rot vel   z-rot vel   x-rot acc   y-rot acc   z-rot acc
    22626  2.41400E-01 1.34015E-01-3.15585E-02 1.73046E-02 6.74627E-03-4.17597E-03-2.49189E-04-1.43339E-04-6.47887E-05
