 LSTC 50th% Full_FE H-III Dummy (Beta Version, February 17, 2019)        
                    ls-dyna smp s R16 R16.0_619_d222963 date 03/18/2025

{BEGIN LEGEND}
 Entity #        Title
    22626                                                                                     
{END LEGEND}




 n o d a l   p r i n t   o u t   f o r   t i m e  s t e p       1                              ( at time 0.0000000E+00 )

 nodal point  x-disp     y-disp      z-disp      x-vel       y-vel       z-vel      x-accl      y-accl      z-accl      x-coor      y-coor      z-coor
    22626  0.00000E+00 0.00000E+00 0.00000E+00 0.00000E+00 0.00000E+00-3.12000E+00 0.00000E+00 0.00000E+00 0.00000E+00 4.79642E+01-2.20298E+01 7.33850E+00



 n o d a l   p r i n t   o u t   f o r   t i m e  s t e p       1                              ( at time 0.0000000E+00 )

 nodal point  x-rot      y-rot       z-rot       x-rot vel   y-rot vel   z-rot vel   x-rot acc   y-rot acc   z-rot acc
    22626  0.00000E+00 0.00000E+00 0.00000E+00 0.00000E+00 0.00000E+00 0.00000E+00 0.00000E+00 0.00000E+00 0.00000E+00



 n o d a l   p r i n t   o u t   f o r   t i m e  s t e p     201                              ( at time 9.9989993E-02 )

 nodal point  x-disp     y-disp      z-disp      x-vel       y-vel       z-vel      x-accl      y-accl      z-accl      x-coor      y-coor      z-coor
    22626  8.34266E-07-4.04495E-06-3.12016E-01 4.76652E-05-4.96476E-04-3.12074E+00 4.76699E-04-4.96526E-03-7.42748E-03 4.79642E+01-2.20298E+01 7.02648E+00



 n o d a l   p r i n t   o u t   f o r   t i m e  s t e p     201                              ( at time 9.9989993E-02 )

 nodal point  x-rot      y-rot       z-rot       x-rot vel   y-rot vel   z-rot vel   x-rot acc   y-rot acc   z-rot acc
    22626  9.60522E-09 3.03987E-08 5.26976E-08 1.30731E-06 2.72171E-06 5.21179E-06 1.30744E-05 2.72198E-05 5.21231E-05



 n o d a l   p r i n t   o u t   f o r   t i m e  s t e p     401                              ( at time 1.9997999E-01 )

 nodal point  x-disp     y-disp      z-disp      x-vel       y-vel       z-vel      x-accl      y-accl      z-accl      x-coor      y-coor      z-coor
    22626 -5.12719E-05-5.21565E-04-6.23853E-01-1.09651E-03-1.11132E-02-3.11558E+00-1.14429E-02-1.06178E-01 5.16180E-02 4.79641E+01-2.20303E+01 6.71465E+00



 n o d a l   p r i n t   o u t   f o r   t i m e  s t e p     401                              ( at time 1.9997999E-01 )

 nodal point  x-rot      y-rot       z-rot       x-rot vel   y-rot vel   z-rot vel   x-rot acc   y-rot acc   z-rot acc
    22626  4.60312E-07 1.33000E-06 2.50244E-06 2.62625E-06 1.90451E-05 3.49449E-05 1.31907E-05 1.63251E-04 2.97361E-04



 n o d a l   p r i n t   o u t   f o r   t i m e  s t e p     601                              ( at time 2.9996998E-01 )

 nodal point  x-disp     y-disp      z-disp      x-vel       y-vel       z-vel      x-accl      y-accl      z-accl      x-coor      y-coor      z-coor
    22626 -2.45909E-05-1.97630E-03-9.35238E-01 1.66017E-03-1.60466E-02-3.11415E+00 2.75696E-02-4.93386E-02 1.43566E-02 4.79642E+01-2.20318E+01 6.40326E+00



 n o d a l   p r i n t   o u t   f o r   t i m e  s t e p     601                              ( at time 2.9996998E-01 )

 nodal point  x-rot      y-rot       z-rot       x-rot vel   y-rot vel   z-rot vel   x-rot acc   y-rot acc   z-rot acc
    22626  6.75104E-07 2.41165E-06 4.82826E-06 8.27229E-06 5.37773E-06 1.47480E-05 5.64660E-05-1.36688E-04-2.01989E-04



 n o d a l   p r i n t   o u t   f o r   t i m e  s t e p     801                              ( at time 3.9995997E-01 )

 nodal point  x-disp     y-disp      z-disp      x-vel       y-vel       z-vel      x-accl      y-accl      z-accl      x-coor      y-coor      z-coor
    22626  5.96035E-05-3.57372E-03-1.24663E+00 1.95095E-04-1.73819E-02-3.11354E+00-1.46523E-02-1.33547E-02 6.09220E-03 4.79642E+01-2.20334E+01 6.09187E+00



 n o d a l   p r i n t   o u t   f o r   t i m e  s t e p     801                              ( at time 3.9995997E-01 )

 nodal point  x-rot      y-rot       z-rot       x-rot vel   y-rot vel   z-rot vel   x-rot acc   y-rot acc   z-rot acc
    22626  1.58237E-06 3.68279E-06 6.68381E-06 6.26970E-06 2.42492E-05 3.82629E-05-2.00278E-05 1.88734E-04 2.35172E-04



 n o d a l   p r i n t   o u t   f o r   t i m e  s t e p    1001                              ( at time 4.9994997E-01 )

 nodal point  x-disp     y-disp      z-disp      x-vel       y-vel       z-vel      x-accl      y-accl      z-accl      x-coor      y-coor      z-coor
    22626  7.30516E-05-5.62987E-03-1.55782E+00 8.92368E-04-2.38296E-02-3.11087E+00 6.97343E-03-6.44833E-02 2.67151E-02 4.79643E+01-2.20354E+01 5.78068E+00



 n o d a l   p r i n t   o u t   f o r   t i m e  s t e p    1001                              ( at time 4.9994997E-01 )

 nodal point  x-rot      y-rot       z-rot       x-rot vel   y-rot vel   z-rot vel   x-rot acc   y-rot acc   z-rot acc
    22626  1.49751E-06 6.65874E-06 1.18536E-05-4.78436E-06 4.38945E-05 7.21811E-05-1.10552E-04 1.96472E-04 3.39216E-04



 n o d a l   p r i n t   o u t   f o r   t i m e  s t e p    1201                              ( at time 5.9993996E-01 )

 nodal point  x-disp     y-disp      z-disp      x-vel       y-vel       z-vel      x-accl      y-accl      z-accl      x-coor      y-coor      z-coor
    22626  5.32289E-05-8.13347E-03-1.86888E+00-5.63171E-04-2.60908E-02-3.11086E+00-1.45568E-02-2.26148E-02 5.72262E-05 4.79642E+01-2.20379E+01 5.46962E+00



 n o d a l   p r i n t   o u t   f o r   t i m e  s t e p    1201                              ( at time 5.9993996E-01 )

 nodal point  x-rot      y-rot       z-rot       x-rot vel   y-rot vel   z-rot vel   x-rot acc   y-rot acc   z-rot acc
    22626  1.27615E-06 9.90321E-06 1.77838E-05-2.00727E-06 2.65441E-05 5.33177E-05 2.77738E-05-1.73521E-04-1.88653E-04



 n o d a l   p r i n t   o u t   f o r   t i m e  s t e p    1401                              ( at time 6.9992995E-01 )

 nodal point  x-disp     y-disp      z-disp      x-vel       y-vel       z-vel      x-accl      y-accl      z-accl      x-coor      y-coor      z-coor
    22626  2.02314E-05-1.10129E-02-2.17977E+00 7.16420E-04-3.21981E-02-3.10773E+00 1.27972E-02-6.10786E-02 3.13313E-02 4.79642E+01-2.20408E+01 5.15873E+00



 n o d a l   p r i n t   o u t   f o r   t i m e  s t e p    1401                              ( at time 6.9992995E-01 )

 nodal point  x-rot      y-rot       z-rot       x-rot vel   y-rot vel   z-rot vel   x-rot acc   y-rot acc   z-rot acc
    22626  1.12390E-06 1.31200E-05 2.27886E-05-2.31577E-06 3.80006E-05 5.96424E-05-3.08537E-06 1.14577E-04 6.32539E-05



 n o d a l   p r i n t   o u t   f o r   t i m e  s t e p    1601                              ( at time 7.9991994E-01 )

 nodal point  x-disp     y-disp      z-disp      x-vel       y-vel       z-vel      x-accl      y-accl      z-accl      x-coor      y-coor      z-coor
    22626  1.33953E-04-1.45579E-02-2.49039E+00 1.37285E-03-3.67498E-02-3.10604E+00 6.56499E-03-4.55214E-02 1.68364E-02 4.79643E+01-2.20443E+01 4.84811E+00



 n o d a l   p r i n t   o u t   f o r   t i m e  s t e p    1601                              ( at time 7.9991994E-01 )

 nodal point  x-rot      y-rot       z-rot       x-rot vel   y-rot vel   z-rot vel   x-rot acc   y-rot acc   z-rot acc
    22626  1.04157E-06 1.72925E-05 2.98075E-05 3.14045E-06 4.92773E-05 7.71721E-05 5.45677E-05 1.12778E-04 1.75314E-04



 n o d a l   p r i n t   o u t   f o r   t i m e  s t e p    1801                              ( at time 8.9990994E-01 )

 nodal point  x-disp     y-disp      z-disp      x-vel       y-vel       z-vel      x-accl      y-accl      z-accl      x-coor      y-coor      z-coor
    22626  2.08645E-04-1.81923E-02-2.80105E+00-5.03648E-04-3.63300E-02-3.10748E+00-1.87669E-02 4.19830E-03-1.43733E-02 4.79644E+01-2.20480E+01 4.53745E+00



 n o d a l   p r i n t   o u t   f o r   t i m e  s t e p    1801                              ( at time 8.9990994E-01 )

 nodal point  x-rot      y-rot       z-rot       x-rot vel   y-rot vel   z-rot vel   x-rot acc   y-rot acc   z-rot acc
    22626  1.08320E-06 2.14632E-05 3.68952E-05-1.66681E-06 3.86170E-05 6.94751E-05-4.80774E-05-1.06614E-04-7.69772E-05



 n o d a l   p r i n t   o u t   f o r   t i m e  s t e p    2001                              ( at time 9.9989993E-01 )

 nodal point  x-disp     y-disp      z-disp      x-vel       y-vel       z-vel      x-accl      y-accl      z-accl      x-coor      y-coor      z-coor
    22626  1.11094E-04-2.18947E-02-3.11177E+00-8.14439E-04-3.82741E-02-3.10763E+00-3.10822E-03-1.94433E-02-1.51411E-03 4.79643E+01-2.20517E+01 4.22673E+00



 n o d a l   p r i n t   o u t   f o r   t i m e  s t e p    2001                              ( at time 9.9989993E-01 )

 nodal point  x-rot      y-rot       z-rot       x-rot vel   y-rot vel   z-rot vel   x-rot acc   y-rot acc   z-rot acc
    22626  9.48495E-07 2.57520E-05 4.42157E-05-5.28752E-07 4.70253E-05 8.73267E-05 1.13817E-05 8.40921E-05 1.78533E-04



 n o d a l   p r i n t   o u t   f o r   t i m e  s t e p    2201                              ( at time 1.0998899E+00 )

 nodal point  x-disp     y-disp      z-disp      x-vel       y-vel       z-vel      x-accl      y-accl      z-accl      x-coor      y-coor      z-coor
    22626  9.37170E-05-2.58289E-02-3.42249E+00-2.09155E-04-4.00929E-02-3.10723E+00 6.05345E-03-1.81901E-02 4.06068E-03 4.79643E+01-2.20556E+01 3.91602E+00



 n o d a l   p r i n t   o u t   f o r   t i m e  s t e p    2201                              ( at time 1.0998899E+00 )

 nodal point  x-rot      y-rot       z-rot       x-rot vel   y-rot vel   z-rot vel   x-rot acc   y-rot acc   z-rot acc
    22626  1.06373E-06 3.06268E-05 5.30055E-05 5.76662E-06 4.77232E-05 7.70961E-05 6.29600E-05 6.97936E-06-1.02316E-04



 n o d a l   p r i n t   o u t   f o r   t i m e  s t e p    2401                              ( at time 1.1998799E+00 )

 nodal point  x-disp     y-disp      z-disp      x-vel       y-vel       z-vel      x-accl      y-accl      z-accl      x-coor      y-coor      z-coor
    22626  1.36612E-04-2.98242E-02-3.73324E+00 7.34749E-04-3.95951E-02-3.10862E+00 9.43998E-03 4.97924E-03-1.39918E-02 4.79643E+01-2.20596E+01 3.60526E+00



 n o d a l   p r i n t   o u t   f o r   t i m e  s t e p    2401                              ( at time 1.1998799E+00 )

 nodal point  x-rot      y-rot       z-rot       x-rot vel   y-rot vel   z-rot vel   x-rot acc   y-rot acc   z-rot acc
    22626  1.51862E-06 3.49053E-05 6.00628E-05 5.65845E-06 4.13539E-05 6.80177E-05-1.08186E-06-6.36997E-05-9.07932E-05



 n o d a l   p r i n t   o u t   f o r   t i m e  s t e p    2601                              ( at time 1.2998699E+00 )

 nodal point  x-disp     y-disp      z-disp      x-vel       y-vel       z-vel      x-accl      y-accl      z-accl      x-coor      y-coor      z-coor
    22626  1.48256E-04-3.36409E-02-4.04419E+00-4.31702E-04-3.63342E-02-3.11148E+00-1.16657E-02 3.26120E-02-2.85940E-02 4.79643E+01-2.20634E+01 3.29431E+00



 n o d a l   p r i n t   o u t   f o r   t i m e  s t e p    2601                              ( at time 1.2998699E+00 )

 nodal point  x-rot      y-rot       z-rot       x-rot vel   y-rot vel   z-rot vel   x-rot acc   y-rot acc   z-rot acc
    22626  1.89254E-06 3.91416E-05 6.71379E-05-1.71960E-06 4.72891E-05 8.28001E-05-7.37878E-05 5.93578E-05 1.47839E-04



 n o d a l   p r i n t   o u t   f o r   t i m e  s t e p    2801                              ( at time 1.3998599E+00 )

 nodal point  x-disp     y-disp      z-disp      x-vel       y-vel       z-vel      x-accl      y-accl      z-accl      x-coor      y-coor      z-coor
    22626  3.42237E-05-3.70069E-02-4.35551E+00-1.30790E-03-3.11349E-02-3.11530E+00-8.76284E-03 5.19986E-02-3.81842E-02 4.79642E+01-2.20668E+01 2.98300E+00



 n o d a l   p r i n t   o u t   f o r   t i m e  s t e p    2801                              ( at time 1.3998599E+00 )

 nodal point  x-rot      y-rot       z-rot       x-rot vel   y-rot vel   z-rot vel   x-rot acc   y-rot acc   z-rot acc
    22626  1.53666E-06 4.37367E-05 7.53086E-05-3.63046E-06 4.66825E-05 7.68317E-05-1.91106E-05-6.06664E-06-5.96899E-05



 n o d a l   p r i n t   o u t   f o r   t i m e  s t e p    3001                              ( at time 1.4998499E+00 )

 nodal point  x-disp     y-disp      z-disp      x-vel       y-vel       z-vel      x-accl      y-accl      z-accl      x-coor      y-coor      z-coor
    22626 -7.56144E-05-4.00192E-02-4.66712E+00-4.96774E-04-2.94132E-02-3.11734E+00 8.11206E-03 1.72186E-02-2.03773E-02 4.79641E+01-2.20698E+01 2.67139E+00



 n o d a l   p r i n t   o u t   f o r   t i m e  s t e p    3001                              ( at time 1.4998499E+00 )

 nodal point  x-rot      y-rot       z-rot       x-rot vel   y-rot vel   z-rot vel   x-rot acc   y-rot acc   z-rot acc
    22626  1.25248E-06 4.78606E-05 8.22126E-05-5.82329E-07 3.42135E-05 6.12218E-05 3.04843E-05-1.24703E-04-1.56115E-04



 n o d a l   p r i n t   o u t   f o r   t i m e  s t e p    3201                              ( at time 1.5998399E+00 )

 nodal point  x-disp     y-disp      z-disp      x-vel       y-vel       z-vel      x-accl      y-accl      z-accl      x-coor      y-coor      z-coor
    22626 -1.23022E-04-4.28712E-02-4.97891E+00-6.96738E-04-2.70994E-02-3.11964E+00-1.99984E-03 2.31404E-02-2.29596E-02 4.79641E+01-2.20727E+01 2.35960E+00



 n o d a l   p r i n t   o u t   f o r   t i m e  s t e p    3201                              ( at time 1.5998399E+00 )

 nodal point  x-rot      y-rot       z-rot       x-rot vel   y-rot vel   z-rot vel   x-rot acc   y-rot acc   z-rot acc
    22626  1.06055E-06 5.11781E-05 8.75334E-05-2.68832E-07 3.54054E-05 5.28174E-05 3.13529E-06 1.19204E-05-8.40528E-05



 n o d a l   p r i n t   o u t   f o r   t i m e  s t e p    3401                              ( at time 1.6998299E+00 )

 nodal point  x-disp     y-disp      z-disp      x-vel       y-vel       z-vel      x-accl      y-accl      z-accl      x-coor      y-coor      z-coor
    22626 -2.10750E-04-4.53423E-02-5.29103E+00-1.12874E-03-2.19784E-02-3.12353E+00-4.32049E-03 5.12148E-02-3.89043E-02 4.79640E+01-2.20751E+01 2.04747E+00



 n o d a l   p r i n t   o u t   f o r   t i m e  s t e p    3401                              ( at time 1.6998299E+00 )

 nodal point  x-rot      y-rot       z-rot       x-rot vel   y-rot vel   z-rot vel   x-rot acc   y-rot acc   z-rot acc
    22626  9.78282E-07 5.45530E-05 9.30742E-05-2.55551E-06 3.29591E-05 5.33309E-05-2.28691E-05-2.44655E-05 5.13592E-06



 n o d a l   p r i n t   o u t   f o r   t i m e  s t e p    3601                              ( at time 1.7998199E+00 )

 nodal point  x-disp     y-disp      z-disp      x-vel       y-vel       z-vel      x-accl      y-accl      z-accl      x-coor      y-coor      z-coor
    22626 -3.13924E-04-4.72859E-02-5.60356E+00-1.34650E-03-1.72163E-02-3.12763E+00-2.17777E-03 4.76254E-02-4.10050E-02 4.79639E+01-2.20771E+01 1.73494E+00



 n o d a l   p r i n t   o u t   f o r   t i m e  s t e p    3601                              ( at time 1.7998199E+00 )

 nodal point  x-rot      y-rot       z-rot       x-rot vel   y-rot vel   z-rot vel   x-rot acc   y-rot acc   z-rot acc
    22626  9.71846E-07 5.76703E-05 9.83979E-05 1.17674E-06 2.50991E-05 4.83476E-05 3.73263E-05-7.86076E-05-4.98389E-05



 n o d a l   p r i n t   o u t   f o r   t i m e  s t e p    3801                              ( at time 1.8998099E+00 )

 nodal point  x-disp     y-disp      z-disp      x-vel       y-vel       z-vel      x-accl      y-accl      z-accl      x-coor      y-coor      z-coor
    22626 -5.04807E-04-4.88710E-02-5.91642E+00-2.22354E-03-1.46145E-02-3.13017E+00-8.77128E-03 2.60204E-02-2.54656E-02 4.79637E+01-2.20787E+01 1.42209E+00



 n o d a l   p r i n t   o u t   f o r   t i m e  s t e p    3801                              ( at time 1.8998099E+00 )

 nodal point  x-rot      y-rot       z-rot       x-rot vel   y-rot vel   z-rot vel   x-rot acc   y-rot acc   z-rot acc
    22626  8.96428E-07 5.99436E-05 1.02448E-04 3.45791E-06 1.97582E-05 3.42127E-05 2.28141E-05-5.34141E-05-1.41362E-04



 n o d a l   p r i n t   o u t   f o r   t i m e  s t e p    4001                              ( at time 1.9997999E+00 )

 nodal point  x-disp     y-disp      z-disp      x-vel       y-vel       z-vel      x-accl      y-accl      z-accl      x-coor      y-coor      z-coor
    22626 -6.82811E-04-5.02041E-02-6.22952E+00-1.71175E-03-1.22406E-02-3.13246E+00 5.11837E-03 2.37418E-02-2.29191E-02 4.79635E+01-2.20800E+01 1.10898E+00



 n o d a l   p r i n t   o u t   f o r   t i m e  s t e p    4001                              ( at time 1.9997999E+00 )

 nodal point  x-rot      y-rot       z-rot       x-rot vel   y-rot vel   z-rot vel   x-rot acc   y-rot acc   z-rot acc
    22626  1.27804E-06 6.16915E-05 1.05455E-04 5.10249E-06 1.77533E-05 2.73499E-05 1.64474E-05-2.00509E-05-6.86355E-05



 n o d a l   p r i n t   o u t   f o r   t i m e  s t e p    4201                              ( at time 2.0997899E+00 )

 nodal point  x-disp     y-disp      z-disp      x-vel       y-vel       z-vel      x-accl      y-accl      z-accl      x-coor      y-coor      z-coor
    22626 -8.57523E-04-5.12366E-02-6.54290E+00-1.92102E-03-8.56336E-03-3.13554E+00-2.09291E-03 3.67761E-02-3.08044E-02 4.79633E+01-2.20810E+01 7.95604E-01



 n o d a l   p r i n t   o u t   f o r   t i m e  s t e p    4201                              ( at time 2.0997899E+00 )

 nodal point  x-rot      y-rot       z-rot       x-rot vel   y-rot vel   z-rot vel   x-rot acc   y-rot acc   z-rot acc
    22626  1.75224E-06 6.27709E-05 1.07296E-04 8.61624E-07 7.86510E-06 9.27012E-06-4.24129E-05-9.88924E-05-1.80816E-04



 n o d a l   p r i n t   o u t   f o r   t i m e  s t e p    4401                              ( at time 2.1997798E+00 )

 nodal point  x-disp     y-disp      z-disp      x-vel       y-vel       z-vel      x-accl      y-accl      z-accl      x-coor      y-coor      z-coor
    22626 -1.10628E-03-5.18588E-02-6.85660E+00-2.85545E-03-3.76680E-03-3.13933E+00-9.34519E-03 4.79704E-02-3.78838E-02 4.79631E+01-2.20816E+01 4.81902E-01



 n o d a l   p r i n t   o u t   f o r   t i m e  s t e p    4401                              ( at time 2.1997798E+00 )

 nodal point  x-rot      y-rot       z-rot       x-rot vel   y-rot vel   z-rot vel   x-rot acc   y-rot acc   z-rot acc
    22626  1.78931E-06 6.32317E-05 1.08030E-04 9.01103E-07 2.73324E-06 5.13159E-06 3.94836E-07-5.13238E-05-4.13895E-05



 n o d a l   p r i n t   o u t   f o r   t i m e  s t e p    4601                              ( at time 2.2997698E+00 )

 nodal point  x-disp     y-disp      z-disp      x-vel       y-vel       z-vel      x-accl      y-accl      z-accl      x-coor      y-coor      z-coor
    22626 -1.42436E-03-5.19880E-02-7.17069E+00-3.61669E-03 5.64356E-04-3.14268E+00-7.61321E-03 4.33159E-02-3.34701E-02 4.79628E+01-2.20818E+01 1.67813E-01



 n o d a l   p r i n t   o u t   f o r   t i m e  s t e p    4601                              ( at time 2.2997698E+00 )

 nodal point  x-rot      y-rot       z-rot       x-rot vel   y-rot vel   z-rot vel   x-rot acc   y-rot acc   z-rot acc
    22626  1.60593E-06 6.34244E-05 1.08509E-04-2.47013E-06-4.72391E-06-4.38302E-06-3.37157E-05-7.45789E-05-9.51555E-05



 n o d a l   p r i n t   o u t   f o r   t i m e  s t e p    4801                              ( at time 2.3997598E+00 )

 nodal point  x-disp     y-disp      z-disp      x-vel       y-vel       z-vel      x-accl      y-accl      z-accl      x-coor      y-coor      z-coor
    22626 -1.80528E-03-5.18363E-02-7.48502E+00-3.76142E-03 2.47940E-03-3.14476E+00-1.44740E-03 1.91524E-02-2.08423E-02 4.79624E+01-2.20816E+01-1.46523E-01



 n o d a l   p r i n t   o u t   f o r   t i m e  s t e p    4801                              ( at time 2.3997598E+00 )

 nodal point  x-rot      y-rot       z-rot       x-rot vel   y-rot vel   z-rot vel   x-rot acc   y-rot acc   z-rot acc
    22626  1.28031E-06 6.26885E-05 1.06915E-04-3.60848E-06-1.09088E-05-2.50025E-05-1.13846E-05-6.18553E-05-2.06215E-04



 n o d a l   p r i n t   o u t   f o r   t i m e  s t e p    5001                              ( at time 2.4997498E+00 )

 nodal point  x-disp     y-disp      z-disp      x-vel       y-vel       z-vel      x-accl      y-accl      z-accl      x-coor      y-coor      z-coor
    22626 -2.21250E-03-5.14646E-02-7.79959E+00-4.37728E-03 5.60491E-03-3.14748E+00-6.15925E-03 3.12582E-02-2.72229E-02 4.79620E+01-2.20813E+01-4.61087E-01



 n o d a l   p r i n t   o u t   f o r   t i m e  s t e p    5001                              ( at time 2.4997498E+00 )

 nodal point  x-rot      y-rot       z-rot       x-rot vel   y-rot vel   z-rot vel   x-rot acc   y-rot acc   z-rot acc
    22626  1.06620E-06 6.09839E-05 1.03834E-04-1.59116E-06-2.16338E-05-4.04848E-05 2.01752E-05-1.07261E-04-1.54838E-04



 n o d a l   p r i n t   o u t   f o r   t i m e  s t e p    5201                              ( at time 2.5997398E+00 )

 nodal point  x-disp     y-disp      z-disp      x-vel       y-vel       z-vel      x-accl      y-accl      z-accl      x-coor      y-coor      z-coor
    22626 -2.70419E-03-5.06902E-02-8.11449E+00-5.44722E-03 9.82938E-03-3.15102E+00-1.07004E-02 4.22490E-02-3.53229E-02 4.79615E+01-2.20805E+01-7.75988E-01



 n o d a l   p r i n t   o u t   f o r   t i m e  s t e p    5201                              ( at time 2.5997398E+00 )

 nodal point  x-rot      y-rot       z-rot       x-rot vel   y-rot vel   z-rot vel   x-rot acc   y-rot acc   z-rot acc
    22626  9.30930E-07 5.84167E-05 9.92928E-05-2.16533E-06-3.07564E-05-5.33278E-05-5.74227E-06-9.12354E-05-1.28443E-04



 n o d a l   p r i n t   o u t   f o r   t i m e  s t e p    5401                              ( at time 2.6997298E+00 )

 nodal point  x-disp     y-disp      z-disp      x-vel       y-vel       z-vel      x-accl      y-accl      z-accl      x-coor      y-coor      z-coor
    22626 -3.29777E-03-4.95054E-02-8.42974E+00-6.65916E-03 1.34657E-02-3.15449E+00-1.21206E-02 3.63671E-02-3.47148E-02 4.79609E+01-2.20793E+01-1.09124E+00



 n o d a l   p r i n t   o u t   f o r   t i m e  s t e p    5401                              ( at time 2.6997298E+00 )

 nodal point  x-rot      y-rot       z-rot       x-rot vel   y-rot vel   z-rot vel   x-rot acc   y-rot acc   z-rot acc
    22626  8.86146E-07 5.52245E-05 9.37090E-05 7.47597E-07-3.64572E-05-5.82538E-05 2.91322E-05-5.70133E-05-4.92653E-05



 n o d a l   p r i n t   o u t   f o r   t i m e  s t e p    5601                              ( at time 2.7997198E+00 )

 nodal point  x-disp     y-disp      z-disp      x-vel       y-vel       z-vel      x-accl      y-accl      z-accl      x-coor      y-coor      z-coor
    22626 -4.03903E-03-4.80421E-02-8.74527E+00-7.97350E-03 1.54553E-02-3.15654E+00-1.31447E-02 1.98979E-02-2.05538E-02 4.79601E+01-2.20778E+01-1.40677E+00



 n o d a l   p r i n t   o u t   f o r   t i m e  s t e p    5601                              ( at time 2.7997198E+00 )

 nodal point  x-rot      y-rot       z-rot       x-rot vel   y-rot vel   z-rot vel   x-rot acc   y-rot acc   z-rot acc
    22626  1.01053E-06 5.08278E-05 8.64264E-05 2.93521E-06-5.30232E-05-9.13188E-05 2.18783E-05-1.65677E-04-3.30684E-04



 n o d a l   p r i n t   o u t   f o r   t i m e  s t e p    5801                              ( at time 2.8997098E+00 )

 nodal point  x-disp     y-disp      z-disp      x-vel       y-vel       z-vel      x-accl      y-accl      z-accl      x-coor      y-coor      z-coor
    22626 -4.84105E-03-4.64480E-02-9.06098E+00-8.13260E-03 1.64373E-02-3.15821E+00-1.59114E-03 9.82072E-03-1.66385E-02 4.79593E+01-2.20762E+01-1.72248E+00



 n o d a l   p r i n t   o u t   f o r   t i m e  s t e p    5801                              ( at time 2.8997098E+00 )

 nodal point  x-rot      y-rot       z-rot       x-rot vel   y-rot vel   z-rot vel   x-rot acc   y-rot acc   z-rot acc
    22626  1.52766E-06 4.48559E-05 7.63222E-05 6.42831E-06-6.25064E-05-1.07791E-04 3.49346E-05-9.48418E-05-1.64738E-04



 n o d a l   p r i n t   o u t   f o r   t i m e  s t e p    6001                              ( at time 2.9996998E+00 )

 nodal point  x-disp     y-disp      z-disp      x-vel       y-vel       z-vel      x-accl      y-accl      z-accl      x-coor      y-coor      z-coor
    22626 -5.69324E-03-4.46823E-02-9.37687E+00-9.13661E-03 1.89929E-02-3.16059E+00-1.00411E-02 2.55590E-02-2.38347E-02 4.79585E+01-2.20745E+01-2.03837E+00



 n o d a l   p r i n t   o u t   f o r   t i m e  s t e p    6001                              ( at time 2.9996998E+00 )

 nodal point  x-rot      y-rot       z-rot       x-rot vel   y-rot vel   z-rot vel   x-rot acc   y-rot acc   z-rot acc
    22626  2.13426E-06 3.84486E-05 6.56009E-05 4.13170E-06-6.65347E-05-1.12366E-04-2.29684E-05-4.02867E-05-4.57514E-05



 n o d a l   p r i n t   o u t   f o r   t i m e  s t e p    6201                              ( at time 3.0996898E+00 )

 nodal point  x-disp     y-disp      z-disp      x-vel       y-vel       z-vel      x-accl      y-accl      z-accl      x-coor      y-coor      z-coor
    22626 -6.69381E-03-4.26729E-02-9.69301E+00-1.07743E-02 2.07618E-02-3.16245E+00-1.63783E-02 1.76907E-02-1.85771E-02 4.79575E+01-2.20725E+01-2.35451E+00



 n o d a l   p r i n t   o u t   f o r   t i m e  s t e p    6201                              ( at time 3.0996898E+00 )

 nodal point  x-rot      y-rot       z-rot       x-rot vel   y-rot vel   z-rot vel   x-rot acc   y-rot acc   z-rot acc
    22626  2.48049E-06 3.15292E-05 5.38533E-05 2.45669E-06-7.15706E-05-1.24153E-04-1.67518E-05-5.03648E-05-1.17881E-04



 n o d a l   p r i n t   o u t   f o r   t i m e  s t e p    6401                              ( at time 3.1996798E+00 )

 nodal point  x-disp     y-disp      z-disp      x-vel       y-vel       z-vel      x-accl      y-accl      z-accl      x-coor      y-coor      z-coor
    22626 -7.80520E-03-4.06242E-02-1.00093E+01-1.13666E-02 1.98753E-02-3.16264E+00-5.92386E-03-8.86621E-03-1.91231E-03 4.79564E+01-2.20704E+01-2.67075E+00



 n o d a l   p r i n t   o u t   f o r   t i m e  s t e p    6401                              ( at time 3.1996798E+00 )

 nodal point  x-rot      y-rot       z-rot       x-rot vel   y-rot vel   z-rot vel   x-rot acc   y-rot acc   z-rot acc
    22626  2.93920E-06 2.37255E-05 4.10973E-05 6.63974E-06-8.49600E-05-1.35978E-04 4.18346E-05-1.33907E-04-1.18264E-04



 n o d a l   p r i n t   o u t   f o r   t i m e  s t e p    6601                              ( at time 3.2996698E+00 )

 nodal point  x-disp     y-disp      z-disp      x-vel       y-vel       z-vel      x-accl      y-accl      z-accl      x-coor      y-coor      z-coor
    22626 -8.96647E-03-3.87475E-02-1.03254E+01-1.19539E-02 1.76655E-02-3.16138E+00-5.87364E-03-2.21000E-02 1.26327E-02 4.79552E+01-2.20685E+01-2.98692E+00



 n o d a l   p r i n t   o u t   f o r   t i m e  s t e p    6601                              ( at time 3.2996698E+00 )

 nodal point  x-rot      y-rot       z-rot       x-rot vel   y-rot vel   z-rot vel   x-rot acc   y-rot acc   z-rot acc
    22626  3.99870E-06 1.47896E-05 2.72476E-05 1.67129E-05-9.49762E-05-1.41090E-04 1.00742E-04-1.00173E-04-5.11233E-05



 n o d a l   p r i n t   o u t   f o r   t i m e  s t e p    6801                              ( at time 3.3996598E+00 )

 nodal point  x-disp     y-disp      z-disp      x-vel       y-vel       z-vel      x-accl      y-accl      z-accl      x-coor      y-coor      z-coor
    22626 -1.02172E-02-3.70851E-02-1.06415E+01-1.29773E-02 1.55892E-02-3.15975E+00-1.02353E-02-2.07656E-02 1.62546E-02 4.79540E+01-2.20669E+01-3.30295E+00



 n o d a l   p r i n t   o u t   f o r   t i m e  s t e p    6801                              ( at time 3.3996598E+00 )

 nodal point  x-rot      y-rot       z-rot       x-rot vel   y-rot vel   z-rot vel   x-rot acc   y-rot acc   z-rot acc
    22626  6.76344E-06 4.93602E-06 1.33092E-05 3.54665E-05-1.02764E-04-1.37699E-04 1.87554E-04-7.78880E-05 3.39096E-05



 n o d a l   p r i n t   o u t   f o r   t i m e  s t e p    7001                              ( at time 3.4996498E+00 )

 nodal point  x-disp     y-disp      z-disp      x-vel       y-vel       z-vel      x-accl      y-accl      z-accl      x-coor      y-coor      z-coor
    22626 -1.15745E-02-3.56267E-02-1.09573E+01-1.42703E-02 1.34762E-02-3.15738E+00-1.29309E-02-2.11322E-02 2.37250E-02 4.79526E+01-2.20654E+01-3.61879E+00



 n o d a l   p r i n t   o u t   f o r   t i m e  s t e p    7001                              ( at time 3.4996498E+00 )

 nodal point  x-rot      y-rot       z-rot       x-rot vel   y-rot vel   z-rot vel   x-rot acc   y-rot acc   z-rot acc
    22626  1.19817E-05-5.94978E-06 3.60794E-07 6.93655E-05-1.17426E-04-1.24755E-04 3.39025E-04-1.46634E-04 1.29457E-04



 n o d a l   p r i n t   o u t   f o r   t i m e  s t e p    7201                              ( at time 3.5996397E+00 )

 nodal point  x-disp     y-disp      z-disp      x-vel       y-vel       z-vel      x-accl      y-accl      z-accl      x-coor      y-coor      z-coor
    22626 -1.30830E-02-3.44137E-02-1.12728E+01-1.56091E-02 1.04627E-02-3.15346E+00-1.33890E-02-3.01378E-02 3.91618E-02 4.79511E+01-2.20642E+01-3.93432E+00



 n o d a l   p r i n t   o u t   f o r   t i m e  s t e p    7201                              ( at time 3.5996397E+00 )

 nodal point  x-rot      y-rot       z-rot       x-rot vel   y-rot vel   z-rot vel   x-rot acc   y-rot acc   z-rot acc
    22626  2.10139E-05-1.86546E-05-1.12985E-05 1.15751E-04-1.35502E-04-1.03660E-04 4.63902E-04-1.80781E-04 2.10971E-04



 n o d a l   p r i n t   o u t   f o r   t i m e  s t e p    7401                              ( at time 3.6996297E+00 )

 nodal point  x-disp     y-disp      z-disp      x-vel       y-vel       z-vel      x-accl      y-accl      z-accl      x-coor      y-coor      z-coor
    22626 -1.47207E-02-3.35772E-02-1.15878E+01-1.71812E-02 6.08712E-03-3.14723E+00-1.57226E-02-4.37600E-02 6.23192E-02 4.79495E+01-2.20634E+01-4.24933E+00



 n o d a l   p r i n t   o u t   f o r   t i m e  s t e p    7401                              ( at time 3.6996297E+00 )

 nodal point  x-rot      y-rot       z-rot       x-rot vel   y-rot vel   z-rot vel   x-rot acc   y-rot acc   z-rot acc
    22626  3.53890E-05-3.32935E-05-2.07711E-05 1.73177E-04-1.58626E-04-8.42629E-05 5.74317E-04-2.31263E-04 1.93988E-04



 n o d a l   p r i n t   o u t   f o r   t i m e  s t e p    7601                              ( at time 3.7996197E+00 )

 nodal point  x-disp     y-disp      z-disp      x-vel       y-vel       z-vel      x-accl      y-accl      z-accl      x-coor      y-coor      z-coor
    22626 -1.65334E-02-3.31694E-02-1.19021E+01-1.91818E-02 2.07893E-03-3.13940E+00-2.00081E-02-4.00860E-02 7.83380E-02 4.79476E+01-2.20630E+01-4.56364E+00



 n o d a l   p r i n t   o u t   f o r   t i m e  s t e p    7601                              ( at time 3.7996197E+00 )

 nodal point  x-rot      y-rot       z-rot       x-rot vel   y-rot vel   z-rot vel   x-rot acc   y-rot acc   z-rot acc
    22626  5.64946E-05-5.06518E-05-2.75858E-05 2.54007E-04-1.87372E-04-4.41847E-05 8.08384E-04-2.87484E-04 4.00822E-04



 n o d a l   p r i n t   o u t   f o r   t i m e  s t e p    7801                              ( at time 3.8996097E+00 )

 nodal point  x-disp     y-disp      z-disp      x-vel       y-vel       z-vel      x-accl      y-accl      z-accl      x-coor      y-coor      z-coor
    22626 -1.85828E-02-3.31266E-02-1.22156E+01-2.18016E-02-1.14976E-03-3.12969E+00-2.62011E-02-3.22901E-02 9.70555E-02 4.79456E+01-2.20629E+01-4.87708E+00



 n o d a l   p r i n t   o u t   f o r   t i m e  s t e p    7801                              ( at time 3.8996097E+00 )

 nodal point  x-rot      y-rot       z-rot       x-rot vel   y-rot vel   z-rot vel   x-rot acc   y-rot acc   z-rot acc
    22626  8.71429E-05-7.12946E-05-2.93286E-05 3.61032E-04-2.23290E-04 1.49891E-05 1.07036E-03-3.59217E-04 5.91797E-04



 n o d a l   p r i n t   o u t   f o r   t i m e  s t e p    8001                              ( at time 3.9995997E+00 )

 nodal point  x-disp     y-disp      z-disp      x-vel       y-vel       z-vel      x-accl      y-accl      z-accl      x-coor      y-coor      z-coor
    22626 -2.09388E-02-3.33548E-02-1.25280E+01-2.54352E-02-3.71773E-03-3.11834E+00-3.63393E-02-2.56822E-02 1.13551E-01 4.79432E+01-2.20631E+01-5.18946E+00



 n o d a l   p r i n t   o u t   f o r   t i m e  s t e p    8001                              ( at time 3.9995997E+00 )

 nodal point  x-rot      y-rot       z-rot       x-rot vel   y-rot vel   z-rot vel   x-rot acc   y-rot acc   z-rot acc
    22626  1.30143E-04-9.62427E-05-2.49042E-05 4.95732E-04-2.73530E-04 7.20027E-05 1.34713E-03-5.02447E-04 5.70193E-04



 n o d a l   p r i n t   o u t   f o r   t i m e  s t e p    8201                              ( at time 4.0995897E+00 )

 nodal point  x-disp     y-disp      z-disp      x-vel       y-vel       z-vel      x-accl      y-accl      z-accl      x-coor      y-coor      z-coor
    22626 -2.36401E-02-3.39302E-02-1.28391E+01-2.85161E-02-8.17569E-03-3.10448E+00-3.08121E-02-4.45840E-02 1.38623E-01 4.79405E+01-2.20637E+01-5.50057E+00



 n o d a l   p r i n t   o u t   f o r   t i m e  s t e p    8201                              ( at time 4.0995897E+00 )

 nodal point  x-rot      y-rot       z-rot       x-rot vel   y-rot vel   z-rot vel   x-rot acc   y-rot acc   z-rot acc
    22626  1.87229E-04-1.26502E-04-1.41132E-05 6.37773E-04-3.23629E-04 1.43322E-04 1.42055E-03-5.01045E-04 7.13265E-04



 n o d a l   p r i n t   o u t   f o r   t i m e  s t e p    8401                              ( at time 4.1995797E+00 )

 nodal point  x-disp     y-disp      z-disp      x-vel       y-vel       z-vel      x-accl      y-accl      z-accl      x-coor      y-coor      z-coor
    22626 -2.66933E-02-3.49936E-02-1.31487E+01-3.25809E-02-1.30961E-02-3.08823E+00-4.06525E-02-4.92086E-02 1.62518E-01 4.79375E+01-2.20648E+01-5.81019E+00



 n o d a l   p r i n t   o u t   f o r   t i m e  s t e p    8401                              ( at time 4.1995797E+00 )

 nodal point  x-rot      y-rot       z-rot       x-rot vel   y-rot vel   z-rot vel   x-rot acc   y-rot acc   z-rot acc
    22626  2.59439E-04-1.61943E-04 4.98155E-06 8.11519E-04-3.84139E-04 2.39585E-04 1.73763E-03-6.05154E-04 9.62726E-04



 n o d a l   p r i n t   o u t   f o r   t i m e  s t e p    8601                              ( at time 4.2995697E+00 )

 nodal point  x-disp     y-disp      z-disp      x-vel       y-vel       z-vel      x-accl      y-accl      z-accl      x-coor      y-coor      z-coor
    22626 -3.01845E-02-3.65172E-02-1.34565E+01-3.71088E-02-1.72091E-02-3.06833E+00-4.52832E-02-4.11349E-02 1.99009E-01 4.79340E+01-2.20663E+01-6.11802E+00



 n o d a l   p r i n t   o u t   f o r   t i m e  s t e p    8601                              ( at time 4.2995697E+00 )

 nodal point  x-rot      y-rot       z-rot       x-rot vel   y-rot vel   z-rot vel   x-rot acc   y-rot acc   z-rot acc
    22626  3.51451E-04-2.04222E-04 3.42776E-05 1.02681E-03-4.55767E-04 3.45510E-04 2.15316E-03-7.16352E-04 1.05936E-03



 n o d a l   p r i n t   o u t   f o r   t i m e  s t e p    8801                              ( at time 4.3995597E+00 )

 nodal point  x-disp     y-disp      z-disp      x-vel       y-vel       z-vel      x-accl      y-accl      z-accl      x-coor      y-coor      z-coor
    22626 -3.41233E-02-3.83299E-02-1.37621E+01-4.17087E-02-1.94763E-02-3.04482E+00-4.60041E-02-2.26739E-02 2.35126E-01 4.79301E+01-2.20681E+01-6.42365E+00



 n o d a l   p r i n t   o u t   f o r   t i m e  s t e p    8801                              ( at time 4.3995597E+00 )

 nodal point  x-rot      y-rot       z-rot       x-rot vel   y-rot vel   z-rot vel   x-rot acc   y-rot acc   z-rot acc
    22626  4.66494E-04-2.52278E-04 7.39806E-05 1.27421E-03-4.92712E-04 4.39130E-04 2.47419E-03-3.69491E-04 9.36295E-04



 n o d a l   p r i n t   o u t   f o r   t i m e  s t e p    9001                              ( at time 4.4995497E+00 )

 nodal point  x-disp     y-disp      z-disp      x-vel       y-vel       z-vel      x-accl      y-accl      z-accl      x-coor      y-coor      z-coor
    22626 -3.85475E-02-4.04003E-02-1.40651E+01-4.66166E-02-2.25018E-02-3.01382E+00-4.90831E-02-3.02584E-02 3.10055E-01 4.79256E+01-2.20702E+01-6.72661E+00



 n o d a l   p r i n t   o u t   f o r   t i m e  s t e p    9001                              ( at time 4.4995497E+00 )

 nodal point  x-rot      y-rot       z-rot       x-rot vel   y-rot vel   z-rot vel   x-rot acc   y-rot acc   z-rot acc
    22626  6.08446E-04-3.01178E-04 1.23280E-04 1.56712E-03-4.73198E-04 5.27880E-04 2.92941E-03 1.95155E-04 8.87584E-04



 n o d a l   p r i n t   o u t   f o r   t i m e  s t e p    9201                              ( at time 4.5995397E+00 )

 nodal point  x-disp     y-disp      z-disp      x-vel       y-vel       z-vel      x-accl      y-accl      z-accl      x-coor      y-coor      z-coor
    22626 -4.34691E-02-4.27619E-02-1.43645E+01-5.12756E-02-2.48070E-02-2.97334E+00-4.65945E-02-2.30542E-02 4.04787E-01 4.79207E+01-2.20726E+01-7.02600E+00



 n o d a l   p r i n t   o u t   f o r   t i m e  s t e p    9201                              ( at time 4.5995397E+00 )

 nodal point  x-rot      y-rot       z-rot       x-rot vel   y-rot vel   z-rot vel   x-rot acc   y-rot acc   z-rot acc
    22626  7.83082E-04-3.45299E-04 1.80474E-04 1.93918E-03-3.99464E-04 6.10425E-04 3.72098E-03 7.37414E-04 8.25539E-04



 n o d a l   p r i n t   o u t   f o r   t i m e  s t e p    9401                              ( at time 4.6995297E+00 )

 nodal point  x-disp     y-disp      z-disp      x-vel       y-vel       z-vel      x-accl      y-accl      z-accl      x-coor      y-coor      z-coor
    22626 -4.87823E-02-4.51704E-02-1.46594E+01-5.52149E-02-2.25642E-02-2.92482E+00-3.93970E-02 2.24304E-02 4.85262E-01 4.79154E+01-2.20750E+01-7.32090E+00



 n o d a l   p r i n t   o u t   f o r   t i m e  s t e p    9401                              ( at time 4.6995297E+00 )

 nodal point  x-rot      y-rot       z-rot       x-rot vel   y-rot vel   z-rot vel   x-rot acc   y-rot acc   z-rot acc
    22626  9.99116E-04-3.78645E-04 2.44768E-04 2.39529E-03-2.67749E-04 6.71886E-04 4.56159E-03 1.31729E-03 6.14673E-04



 n o d a l   p r i n t   o u t   f o r   t i m e  s t e p    9601                              ( at time 4.7995197E+00 )

 nodal point  x-disp     y-disp      z-disp      x-vel       y-vel       z-vel      x-accl      y-accl      z-accl      x-coor      y-coor      z-coor
    22626 -5.44299E-02-4.73135E-02-1.49493E+01-5.75358E-02-1.95438E-02-2.87140E+00-2.32121E-02 3.02076E-02 5.34245E-01 4.79098E+01-2.20771E+01-7.61076E+00



 n o d a l   p r i n t   o u t   f o r   t i m e  s t e p    9601                              ( at time 4.7995197E+00 )

 nodal point  x-rot      y-rot       z-rot       x-rot vel   y-rot vel   z-rot vel   x-rot acc   y-rot acc   z-rot acc
    22626  1.26128E-03-3.95492E-04 3.14451E-04 2.85751E-03-6.47257E-05 7.16505E-04 4.62258E-03 2.03043E-03 4.46232E-04



 n o d a l   p r i n t   o u t   f o r   t i m e  s t e p    9801                              ( at time 4.8995097E+00 )

 nodal point  x-disp     y-disp      z-disp      x-vel       y-vel       z-vel      x-accl      y-accl      z-accl      x-coor      y-coor      z-coor
    22626 -6.02820E-02-4.91173E-02-1.52335E+01-5.78261E-02-1.50025E-02-2.81342E+00-2.90337E-03 4.54171E-02 5.79888E-01 4.79039E+01-2.20789E+01-7.89500E+00



 n o d a l   p r i n t   o u t   f o r   t i m e  s t e p    9801                              ( at time 4.8995097E+00 )

 nodal point  x-rot      y-rot       z-rot       x-rot vel   y-rot vel   z-rot vel   x-rot acc   y-rot acc   z-rot acc
    22626  1.57142E-03-3.89611E-04 3.86873E-04 3.37565E-03 1.55561E-04 7.14599E-04 5.18193E-03 2.20309E-03-1.90649E-05



 n o d a l   p r i n t   o u t   f o r   t i m e  s t e p   10001                              ( at time 4.9994997E+00 )

 nodal point  x-disp     y-disp      z-disp      x-vel       y-vel       z-vel      x-accl      y-accl      z-accl      x-coor      y-coor      z-coor
    22626 -6.59622E-02-5.04379E-02-1.55117E+01-5.52578E-02-9.92321E-03-2.75150E+00 2.56863E-02 5.07980E-02 6.19278E-01 4.78982E+01-2.20802E+01-8.17324E+00



 n o d a l   p r i n t   o u t   f o r   t i m e  s t e p   10001                              ( at time 4.9994997E+00 )

 nodal point  x-rot      y-rot       z-rot       x-rot vel   y-rot vel   z-rot vel   x-rot acc   y-rot acc   z-rot acc
    22626  1.93239E-03-3.59243E-04 4.58736E-04 3.88197E-03 4.21974E-04 6.95550E-04 5.06371E-03 2.66439E-03-1.90503E-04



 n o d a l   p r i n t   o u t   f o r   t i m e  s t e p   10202                              ( at time 5.0999896E+00 )

 nodal point  x-disp     y-disp      z-disp      x-vel       y-vel       z-vel      x-accl      y-accl      z-accl      x-coor      y-coor      z-coor
    22626 -7.12699E-02-5.13066E-02-1.57850E+01-5.01867E-02-5.89357E-03-2.68771E+00 5.04638E-02 4.01001E-02 6.34760E-01 4.78929E+01-2.20811E+01-8.44655E+00



 n o d a l   p r i n t   o u t   f o r   t i m e  s t e p   10202                              ( at time 5.0999896E+00 )

 nodal point  x-rot      y-rot       z-rot       x-rot vel   y-rot vel   z-rot vel   x-rot acc   y-rot acc   z-rot acc
    22626  2.34440E-03-2.99264E-04 5.29107E-04 4.32891E-03 7.56337E-04 6.71734E-04 4.44767E-03 3.32734E-03-2.37001E-04



 n o d a l   p r i n t   o u t   f o r   t i m e  s t e p   10402                              ( at time 5.1999796E+00 )

 nodal point  x-disp     y-disp      z-disp      x-vel       y-vel       z-vel      x-accl      y-accl      z-accl      x-coor      y-coor      z-coor
    22626 -7.59136E-02-5.16534E-02-1.60507E+01-4.15819E-02-1.22272E-03-2.62772E+00 8.60561E-02 4.67130E-02 5.99948E-01 4.78883E+01-2.20814E+01-8.71224E+00



 n o d a l   p r i n t   o u t   f o r   t i m e  s t e p   10402                              ( at time 5.1999796E+00 )

 nodal point  x-rot      y-rot       z-rot       x-rot vel   y-rot vel   z-rot vel   x-rot acc   y-rot acc   z-rot acc
    22626  2.79718E-03-2.07773E-04 5.93970E-04 4.70022E-03 1.06759E-03 6.03178E-04 3.71342E-03 3.11280E-03-6.85625E-04



 n o d a l   p r i n t   o u t   f o r   t i m e  s t e p   10602                              ( at time 5.2999696E+00 )

 nodal point  x-disp     y-disp      z-disp      x-vel       y-vel       z-vel      x-accl      y-accl      z-accl      x-coor      y-coor      z-coor
    22626 -7.96652E-02-5.14330E-02-1.63104E+01-3.26071E-02 3.95666E-03-2.56806E+00 8.97572E-02 5.17991E-02 5.96700E-01 4.78845E+01-2.20812E+01-8.97193E+00



 n o d a l   p r i n t   o u t   f o r   t i m e  s t e p   10602                              ( at time 5.2999696E+00 )

 nodal point  x-rot      y-rot       z-rot       x-rot vel   y-rot vel   z-rot vel   x-rot acc   y-rot acc   z-rot acc
    22626  3.28746E-03-8.14052E-05 6.50601E-04 5.05651E-03 1.43169E-03 5.21613E-04 3.56324E-03 3.64143E-03-8.15730E-04



 n o d a l   p r i n t   o u t   f o r   t i m e  s t e p   10802                              ( at time 5.3999596E+00 )

 nodal point  x-disp     y-disp      z-disp      x-vel       y-vel       z-vel      x-accl      y-accl      z-accl      x-coor      y-coor      z-coor
    22626 -8.22708E-02-5.06289E-02-1.65641E+01-2.06430E-02 9.38946E-03-2.50804E+00 1.19653E-01 5.43335E-02 6.00186E-01 4.78819E+01-2.20804E+01-9.22561E+00



 n o d a l   p r i n t   o u t   f o r   t i m e  s t e p   10802                              ( at time 5.3999596E+00 )

 nodal point  x-rot      y-rot       z-rot       x-rot vel   y-rot vel   z-rot vel   x-rot acc   y-rot acc   z-rot acc
    22626  3.81004E-03 8.02294E-05 6.98372E-04 5.34948E-03 1.80669E-03 4.45845E-04 2.93004E-03 3.75031E-03-7.57763E-04



 n o d a l   p r i n t   o u t   f o r   t i m e  s t e p   11002                              ( at time 5.4999496E+00 )

 nodal point  x-disp     y-disp      z-disp      x-vel       y-vel       z-vel      x-accl      y-accl      z-accl      x-coor      y-coor      z-coor
    22626 -8.35690E-02-4.93311E-02-1.68120E+01-5.12255E-03 1.54142E-02-2.45161E+00 1.55220E-01 6.02537E-02 5.64351E-01 4.78806E+01-2.20791E+01-9.47353E+00



 n o d a l   p r i n t   o u t   f o r   t i m e  s t e p   11002                              ( at time 5.4999496E+00 )

 nodal point  x-rot      y-rot       z-rot       x-rot vel   y-rot vel   z-rot vel   x-rot acc   y-rot acc   z-rot acc
    22626  4.35998E-03 2.76414E-04 7.37164E-04 5.60626E-03 2.16019E-03 3.44148E-04 2.56808E-03 3.53536E-03-1.01707E-03



 n o d a l   p r i n t   o u t   f o r   t i m e  s t e p   11202                              ( at time 5.5999396E+00 )

 nodal point  x-disp     y-disp      z-disp      x-vel       y-vel       z-vel      x-accl      y-accl      z-accl      x-coor      y-coor      z-coor
    22626 -8.32931E-02-4.74774E-02-1.70543E+01 1.10922E-02 2.16268E-02-2.39529E+00 1.62164E-01 6.21320E-02 5.63268E-01 4.78809E+01-2.20773E+01-9.71581E+00



 n o d a l   p r i n t   o u t   f o r   t i m e  s t e p   11202                              ( at time 5.5999396E+00 )

 nodal point  x-rot      y-rot       z-rot       x-rot vel   y-rot vel   z-rot vel   x-rot acc   y-rot acc   z-rot acc
    22626  4.93169E-03 5.08465E-04 7.64737E-04 5.82333E-03 2.49183E-03 2.17669E-04 2.17083E-03 3.31674E-03-1.26491E-03



 n o d a l   p r i n t   o u t   f o r   t i m e  s t e p   11402                              ( at time 5.6999296E+00 )

 nodal point  x-disp     y-disp      z-disp      x-vel       y-vel       z-vel      x-accl      y-accl      z-accl      x-coor      y-coor      z-coor
    22626 -8.13598E-02-4.50403E-02-1.72911E+01 2.71701E-02 2.80365E-02-2.34059E+00 1.60795E-01 6.41031E-02 5.47130E-01 4.78828E+01-2.20748E+01-9.95257E+00



 n o d a l   p r i n t   o u t   f o r   t i m e  s t e p   11402                              ( at time 5.6999296E+00 )

 nodal point  x-rot      y-rot       z-rot       x-rot vel   y-rot vel   z-rot vel   x-rot acc   y-rot acc   z-rot acc
    22626  5.52485E-03 7.74469E-04 7.83157E-04 6.02342E-03 2.82387E-03 1.13631E-04 2.00116E-03 3.32069E-03-1.04048E-03



 n o d a l   p r i n t   o u t   f o r   t i m e  s t e p   11602                              ( at time 5.7999195E+00 )

 nodal point  x-disp     y-disp      z-disp      x-vel       y-vel       z-vel      x-accl      y-accl      z-accl      x-coor      y-coor      z-coor
    22626 -7.77241E-02-4.19050E-02-1.75224E+01 4.41558E-02 3.39133E-02-2.28582E+00 1.69874E-01 5.87736E-02 5.47703E-01 4.78865E+01-2.20717E+01-1.01839E+01



 n o d a l   p r i n t   o u t   f o r   t i m e  s t e p   11602                              ( at time 5.7999195E+00 )

 nodal point  x-rot      y-rot       z-rot       x-rot vel   y-rot vel   z-rot vel   x-rot acc   y-rot acc   z-rot acc
    22626  6.13605E-03 1.07277E-03 7.89826E-04 6.18546E-03 3.14185E-03-7.93768E-06 1.62054E-03 3.18019E-03-1.21581E-03



 n o d a l   p r i n t   o u t   f o r   t i m e  s t e p   11802                              ( at time 5.8999095E+00 )

 nodal point  x-disp     y-disp      z-disp      x-vel       y-vel       z-vel      x-accl      y-accl      z-accl      x-coor      y-coor      z-coor
    22626 -7.22909E-02-3.83220E-02-1.77483E+01 6.34221E-02 3.84814E-02-2.23197E+00 1.92682E-01 4.56860E-02 5.38585E-01 4.78919E+01-2.20681E+01-1.04098E+01



 n o d a l   p r i n t   o u t   f o r   t i m e  s t e p   11802                              ( at time 5.8999095E+00 )

 nodal point  x-rot      y-rot       z-rot       x-rot vel   y-rot vel   z-rot vel   x-rot acc   y-rot acc   z-rot acc
    22626  6.76354E-03 1.40238E-03 7.84688E-04 6.37880E-03 3.44937E-03-1.02681E-04 1.93355E-03 3.07546E-03-9.47527E-04



 n o d a l   p r i n t   o u t   f o r   t i m e  s t e p   12002                              ( at time 5.9998995E+00 )

 nodal point  x-disp     y-disp      z-disp      x-vel       y-vel       z-vel      x-accl      y-accl      z-accl      x-coor      y-coor      z-coor
    22626 -6.51423E-02-3.42645E-02-1.79686E+01 8.10139E-02 4.29094E-02-2.17530E+00 1.75936E-01 4.42841E-02 5.66702E-01 4.78990E+01-2.20641E+01-1.06301E+01



 n o d a l   p r i n t   o u t   f o r   t i m e  s t e p   12002                              ( at time 5.9998995E+00 )

 nodal point  x-rot      y-rot       z-rot       x-rot vel   y-rot vel   z-rot vel   x-rot acc   y-rot acc   z-rot acc
    22626  7.40943E-03 1.76377E-03 7.68747E-04 6.57950E-03 3.75227E-03-2.12587E-04 2.00725E-03 3.02939E-03-1.09917E-03



 n o d a l   p r i n t   o u t   f o r   t i m e  s t e p   12202                              ( at time 6.0998895E+00 )

 nodal point  x-disp     y-disp      z-disp      x-vel       y-vel       z-vel      x-accl      y-accl      z-accl      x-coor      y-coor      z-coor
    22626 -5.62501E-02-2.95961E-02-1.81831E+01 9.76313E-02 4.90814E-02-2.11730E+00 1.66190E-01 6.17260E-02 5.80059E-01 4.79079E+01-2.20594E+01-1.08446E+01



 n o d a l   p r i n t   o u t   f o r   t i m e  s t e p   12202                              ( at time 6.0998895E+00 )

 nodal point  x-rot      y-rot       z-rot       x-rot vel   y-rot vel   z-rot vel   x-rot acc   y-rot acc   z-rot acc
    22626  8.07478E-03 2.15371E-03 7.39405E-04 6.74549E-03 4.03832E-03-3.44888E-04 1.66007E-03 2.86070E-03-1.32314E-03



 n o d a l   p r i n t   o u t   f o r   t i m e  s t e p   12402                              ( at time 6.1998795E+00 )

 nodal point  x-disp     y-disp      z-disp      x-vel       y-vel       z-vel      x-accl      y-accl      z-accl      x-coor      y-coor      z-coor
    22626 -4.58676E-02-2.45071E-02-1.83917E+01 1.10973E-01 5.36918E-02-2.05337E+00 1.33427E-01 4.61092E-02 6.39367E-01 4.79183E+01-2.20543E+01-1.10532E+01



 n o d a l   p r i n t   o u t   f o r   t i m e  s t e p   12402                              ( at time 6.1998795E+00 )

 nodal point  x-rot      y-rot       z-rot       x-rot vel   y-rot vel   z-rot vel   x-rot acc   y-rot acc   z-rot acc
    22626  8.75989E-03 2.57317E-03 6.97787E-04 6.96707E-03 4.35902E-03-4.97597E-04 2.21600E-03 3.20730E-03-1.52724E-03



 n o d a l   p r i n t   o u t   f o r   t i m e  s t e p   12602                              ( at time 6.2998695E+00 )

 nodal point  x-disp     y-disp      z-disp      x-vel       y-vel       z-vel      x-accl      y-accl      z-accl      x-coor      y-coor      z-coor
    22626 -3.39729E-02-1.89659E-02-1.85938E+01 1.25280E-01 5.83643E-02-1.98587E+00 1.43086E-01 4.67297E-02 6.75062E-01 4.79302E+01-2.20488E+01-1.12553E+01



 n o d a l   p r i n t   o u t   f o r   t i m e  s t e p   12602                              ( at time 6.2998695E+00 )

 nodal point  x-rot      y-rot       z-rot       x-rot vel   y-rot vel   z-rot vel   x-rot acc   y-rot acc   z-rot acc
    22626  9.47078E-03 3.02245E-03 6.41362E-04 7.25340E-03 4.63718E-03-6.36969E-04 2.86355E-03 2.78188E-03-1.39386E-03



 n o d a l   p r i n t   o u t   f o r   t i m e  s t e p   12802                              ( at time 6.3998595E+00 )

 nodal point  x-disp     y-disp      z-disp      x-vel       y-vel       z-vel      x-accl      y-accl      z-accl      x-coor      y-coor      z-coor
    22626 -2.07343E-02-1.29052E-02-1.87888E+01 1.38464E-01 6.22308E-02-1.91467E+00 1.31858E-01 3.86690E-02 7.12077E-01 4.79434E+01-2.20427E+01-1.14503E+01



 n o d a l   p r i n t   o u t   f o r   t i m e  s t e p   12802                              ( at time 6.3998595E+00 )

 nodal point  x-rot      y-rot       z-rot       x-rot vel   y-rot vel   z-rot vel   x-rot acc   y-rot acc   z-rot acc
    22626  1.02117E-02 3.50028E-03 5.70103E-04 7.57062E-03 4.90782E-03-7.61969E-04 3.17259E-03 2.70673E-03-1.25013E-03



 n o d a l   p r i n t   o u t   f o r   t i m e  s t e p   13002                              ( at time 6.4998495E+00 )

 nodal point  x-disp     y-disp      z-disp      x-vel       y-vel       z-vel      x-accl      y-accl      z-accl      x-coor      y-coor      z-coor
    22626 -6.26861E-03-6.48594E-03-1.89765E+01 1.49499E-01 6.58948E-02-1.83866E+00 1.10356E-01 3.66430E-02 7.60255E-01 4.79579E+01-2.20363E+01-1.16380E+01



 n o d a l   p r i n t   o u t   f o r   t i m e  s t e p   13002                              ( at time 6.4998495E+00 )

 nodal point  x-rot      y-rot       z-rot       x-rot vel   y-rot vel   z-rot vel   x-rot acc   y-rot acc   z-rot acc
    22626  1.09846E-02 4.00332E-03 4.86832E-04 7.89929E-03 5.15776E-03-8.84511E-04 3.28696E-03 2.49964E-03-1.22554E-03



 n o d a l   p r i n t   o u t   f o r   t i m e  s t e p   13202                              ( at time 6.5998395E+00 )

 nodal point  x-disp     y-disp      z-disp      x-vel       y-vel       z-vel      x-accl      y-accl      z-accl      x-coor      y-coor      z-coor
    22626  9.15032E-03 3.22851E-04-1.91565E+01 1.58512E-01 7.12692E-02-1.76135E+00 9.01398E-02 5.37494E-02 7.73135E-01 4.79733E+01-2.20295E+01-1.18180E+01



 n o d a l   p r i n t   o u t   f o r   t i m e  s t e p   13202                              ( at time 6.5998395E+00 )

 nodal point  x-rot      y-rot       z-rot       x-rot vel   y-rot vel   z-rot vel   x-rot acc   y-rot acc   z-rot acc
    22626  1.17960E-02 4.52965E-03 3.91355E-04 8.32745E-03 5.36051E-03-1.02259E-03 4.28207E-03 2.02766E-03-1.38096E-03



 n o d a l   p r i n t   o u t   f o r   t i m e  s t e p   13402                              ( at time 6.6998295E+00 )

 nodal point  x-disp     y-disp      z-disp      x-vel       y-vel       z-vel      x-accl      y-accl      z-accl      x-coor      y-coor      z-coor
    22626  2.52924E-02 7.59398E-03-1.93284E+01 1.64152E-01 7.34321E-02-1.67898E+00 5.64103E-02 2.16317E-02 8.23750E-01 4.79895E+01-2.20222E+01-1.19899E+01



 n o d a l   p r i n t   o u t   f o r   t i m e  s t e p   13402                              ( at time 6.6998295E+00 )

 nodal point  x-rot      y-rot       z-rot       x-rot vel   y-rot vel   z-rot vel   x-rot acc   y-rot acc   z-rot acc
    22626  1.26496E-02 5.07663E-03 2.84326E-04 8.72307E-03 5.55296E-03-1.12966E-03 3.95654E-03 1.92476E-03-1.07076E-03



 n o d a l   p r i n t   o u t   f o r   t i m e  s t e p   13602                              ( at time 6.7998195E+00 )

 nodal point  x-disp     y-disp      z-disp      x-vel       y-vel       z-vel      x-accl      y-accl      z-accl      x-coor      y-coor      z-coor
    22626  4.19328E-02 1.49817E-02-1.94920E+01 1.68432E-01 7.51639E-02-1.59285E+00 4.27990E-02 1.73194E-02 8.61443E-01 4.80061E+01-2.20148E+01-1.21535E+01



 n o d a l   p r i n t   o u t   f o r   t i m e  s t e p   13602                              ( at time 6.7998195E+00 )

 nodal point  x-rot      y-rot       z-rot       x-rot vel   y-rot vel   z-rot vel   x-rot acc   y-rot acc   z-rot acc
    22626  1.35453E-02 5.64430E-03 1.67570E-04 9.17810E-03 5.78239E-03-1.23654E-03 4.55083E-03 2.29448E-03-1.06888E-03



 n o d a l   p r i n t   o u t   f o r   t i m e  s t e p   13802                              ( at time 6.8998095E+00 )

 nodal point  x-disp     y-disp      z-disp      x-vel       y-vel       z-vel      x-accl      y-accl      z-accl      x-coor      y-coor      z-coor
    22626  5.88513E-02 2.25281E-02-1.96470E+01 1.71224E-01 7.58602E-02-1.50653E+00 2.79230E-02 6.96357E-03 8.63273E-01 4.80230E+01-2.20073E+01-1.23085E+01



 n o d a l   p r i n t   o u t   f o r   t i m e  s t e p   13802                              ( at time 6.8998095E+00 )

 nodal point  x-rot      y-rot       z-rot       x-rot vel   y-rot vel   z-rot vel   x-rot acc   y-rot acc   z-rot acc
    22626  1.44849E-02 6.23107E-03 4.08058E-05 9.61212E-03 5.95302E-03-1.31464E-03 4.34058E-03 1.70645E-03-7.81165E-04



 n o d a l   p r i n t   o u t   f o r   t i m e  s t e p   14002                              ( at time 6.9997995E+00 )

 nodal point  x-disp     y-disp      z-disp      x-vel       y-vel       z-vel      x-accl      y-accl      z-accl      x-coor      y-coor      z-coor
    22626  7.60231E-02 3.00504E-02-1.97933E+01 1.72400E-01 7.52175E-02-1.42045E+00 1.17655E-02-6.42722E-03 8.60884E-01 4.80402E+01-2.19997E+01-1.24548E+01



 n o d a l   p r i n t   o u t   f o r   t i m e  s t e p   14002                              ( at time 6.9997995E+00 )

 nodal point  x-rot      y-rot       z-rot       x-rot vel   y-rot vel   z-rot vel   x-rot acc   y-rot acc   z-rot acc
    22626  1.54665E-02 6.83371E-03-9.60915E-05 1.00280E-02 6.12594E-03-1.42088E-03 4.15962E-03 1.72938E-03-1.06249E-03



 n o d a l   p r i n t   o u t   f o r   t i m e  s t e p   14202                              ( at time 7.0997895E+00 )

 nodal point  x-disp     y-disp      z-disp      x-vel       y-vel       z-vel      x-accl      y-accl      z-accl      x-coor      y-coor      z-coor
    22626  9.32900E-02 3.74616E-02-1.99312E+01 1.73559E-01 7.24046E-02-1.33918E+00 1.15889E-02-2.81321E-02 8.12804E-01 4.80575E+01-2.19923E+01-1.25927E+01



 n o d a l   p r i n t   o u t   f o r   t i m e  s t e p   14202                              ( at time 7.0997895E+00 )

 nodal point  x-rot      y-rot       z-rot       x-rot vel   y-rot vel   z-rot vel   x-rot acc   y-rot acc   z-rot acc
    22626  1.64876E-02 7.45136E-03-2.41719E-04 1.03956E-02 6.25567E-03-1.50547E-03 3.67636E-03 1.29743E-03-8.45974E-04



 n o d a l   p r i n t   o u t   f o r   t i m e  s t e p   14402                              ( at time 7.1997794E+00 )

 nodal point  x-disp     y-disp      z-disp      x-vel       y-vel       z-vel      x-accl      y-accl      z-accl      x-coor      y-coor      z-coor
    22626  1.10680E-01 4.45797E-02-2.00611E+01 1.74898E-01 6.88245E-02-1.25964E+00 1.33936E-02-3.58049E-02 7.95409E-01 4.80749E+01-2.19852E+01-1.27225E+01



 n o d a l   p r i n t   o u t   f o r   t i m e  s t e p   14402                              ( at time 7.1997794E+00 )

 nodal point  x-rot      y-rot       z-rot       x-rot vel   y-rot vel   z-rot vel   x-rot acc   y-rot acc   z-rot acc
    22626  1.75452E-02 8.08332E-03-3.96648E-04 1.07484E-02 6.37686E-03-1.58275E-03 3.52800E-03 1.21203E-03-7.72858E-04



 n o d a l   p r i n t   o u t   f o r   t i m e  s t e p   14602                              ( at time 7.2997694E+00 )

 nodal point  x-disp     y-disp      z-disp      x-vel       y-vel       z-vel      x-accl      y-accl      z-accl      x-coor      y-coor      z-coor
    22626  1.28458E-01 5.12739E-02-2.01830E+01 1.79305E-01 6.49798E-02-1.18132E+00 4.40711E-02-3.84508E-02 7.83346E-01 4.80926E+01-2.19785E+01-1.28445E+01



 n o d a l   p r i n t   o u t   f o r   t i m e  s t e p   14602                              ( at time 7.2997694E+00 )

 nodal point  x-rot      y-rot       z-rot       x-rot vel   y-rot vel   z-rot vel   x-rot acc   y-rot acc   z-rot acc
    22626  1.86360E-02 8.72656E-03-5.60226E-04 1.10747E-02 6.49917E-03-1.69202E-03 3.26295E-03 1.22323E-03-1.09282E-03



 n o d a l   p r i n t   o u t   f o r   t i m e  s t e p   14802                              ( at time 7.3997594E+00 )

 nodal point  x-disp     y-disp      z-disp      x-vel       y-vel       z-vel      x-accl      y-accl      z-accl      x-coor      y-coor      z-coor
    22626  1.46581E-01 5.74709E-02-2.02975E+01 1.82483E-01 6.04573E-02-1.10811E+00 3.17786E-02-4.52296E-02 7.32111E-01 4.81108E+01-2.19723E+01-1.29590E+01



 n o d a l   p r i n t   o u t   f o r   t i m e  s t e p   14802                              ( at time 7.3997594E+00 )

 nodal point  x-rot      y-rot       z-rot       x-rot vel   y-rot vel   z-rot vel   x-rot acc   y-rot acc   z-rot acc
    22626  1.97593E-02 9.38060E-03-7.32788E-04 1.13697E-02 6.59168E-03-1.77071E-03 2.95092E-03 9.25246E-04-7.86982E-04



 n o d a l   p r i n t   o u t   f o r   t i m e  s t e p   15002                              ( at time 7.4997494E+00 )

 nodal point  x-disp     y-disp      z-disp      x-vel       y-vel       z-vel      x-accl      y-accl      z-accl      x-coor      y-coor      z-coor
    22626  1.65202E-01 6.32840E-02-2.04045E+01 1.88846E-01 5.48809E-02-1.03558E+00 6.36363E-02-5.57689E-02 7.25382E-01 4.81294E+01-2.19665E+01-1.30660E+01



 n o d a l   p r i n t   o u t   f o r   t i m e  s t e p   15002                              ( at time 7.4997494E+00 )

 nodal point  x-rot      y-rot       z-rot       x-rot vel   y-rot vel   z-rot vel   x-rot acc   y-rot acc   z-rot acc
    22626  2.09126E-02 1.00445E-02-9.14498E-04 1.16889E-02 6.65608E-03-1.86261E-03 3.19161E-03 6.44011E-04-9.19049E-04



 n o d a l   p r i n t   o u t   f o r   t i m e  s t e p   15202                              ( at time 7.5997394E+00 )

 nodal point  x-disp     y-disp      z-disp      x-vel       y-vel       z-vel      x-accl      y-accl      z-accl      x-coor      y-coor      z-coor
    22626  1.84531E-01 6.84783E-02-2.05043E+01 1.96799E-01 4.95821E-02-9.59988E-01 7.95469E-02-5.29934E-02 7.56014E-01 4.81487E+01-2.19613E+01-1.31658E+01



 n o d a l   p r i n t   o u t   f o r   t i m e  s t e p   15202                              ( at time 7.5997394E+00 )

 nodal point  x-rot      y-rot       z-rot       x-rot vel   y-rot vel   z-rot vel   x-rot acc   y-rot acc   z-rot acc
    22626  2.20968E-02 1.07169E-02-1.10588E-03 1.19847E-02 6.78253E-03-1.96716E-03 2.95852E-03 1.26466E-03-1.04567E-03



 n o d a l   p r i n t   o u t   f o r   t i m e  s t e p   15402                              ( at time 7.6997294E+00 )

 nodal point  x-disp     y-disp      z-disp      x-vel       y-vel       z-vel      x-accl      y-accl      z-accl      x-coor      y-coor      z-coor
    22626  2.04620E-01 7.30583E-02-2.05968E+01 2.05311E-01 4.39731E-02-8.89143E-01 8.51257E-02-5.60959E-02 7.08513E-01 4.81688E+01-2.19567E+01-1.32583E+01



 n o d a l   p r i n t   o u t   f o r   t i m e  s t e p   15402                              ( at time 7.6997294E+00 )

 nodal point  x-rot      y-rot       z-rot       x-rot vel   y-rot vel   z-rot vel   x-rot acc   y-rot acc   z-rot acc
    22626  2.33105E-02 1.13985E-02-1.30534E-03 1.22957E-02 6.88021E-03-2.03813E-03 3.11011E-03 9.76902E-04-7.09761E-04



 n o d a l   p r i n t   o u t   f o r   t i m e  s t e p   15602                              ( at time 7.7997194E+00 )

 nodal point  x-disp     y-disp      z-disp      x-vel       y-vel       z-vel      x-accl      y-accl      z-accl      x-coor      y-coor      z-coor
    22626  2.25626E-01 7.71618E-02-2.06822E+01 2.15822E-01 3.81246E-02-8.19148E-01 1.05120E-01-5.84911E-02 7.00021E-01 4.81898E+01-2.19526E+01-1.33437E+01



 n o d a l   p r i n t   o u t   f o r   t i m e  s t e p   15602                              ( at time 7.7997194E+00 )

 nodal point  x-rot      y-rot       z-rot       x-rot vel   y-rot vel   z-rot vel   x-rot acc   y-rot acc   z-rot acc
    22626  2.45533E-02 1.20906E-02-1.51371E-03 1.25796E-02 6.95730E-03-2.12318E-03 2.83951E-03 7.70948E-04-8.50572E-04



 n o d a l   p r i n t   o u t   f o r   t i m e  s t e p   15802                              ( at time 7.8997094E+00 )

 nodal point  x-disp     y-disp      z-disp      x-vel       y-vel       z-vel      x-accl      y-accl      z-accl      x-coor      y-coor      z-coor
    22626  2.47741E-01 8.07521E-02-2.07604E+01 2.27025E-01 3.43100E-02-7.48144E-01 1.12039E-01-3.81494E-02 7.10115E-01 4.82119E+01-2.19490E+01-1.34219E+01



 n o d a l   p r i n t   o u t   f o r   t i m e  s t e p   15802                              ( at time 7.8997094E+00 )

 nodal point  x-rot      y-rot       z-rot       x-rot vel   y-rot vel   z-rot vel   x-rot acc   y-rot acc   z-rot acc
    22626  2.58263E-02 1.27937E-02-1.73011E-03 1.29104E-02 7.06851E-03-2.21851E-03 3.30846E-03 1.11226E-03-9.53421E-04



 n o d a l   p r i n t   o u t   f o r   t i m e  s t e p   16002                              ( at time 7.9996994E+00 )

 nodal point  x-disp     y-disp      z-disp      x-vel       y-vel       z-vel      x-accl      y-accl      z-accl      x-coor      y-coor      z-coor
    22626  2.71041E-01 8.39613E-02-2.08316E+01 2.39423E-01 2.87709E-02-6.75941E-01 1.23988E-01-5.53969E-02 7.22101E-01 4.82352E+01-2.19458E+01-1.34931E+01



 n o d a l   p r i n t   o u t   f o r   t i m e  s t e p   16002                              ( at time 7.9996994E+00 )

 nodal point  x-rot      y-rot       z-rot       x-rot vel   y-rot vel   z-rot vel   x-rot acc   y-rot acc   z-rot acc
    22626  2.71293E-02 1.35083E-02-1.95366E-03 1.31463E-02 7.21726E-03-2.27373E-03 2.35903E-03 1.48760E-03-5.52230E-04



 n o d a l   p r i n t   o u t   f o r   t i m e  s t e p   16202                              ( at time 8.0996894E+00 )

 nodal point  x-disp     y-disp      z-disp      x-vel       y-vel       z-vel      x-accl      y-accl      z-accl      x-coor      y-coor      z-coor
    22626  2.95652E-01 8.64804E-02-2.08955E+01 2.53252E-01 2.32653E-02-6.00650E-01 1.38312E-01-5.50613E-02 7.52988E-01 4.82598E+01-2.19433E+01-1.35570E+01



 n o d a l   p r i n t   o u t   f o r   t i m e  s t e p   16202                              ( at time 8.0996894E+00 )

 nodal point  x-rot      y-rot       z-rot       x-rot vel   y-rot vel   z-rot vel   x-rot acc   y-rot acc   z-rot acc
    22626  2.84585E-02 1.42375E-02-2.18374E-03 1.34659E-02 7.38104E-03-2.34716E-03 3.19640E-03 1.63795E-03-7.34401E-04



 n o d a l   p r i n t   o u t   f o r   t i m e  s t e p   16402                              ( at time 8.1996794E+00 )

 nodal point  x-disp     y-disp      z-disp      x-vel       y-vel       z-vel      x-accl      y-accl      z-accl      x-coor      y-coor      z-coor
    22626  3.21638E-01 8.88068E-02-2.09522E+01 2.67931E-01 2.19237E-02-5.32817E-01 1.46805E-01-1.34175E-02 6.78394E-01 4.82858E+01-2.19410E+01-1.36137E+01



 n o d a l   p r i n t   o u t   f o r   t i m e  s t e p   16402                              ( at time 8.1996794E+00 )

 nodal point  x-rot      y-rot       z-rot       x-rot vel   y-rot vel   z-rot vel   x-rot acc   y-rot acc   z-rot acc
    22626  2.98232E-02 1.49797E-02-2.42180E-03 1.37977E-02 7.49165E-03-2.41322E-03 3.31827E-03 1.10626E-03-6.60591E-04



 n o d a l   p r i n t   o u t   f o r   t i m e  s t e p   16602                              ( at time 8.2996694E+00 )

 nodal point  x-disp     y-disp      z-disp      x-vel       y-vel       z-vel      x-accl      y-accl      z-accl      x-coor      y-coor      z-coor
    22626  3.49185E-01 9.06503E-02-2.10018E+01 2.83641E-01 1.31522E-02-4.61799E-01 1.57109E-01-8.77236E-02 7.10251E-01 4.83134E+01-2.19391E+01-1.36633E+01



 n o d a l   p r i n t   o u t   f o r   t i m e  s t e p   16602                              ( at time 8.2996694E+00 )

 nodal point  x-rot      y-rot       z-rot       x-rot vel   y-rot vel   z-rot vel   x-rot acc   y-rot acc   z-rot acc
    22626  3.12130E-02 1.57382E-02-2.66517E-03 1.40222E-02 7.65047E-03-2.45833E-03 2.24579E-03 1.58835E-03-4.51209E-04



 n o d a l   p r i n t   o u t   f o r   t i m e  s t e p   16802                              ( at time 8.3996594E+00 )

 nodal point  x-disp     y-disp      z-disp      x-vel       y-vel       z-vel      x-accl      y-accl      z-accl      x-coor      y-coor      z-coor
    22626  3.78318E-01 9.19449E-02-2.10442E+01 2.98447E-01 1.31827E-02-3.88493E-01 1.48077E-01 3.04676E-04 7.33134E-01 4.83425E+01-2.19378E+01-1.37057E+01



 n o d a l   p r i n t   o u t   f o r   t i m e  s t e p   16802                              ( at time 8.3996594E+00 )

 nodal point  x-rot      y-rot       z-rot       x-rot vel   y-rot vel   z-rot vel   x-rot acc   y-rot acc   z-rot acc
    22626  3.26333E-02 1.65128E-02-2.91447E-03 1.43812E-02 7.83534E-03-2.52349E-03 3.58961E-03 1.84889E-03-6.51659E-04



 n o d a l   p r i n t   o u t   f o r   t i m e  s t e p   17002                              ( at time 8.4996494E+00 )

 nodal point  x-disp     y-disp      z-disp      x-vel       y-vel       z-vel      x-accl      y-accl      z-accl      x-coor      y-coor      z-coor
    22626  4.09001E-01 9.32356E-02-2.10798E+01 3.16882E-01 1.05380E-02-3.21611E-01 1.84372E-01-2.64493E-02 6.68885E-01 4.83732E+01-2.19366E+01-1.37413E+01



 n o d a l   p r i n t   o u t   f o r   t i m e  s t e p   17002                              ( at time 8.4996494E+00 )

 nodal point  x-rot      y-rot       z-rot       x-rot vel   y-rot vel   z-rot vel   x-rot acc   y-rot acc   z-rot acc
    22626  3.40881E-02 1.73061E-02-3.17028E-03 1.46272E-02 8.05607E-03-2.57517E-03 2.46078E-03 2.20749E-03-5.16806E-04



 n o d a l   p r i n t   o u t   f o r   t i m e  s t e p   17202                              ( at time 8.5996394E+00 )

 nodal point  x-disp     y-disp      z-disp      x-vel       y-vel       z-vel      x-accl      y-accl      z-accl      x-coor      y-coor      z-coor
    22626  4.41711E-01 9.35392E-02-2.11083E+01 3.34850E-01 1.92386E-03-2.48594E-01 1.79691E-01-8.61501E-02 7.30245E-01 4.84059E+01-2.19363E+01-1.37698E+01



 n o d a l   p r i n t   o u t   f o r   t i m e  s t e p   17202                              ( at time 8.5996394E+00 )

 nodal point  x-rot      y-rot       z-rot       x-rot vel   y-rot vel   z-rot vel   x-rot acc   y-rot acc   z-rot acc
    22626  3.55616E-02 1.81212E-02-3.42823E-03 1.49318E-02 8.21986E-03-2.62614E-03 3.04587E-03 1.63804E-03-5.09792E-04



 n o d a l   p r i n t   o u t   f o r   t i m e  s t e p   17402                              ( at time 8.6996293E+00 )

 nodal point  x-disp     y-disp      z-disp      x-vel       y-vel       z-vel      x-accl      y-accl      z-accl      x-coor      y-coor      z-coor
    22626  4.76093E-01 9.39675E-02-2.11303E+01 3.50804E-01 3.87512E-03-1.90400E-01 1.59558E-01 1.95144E-02 5.82002E-01 4.84403E+01-2.19358E+01-1.37918E+01



 n o d a l   p r i n t   o u t   f o r   t i m e  s t e p   17402                              ( at time 8.6996293E+00 )

 nodal point  x-rot      y-rot       z-rot       x-rot vel   y-rot vel   z-rot vel   x-rot acc   y-rot acc   z-rot acc
    22626  3.70737E-02 1.89530E-02-3.69550E-03 1.52540E-02 8.45797E-03-2.67004E-03 3.22286E-03 2.38138E-03-4.39075E-04



 n o d a l   p r i n t   o u t   f o r   t i m e  s t e p   17602                              ( at time 8.7996193E+00 )

 nodal point  x-disp     y-disp      z-disp      x-vel       y-vel       z-vel      x-accl      y-accl      z-accl      x-coor      y-coor      z-coor
    22626  5.12207E-01 9.37828E-02-2.11459E+01 3.70830E-01-6.68017E-03-1.25832E-01 2.00279E-01-1.05564E-01 6.45743E-01 4.84764E+01-2.19360E+01-1.38074E+01



 n o d a l   p r i n t   o u t   f o r   t i m e  s t e p   17602                              ( at time 8.7996193E+00 )

 nodal point  x-rot      y-rot       z-rot       x-rot vel   y-rot vel   z-rot vel   x-rot acc   y-rot acc   z-rot acc
    22626  3.86005E-02 1.98098E-02-3.96289E-03 1.53818E-02 8.67020E-03-2.70893E-03 1.27796E-03 2.12248E-03-3.88904E-04



 n o d a l   p r i n t   o u t   f o r   t i m e  s t e p   17802                              ( at time 8.8996093E+00 )

 nodal point  x-disp     y-disp      z-disp      x-vel       y-vel       z-vel      x-accl      y-accl      z-accl      x-coor      y-coor      z-coor
    22626  5.50171E-01 9.32069E-02-2.11557E+01 3.86210E-01-1.47679E-03-6.99621E-02 1.53814E-01 5.20391E-02 5.58753E-01 4.85144E+01-2.19366E+01-1.38172E+01



 n o d a l   p r i n t   o u t   f o r   t i m e  s t e p   17802                              ( at time 8.8996093E+00 )

 nodal point  x-rot      y-rot       z-rot       x-rot vel   y-rot vel   z-rot vel   x-rot acc   y-rot acc   z-rot acc
    22626  4.01607E-02 2.06853E-02-4.23856E-03 1.58046E-02 8.86681E-03-2.81262E-03 4.22816E-03 1.96635E-03-1.03700E-03



 n o d a l   p r i n t   o u t   f o r   t i m e  s t e p   18002                              ( at time 8.9995993E+00 )

 nodal point  x-disp     y-disp      z-disp      x-vel       y-vel       z-vel      x-accl      y-accl      z-accl      x-coor      y-coor      z-coor
    22626  5.89704E-01 9.26991E-02-2.11601E+01 4.04733E-01-1.17942E-02-1.89068E-02 1.85251E-01-1.03185E-01 5.10604E-01 4.85539E+01-2.19371E+01-1.38216E+01



 n o d a l   p r i n t   o u t   f o r   t i m e  s t e p   18002                              ( at time 8.9995993E+00 )

 nodal point  x-rot      y-rot       z-rot       x-rot vel   y-rot vel   z-rot vel   x-rot acc   y-rot acc   z-rot acc
    22626  4.17423E-02 2.15812E-02-4.51599E-03 1.58369E-02 9.07527E-03-2.75600E-03 3.23593E-04 2.08482E-03 5.66229E-04



 n o d a l   p r i n t   o u t   f o r   t i m e  s t e p   18202                              ( at time 9.0995893E+00 )

 nodal point  x-disp     y-disp      z-disp      x-vel       y-vel       z-vel      x-accl      y-accl      z-accl      x-coor      y-coor      z-coor
    22626  6.31014E-01 9.14507E-02-2.11593E+01 4.19140E-01-9.64903E-03 2.98559E-02 1.44088E-01 2.14541E-02 4.87676E-01 4.85952E+01-2.19383E+01-1.38208E+01



 n o d a l   p r i n t   o u t   f o r   t i m e  s t e p   18202                              ( at time 9.0995893E+00 )

 nodal point  x-rot      y-rot       z-rot       x-rot vel   y-rot vel   z-rot vel   x-rot acc   y-rot acc   z-rot acc
    22626  4.33442E-02 2.24986E-02-4.79621E-03 1.62312E-02 9.20152E-03-2.82699E-03 3.94267E-03 1.26258E-03-7.09900E-04



 n o d a l   p r i n t   o u t   f o r   t i m e  s t e p   18402                              ( at time 9.1995793E+00 )

 nodal point  x-disp     y-disp      z-disp      x-vel       y-vel       z-vel      x-accl      y-accl      z-accl      x-coor      y-coor      z-coor
    22626  6.73679E-01 9.07166E-02-2.11542E+01 4.35025E-01-9.23982E-03 7.37873E-02 1.58865E-01 4.09244E-03 4.39359E-01 4.86379E+01-2.19391E+01-1.38157E+01



 n o d a l   p r i n t   o u t   f o r   t i m e  s t e p   18402                              ( at time 9.1995793E+00 )

 nodal point  x-rot      y-rot       z-rot       x-rot vel   y-rot vel   z-rot vel   x-rot acc   y-rot acc   z-rot acc
    22626  4.49746E-02 2.34289E-02-5.08141E-03 1.63384E-02 9.42468E-03-2.84020E-03 1.07236E-03 2.23184E-03-1.32194E-04



 n o d a l   p r i n t   o u t   f o r   t i m e  s t e p   18602                              ( at time 9.2995693E+00 )

 nodal point  x-disp     y-disp      z-disp      x-vel       y-vel       z-vel      x-accl      y-accl      z-accl      x-coor      y-coor      z-coor
    22626  7.17840E-01 8.92940E-02-2.11450E+01 4.48699E-01-1.48566E-02 1.12008E-01 1.36759E-01-5.61736E-02 3.82242E-01 4.86820E+01-2.19405E+01-1.38065E+01



 n o d a l   p r i n t   o u t   f o r   t i m e  s t e p   18602                              ( at time 9.2995693E+00 )

 nodal point  x-rot      y-rot       z-rot       x-rot vel   y-rot vel   z-rot vel   x-rot acc   y-rot acc   z-rot acc
    22626  4.66210E-02 2.43787E-02-5.36803E-03 1.65678E-02 9.57941E-03-2.84725E-03 2.29417E-03 1.54747E-03-7.04291E-05



 n o d a l   p r i n t   o u t   f o r   t i m e  s t e p   18802                              ( at time 9.3995593E+00 )

 nodal point  x-disp     y-disp      z-disp      x-vel       y-vel       z-vel      x-accl      y-accl      z-accl      x-coor      y-coor      z-coor
    22626  7.63128E-01 8.81089E-02-2.11321E+01 4.56889E-01-1.09939E-02 1.43582E-01 8.18991E-02 3.86308E-02 3.15775E-01 4.87273E+01-2.19417E+01-1.37936E+01



 n o d a l   p r i n t   o u t   f o r   t i m e  s t e p   18802                              ( at time 9.3995593E+00 )

 nodal point  x-rot      y-rot       z-rot       x-rot vel   y-rot vel   z-rot vel   x-rot acc   y-rot acc   z-rot acc
    22626  4.82911E-02 2.53403E-02-5.65629E-03 1.67831E-02 9.65442E-03-2.91565E-03 2.15381E-03 7.50191E-04-6.84119E-04



 n o d a l   p r i n t   o u t   f o r   t i m e  s t e p   19002                              ( at time 9.4995493E+00 )

 nodal point  x-disp     y-disp      z-disp      x-vel       y-vel       z-vel      x-accl      y-accl      z-accl      x-coor      y-coor      z-coor
    22626  8.09452E-01 8.68493E-02-2.11162E+01 4.68347E-01-1.43873E-02 1.75362E-01 1.14594E-01-3.39368E-02 3.17833E-01 4.87736E+01-2.19429E+01-1.37777E+01



 n o d a l   p r i n t   o u t   f o r   t i m e  s t e p   19002                              ( at time 9.4995493E+00 )

 nodal point  x-rot      y-rot       z-rot       x-rot vel   y-rot vel   z-rot vel   x-rot acc   y-rot acc   z-rot acc
    22626  4.99791E-02 2.63167E-02-5.95101E-03 1.69571E-02 9.87890E-03-2.92392E-03 1.73985E-03 2.24497E-03-8.27168E-05



 n o d a l   p r i n t   o u t   f o r   t i m e  s t e p   19202                              ( at time 9.5995393E+00 )

 nodal point  x-disp     y-disp      z-disp      x-vel       y-vel       z-vel      x-accl      y-accl      z-accl      x-coor      y-coor      z-coor
    22626  8.56654E-01 8.53736E-02-2.10976E+01 4.74338E-01-1.28611E-02 1.96493E-01 5.99168E-02 1.52627E-02 2.11331E-01 4.88208E+01-2.19444E+01-1.37591E+01



 n o d a l   p r i n t   o u t   f o r   t i m e  s t e p   19202                              ( at time 9.5995393E+00 )

 nodal point  x-rot      y-rot       z-rot       x-rot vel   y-rot vel   z-rot vel   x-rot acc   y-rot acc   z-rot acc
    22626  5.16830E-02 2.73036E-02-6.24201E-03 1.71619E-02 9.89209E-03-2.93045E-03 2.04809E-03 1.31925E-04-6.52288E-05



 n o d a l   p r i n t   o u t   f o r   t i m e  s t e p   19402                              ( at time 9.6995293E+00 )

 nodal point  x-disp     y-disp      z-disp      x-vel       y-vel       z-vel      x-accl      y-accl      z-accl      x-coor      y-coor      z-coor
    22626  9.04303E-01 8.41410E-02-2.10767E+01 4.80880E-01-1.10348E-02 2.20331E-01 6.54254E-02 1.82648E-02 2.38407E-01 4.88685E+01-2.19456E+01-1.37381E+01



 n o d a l   p r i n t   o u t   f o r   t i m e  s t e p   19402                              ( at time 9.6995293E+00 )

 nodal point  x-rot      y-rot       z-rot       x-rot vel   y-rot vel   z-rot vel   x-rot acc   y-rot acc   z-rot acc
    22626  5.34049E-02 2.82997E-02-6.54162E-03 1.73187E-02 9.98817E-03-3.00419E-03 1.56813E-03 9.60877E-04-7.37566E-04



 n o d a l   p r i n t   o u t   f o r   t i m e  s t e p   19602                              ( at time 9.7995193E+00 )

 nodal point  x-disp     y-disp      z-disp      x-vel       y-vel       z-vel      x-accl      y-accl      z-accl      x-coor      y-coor      z-coor
    22626  9.52648E-01 8.29610E-02-2.10537E+01 4.84068E-01-1.24687E-02 2.36841E-01 3.18893E-02-1.43395E-02 1.65107E-01 4.89168E+01-2.19468E+01-1.37152E+01



 n o d a l   p r i n t   o u t   f o r   t i m e  s t e p   19602                              ( at time 9.7995193E+00 )

 nodal point  x-rot      y-rot       z-rot       x-rot vel   y-rot vel   z-rot vel   x-rot acc   y-rot acc   z-rot acc
    22626  5.51417E-02 2.92999E-02-6.83892E-03 1.74616E-02 1.00441E-02-2.96343E-03 1.42937E-03 5.58990E-04 4.07723E-04



 n o d a l   p r i n t   o u t   f o r   t i m e  s t e p   19802                              ( at time 9.8995093E+00 )

 nodal point  x-disp     y-disp      z-disp      x-vel       y-vel       z-vel      x-accl      y-accl      z-accl      x-coor      y-coor      z-coor
    22626  1.00118E+00 8.13432E-02-2.10292E+01 4.86269E-01-1.57796E-02 2.57334E-01 2.20103E-02-3.31129E-02 2.04956E-01 4.89654E+01-2.19484E+01-1.36907E+01



 n o d a l   p r i n t   o u t   f o r   t i m e  s t e p   19802                              ( at time 9.8995093E+00 )

 nodal point  x-rot      y-rot       z-rot       x-rot vel   y-rot vel   z-rot vel   x-rot acc   y-rot acc   z-rot acc
    22626  5.68894E-02 3.03085E-02-7.13867E-03 1.75213E-02 1.01089E-02-3.03565E-03 5.96777E-04 6.48294E-04-7.22283E-04



 n o d a l   p r i n t   o u t   f o r   t i m e  s t e p   20003                              ( at time 9.9999992E+00 )

 nodal point  x-disp     y-disp      z-disp      x-vel       y-vel       z-vel      x-accl      y-accl      z-accl      x-coor      y-coor      z-coor
[...]
    22626  2.90811E-01 1.50909E-01-7.60022E-02 1.95175E-02 8.70249E-03-6.64799E-03 3.21839E-04-1.24054E-04 7.40469E-06



 n o d a l   p r i n t   o u t   f o r   t i m e  s t e p   45205                              ( at time 2.2599738E+01 )

 nodal point  x-disp     y-disp      z-disp      x-vel       y-vel       z-vel      x-accl      y-accl      z-accl      x-coor      y-coor      z-coor
    22626  6.51827E+00-1.38743E+00-1.42251E+01 4.03285E-01-1.55400E-01 5.53259E-01 5.08802E-03 3.18616E-04-9.58411E-03 5.44825E+01-2.34172E+01-6.88664E+00



 n o d a l   p r i n t   o u t   f o r   t i m e  s t e p   45205                              ( at time 2.2599738E+01 )

 nodal point  x-rot      y-rot       z-rot       x-rot vel   y-rot vel   z-rot vel   x-rot acc   y-rot acc   z-rot acc
    22626  2.92763E-01 1.51778E-01-7.66660E-02 1.95334E-02 8.68392E-03-6.63114E-03 1.58619E-04-1.85732E-04 1.68440E-04



 n o d a l   p r i n t   o u t   f o r   t i m e  s t e p   45405                              ( at time 2.2699728E+01 )

 nodal point  x-disp     y-disp      z-disp      x-vel       y-vel       z-vel      x-accl      y-accl      z-accl      x-coor      y-coor      z-coor
    22626  6.55857E+00-1.40304E+00-1.41699E+01 4.03150E-01-1.56553E-01 5.52135E-01-1.34572E-03-1.15336E-02-1.12433E-02 5.45228E+01-2.34328E+01-6.83138E+00



 n o d a l   p r i n t   o u t   f o r   t i m e  s t e p   45405                              ( at time 2.2699728E+01 )

 nodal point  x-rot      y-rot       z-rot       x-rot vel   y-rot vel   z-rot vel   x-rot acc   y-rot acc   z-rot acc
    22626  2.94718E-01 1.52645E-01-7.73285E-02 1.95699E-02 8.66547E-03-6.61991E-03 3.65175E-04-1.84460E-04 1.12381E-04



 n o d a l   p r i n t   o u t   f o r   t i m e  s t e p   45605                              ( at time 2.2799718E+01 )

 nodal point  x-disp     y-disp      z-disp      x-vel       y-vel       z-vel      x-accl      y-accl      z-accl      x-coor      y-coor      z-coor
    22626  6.59889E+00-1.41867E+00-1.41147E+01 4.03406E-01-1.56433E-01 5.50394E-01 2.56294E-03 1.20353E-03-1.74056E-02 5.45631E+01-2.34485E+01-6.77623E+00



 n o d a l   p r i n t   o u t   f o r   t i m e  s t e p   45605                              ( at time 2.2799718E+01 )

 nodal point  x-rot      y-rot       z-rot       x-rot vel   y-rot vel   z-rot vel   x-rot acc   y-rot acc   z-rot acc
    22626  2.96677E-01 1.53512E-01-7.79900E-02 1.96098E-02 8.66257E-03-6.60853E-03 3.99220E-04-2.90786E-05 1.13818E-04



 n o d a l   p r i n t   o u t   f o r   t i m e  s t e p   45805                              ( at time 2.2899708E+01 )

 nodal point  x-disp     y-disp      z-disp      x-vel       y-vel       z-vel      x-accl      y-accl      z-accl      x-coor      y-coor      z-coor
    22626  6.63923E+00-1.43433E+00-1.40598E+01 4.03598E-01-1.56439E-01 5.48660E-01 1.91114E-03-6.02074E-05-1.73475E-02 5.46034E+01-2.34641E+01-6.72129E+00



 n o d a l   p r i n t   o u t   f o r   t i m e  s t e p   45805                              ( at time 2.2899708E+01 )

 nodal point  x-rot      y-rot       z-rot       x-rot vel   y-rot vel   z-rot vel   x-rot acc   y-rot acc   z-rot acc
    22626  2.98639E-01 1.54377E-01-7.86495E-02 1.96318E-02 8.63762E-03-6.59048E-03 2.19667E-04-2.49520E-04 1.80454E-04



 n o d a l   p r i n t   o u t   f o r   t i m e  s t e p   46005                              ( at time 2.2999698E+01 )

 nodal point  x-disp     y-disp      z-disp      x-vel       y-vel       z-vel      x-accl      y-accl      z-accl      x-coor      y-coor      z-coor
    22626  6.67957E+00-1.44996E+00-1.40050E+01 4.03254E-01-1.56579E-01 5.47159E-01-3.43116E-03-1.40054E-03-1.50104E-02 5.46438E+01-2.34798E+01-6.66652E+00



 n o d a l   p r i n t   o u t   f o r   t i m e  s t e p   46005                              ( at time 2.2999698E+01 )

 nodal point  x-rot      y-rot       z-rot       x-rot vel   y-rot vel   z-rot vel   x-rot acc   y-rot acc   z-rot acc
    22626  3.00604E-01 1.55240E-01-7.93081E-02 1.96790E-02 8.62229E-03-6.58330E-03 4.72000E-04-1.53300E-04 7.18348E-05



 n o d a l   p r i n t   o u t   f o r   t i m e  s t e p   46205                              ( at time 2.3099688E+01 )

 nodal point  x-disp     y-disp      z-disp      x-vel       y-vel       z-vel      x-accl      y-accl      z-accl      x-coor      y-coor      z-coor
    22626  6.71993E+00-1.46562E+00-1.39504E+01 4.03904E-01-1.56290E-01 5.45114E-01 6.50120E-03 2.88727E-03-2.04526E-02 5.46841E+01-2.34954E+01-6.61192E+00



 n o d a l   p r i n t   o u t   f o r   t i m e  s t e p   46205                              ( at time 2.3099688E+01 )

 nodal point  x-rot      y-rot       z-rot       x-rot vel   y-rot vel   z-rot vel   x-rot acc   y-rot acc   z-rot acc
    22626  3.02574E-01 1.56101E-01-7.99651E-02 1.97194E-02 8.60371E-03-6.56067E-03 4.04574E-04-1.85801E-04 2.26276E-04



 n o d a l   p r i n t   o u t   f o r   t i m e  s t e p   46405                              ( at time 2.3199678E+01 )

 nodal point  x-disp     y-disp      z-disp      x-vel       y-vel       z-vel      x-accl      y-accl      z-accl      x-coor      y-coor      z-coor
    22626  6.76032E+00-1.48125E+00-1.38961E+01 4.03973E-01-1.56367E-01 5.42132E-01 6.86708E-04-7.68523E-04-2.98170E-02 5.47245E+01-2.35110E+01-6.55755E+00



 n o d a l   p r i n t   o u t   f o r   t i m e  s t e p   46405                              ( at time 2.3199678E+01 )

 nodal point  x-rot      y-rot       z-rot       x-rot vel   y-rot vel   z-rot vel   x-rot acc   y-rot acc   z-rot acc
    22626  3.04547E-01 1.56961E-01-8.06203E-02 1.97509E-02 8.58401E-03-6.54557E-03 3.14425E-04-1.97030E-04 1.51042E-04



 n o d a l   p r i n t   o u t   f o r   t i m e  s t e p   46605                              ( at time 2.3299668E+01 )

 nodal point  x-disp     y-disp      z-disp      x-vel       y-vel       z-vel      x-accl      y-accl      z-accl      x-coor      y-coor      z-coor
    22626  6.80073E+00-1.49686E+00-1.38419E+01 4.04300E-01-1.56364E-01 5.40562E-01 3.26610E-03 3.02527E-05-1.57010E-02 5.47649E+01-2.35266E+01-6.50343E+00



 n o d a l   p r i n t   o u t   f o r   t i m e  s t e p   46605                              ( at time 2.3299668E+01 )

 nodal point  x-rot      y-rot       z-rot       x-rot vel   y-rot vel   z-rot vel   x-rot acc   y-rot acc   z-rot acc
    22626  3.06524E-01 1.57818E-01-8.12744E-02 1.97868E-02 8.55663E-03-6.53254E-03 3.59046E-04-2.73811E-04 1.30334E-04



 n o d a l   p r i n t   o u t   f o r   t i m e  s t e p   46805                              ( at time 2.3399658E+01 )

 nodal point  x-disp     y-disp      z-disp      x-vel       y-vel       z-vel      x-accl      y-accl      z-accl      x-coor      y-coor      z-coor
    22626  6.84117E+00-1.51253E+00-1.37880E+01 4.04575E-01-1.56926E-01 5.38078E-01 2.74832E-03-5.61780E-03-2.48401E-02 5.48054E+01-2.35423E+01-6.44949E+00



 n o d a l   p r i n t   o u t   f o r   t i m e  s t e p   46805                              ( at time 2.3399658E+01 )

 nodal point  x-rot      y-rot       z-rot       x-rot vel   y-rot vel   z-rot vel   x-rot acc   y-rot acc   z-rot acc
    22626  3.08504E-01 1.58672E-01-8.19269E-02 1.98235E-02 8.53238E-03-6.52004E-03 3.67645E-04-2.42492E-04 1.24967E-04



 n o d a l   p r i n t   o u t   f o r   t i m e  s t e p   47005                              ( at time 2.3499648E+01 )

 nodal point  x-disp     y-disp      z-disp      x-vel       y-vel       z-vel      x-accl      y-accl      z-accl      x-coor      y-coor      z-coor
    22626  6.88163E+00-1.52823E+00-1.37343E+01 4.04934E-01-1.57111E-01 5.35036E-01 3.59717E-03-1.85581E-03-3.04274E-02 5.48458E+01-2.35580E+01-6.39584E+00



 n o d a l   p r i n t   o u t   f o r   t i m e  s t e p   47005                              ( at time 2.3499648E+01 )

 nodal point  x-rot      y-rot       z-rot       x-rot vel   y-rot vel   z-rot vel   x-rot acc   y-rot acc   z-rot acc
    22626  3.10488E-01 1.59524E-01-8.25776E-02 1.98595E-02 8.50941E-03-6.49729E-03 3.60175E-04-2.29760E-04 2.27571E-04



 n o d a l   p r i n t   o u t   f o r   t i m e  s t e p   47205                              ( at time 2.3599638E+01 )

 nodal point  x-disp     y-disp      z-disp      x-vel       y-vel       z-vel      x-accl      y-accl      z-accl      x-coor      y-coor      z-coor
    22626  6.92211E+00-1.54397E+00-1.36810E+01 4.04972E-01-1.58071E-01 5.32304E-01 3.81810E-04-9.59666E-03-2.73252E-02 5.48863E+01-2.35738E+01-6.34248E+00



 n o d a l   p r i n t   o u t   f o r   t i m e  s t e p   47205                              ( at time 2.3599638E+01 )

 nodal point  x-rot      y-rot       z-rot       x-rot vel   y-rot vel   z-rot vel   x-rot acc   y-rot acc   z-rot acc
    22626  3.12476E-01 1.60373E-01-8.32271E-02 1.98901E-02 8.47816E-03-6.49239E-03 3.05638E-04-3.12521E-04 4.89650E-05



 n o d a l   p r i n t   o u t   f o r   t i m e  s t e p   47405                              ( at time 2.3699628E+01 )

 nodal point  x-disp     y-disp      z-disp      x-vel       y-vel       z-vel      x-accl      y-accl      z-accl      x-coor      y-coor      z-coor
    22626  6.96262E+00-1.55981E+00-1.36279E+01 4.05352E-01-1.58697E-01 5.29921E-01 3.79299E-03-6.26741E-03-2.38291E-02 5.49268E+01-2.35896E+01-6.28937E+00



 n o d a l   p r i n t   o u t   f o r   t i m e  s t e p   47405                              ( at time 2.3699628E+01 )

 nodal point  x-rot      y-rot       z-rot       x-rot vel   y-rot vel   z-rot vel   x-rot acc   y-rot acc   z-rot acc
    22626  3.14466E-01 1.61220E-01-8.38753E-02 1.99190E-02 8.45097E-03-6.47192E-03 2.88662E-04-2.71990E-04 2.04742E-04



 n o d a l   p r i n t   o u t   f o r   t i m e  s t e p   47605                              ( at time 2.3799618E+01 )

 nodal point  x-disp     y-disp      z-disp      x-vel       y-vel       z-vel      x-accl      y-accl      z-accl      x-coor      y-coor      z-coor
    22626  7.00317E+00-1.57572E+00-1.35750E+01 4.05768E-01-1.59823E-01 5.27065E-01 4.16653E-03-1.12580E-02-2.85603E-02 5.49674E+01-2.36055E+01-6.23653E+00



 n o d a l   p r i n t   o u t   f o r   t i m e  s t e p   47605                              ( at time 2.3799618E+01 )

 nodal point  x-rot      y-rot       z-rot       x-rot vel   y-rot vel   z-rot vel   x-rot acc   y-rot acc   z-rot acc
    22626  3.16459E-01 1.62064E-01-8.45215E-02 1.99426E-02 8.42211E-03-6.44984E-03 2.36824E-04-2.88630E-04 2.20818E-04



 n o d a l   p r i n t   o u t   f o r   t i m e  s t e p   47805                              ( at time 2.3899608E+01 )

 nodal point  x-disp     y-disp      z-disp      x-vel       y-vel       z-vel      x-accl      y-accl      z-accl      x-coor      y-coor      z-coor
    22626  7.04376E+00-1.59173E+00-1.35225E+01 4.06136E-01-1.60523E-01 5.24528E-01 3.67735E-03-6.99539E-03-2.53808E-02 5.50079E+01-2.36215E+01-6.18397E+00



 n o d a l   p r i n t   o u t   f o r   t i m e  s t e p   47805                              ( at time 2.3899608E+01 )

 nodal point  x-rot      y-rot       z-rot       x-rot vel   y-rot vel   z-rot vel   x-rot acc   y-rot acc   z-rot acc
    22626  3.18454E-01 1.62904E-01-8.51661E-02 1.99547E-02 8.39015E-03-6.44356E-03 1.20450E-04-3.19603E-04 6.28188E-05



 n o d a l   p r i n t   o u t   f o r   t i m e  s t e p   48005                              ( at time 2.3999598E+01 )

 nodal point  x-disp     y-disp      z-disp      x-vel       y-vel       z-vel      x-accl      y-accl      z-accl      x-coor      y-coor      z-coor
    22626  7.08439E+00-1.60788E+00-1.34702E+01 4.06565E-01-1.61926E-01 5.21477E-01 4.28962E-03-1.40350E-02-3.05090E-02 5.50486E+01-2.36377E+01-6.13167E+00



 n o d a l   p r i n t   o u t   f o r   t i m e  s t e p   48005                              ( at time 2.3999598E+01 )

 nodal point  x-rot      y-rot       z-rot       x-rot vel   y-rot vel   z-rot vel   x-rot acc   y-rot acc   z-rot acc
    22626  3.20450E-01 1.63741E-01-8.58092E-02 1.99704E-02 8.35523E-03-6.42155E-03 1.56759E-04-3.49238E-04 2.20138E-04



 n o d a l   p r i n t   o u t   f o r   t i m e  s t e p   48205                              ( at time 2.4099588E+01 )

 nodal point  x-disp     y-disp      z-disp      x-vel       y-vel       z-vel      x-accl      y-accl      z-accl      x-coor      y-coor      z-coor
    22626  7.12505E+00-1.62414E+00-1.34182E+01 4.06592E-01-1.63577E-01 5.18792E-01 2.73908E-04-1.65145E-02-2.68496E-02 5.50892E+01-2.36539E+01-6.07967E+00



 n o d a l   p r i n t   o u t   f o r   t i m e  s t e p   48205                              ( at time 2.4099588E+01 )

 nodal point  x-rot      y-rot       z-rot       x-rot vel   y-rot vel   z-rot vel   x-rot acc   y-rot acc   z-rot acc
    22626  3.22447E-01 1.64575E-01-8.64508E-02 1.99802E-02 8.31706E-03-6.40719E-03 9.83753E-05-3.81756E-04 1.43600E-04



 n o d a l   p r i n t   o u t   f o r   t i m e  s t e p   48405                              ( at time 2.4199578E+01 )

 nodal point  x-disp     y-disp      z-disp      x-vel       y-vel       z-vel      x-accl      y-accl      z-accl      x-coor      y-coor      z-coor
    22626  7.16573E+00-1.64057E+00-1.33664E+01 4.06797E-01-1.64995E-01 5.16107E-01 2.04437E-03-1.41802E-02-2.68525E-02 5.51299E+01-2.36704E+01-6.02794E+00



 n o d a l   p r i n t   o u t   f o r   t i m e  s t e p   48405                              ( at time 2.4199578E+01 )

 nodal point  x-rot      y-rot       z-rot       x-rot vel   y-rot vel   z-rot vel   x-rot acc   y-rot acc   z-rot acc
    22626  3.24446E-01 1.65405E-01-8.70910E-02 1.99849E-02 8.28794E-03-6.39492E-03 4.69252E-05-2.91201E-04 1.22669E-04



 n o d a l   p r i n t   o u t   f o r   t i m e  s t e p   48605                              ( at time 2.4299568E+01 )

 nodal point  x-disp     y-disp      z-disp      x-vel       y-vel       z-vel      x-accl      y-accl      z-accl      x-coor      y-coor      z-coor
    22626  7.20644E+00-1.65714E+00-1.33150E+01 4.06937E-01-1.66850E-01 5.13242E-01 1.39845E-03-1.85545E-02-2.86570E-02 5.51706E+01-2.36869E+01-5.97649E+00



 n o d a l   p r i n t   o u t   f o r   t i m e  s t e p   48605                              ( at time 2.4299568E+01 )

 nodal point  x-rot      y-rot       z-rot       x-rot vel   y-rot vel   z-rot vel   x-rot acc   y-rot acc   z-rot acc
    22626  3.26444E-01 1.66231E-01-8.77302E-02 1.99815E-02 8.24501E-03-6.38465E-03-3.38474E-05-4.29332E-04 1.02716E-04



 n o d a l   p r i n t   o u t   f o r   t i m e  s t e p   48805                              ( at time 2.4399558E+01 )

 nodal point  x-disp     y-disp      z-disp      x-vel       y-vel       z-vel      x-accl      y-accl      z-accl      x-coor      y-coor      z-coor
    22626  7.24717E+00-1.67388E+00-1.32638E+01 4.07551E-01-1.68303E-01 5.10563E-01 6.15027E-03-1.45332E-02-2.67924E-02 5.52113E+01-2.37037E+01-5.92530E+00



 n o d a l   p r i n t   o u t   f o r   t i m e  s t e p   48805                              ( at time 2.4399558E+01 )

 nodal point  x-rot      y-rot       z-rot       x-rot vel   y-rot vel   z-rot vel   x-rot acc   y-rot acc   z-rot acc
    22626  3.28442E-01 1.67054E-01-8.83680E-02 1.99790E-02 8.21575E-03-6.36817E-03-2.49245E-05-2.92611E-04 1.64882E-04



 n o d a l   p r i n t   o u t   f o r   t i m e  s t e p   49006                              ( at time 2.4500048E+01 )

 nodal point  x-disp     y-disp      z-disp      x-vel       y-vel       z-vel      x-accl      y-accl      z-accl      x-coor      y-coor      z-coor
    22626  7.28812E+00-1.69089E+00-1.32126E+01 4.07632E-01-1.70376E-01 5.07858E-01 8.05791E-04-2.06273E-02-2.69182E-02 5.52523E+01-2.37207E+01-5.87413E+00



 n o d a l   p r i n t   o u t   f o r   t i m e  s t e p   49006                              ( at time 2.4500048E+01 )

 nodal point  x-rot      y-rot       z-rot       x-rot vel   y-rot vel   z-rot vel   x-rot acc   y-rot acc   z-rot acc
    22626  3.30449E-01 1.67878E-01-8.90072E-02 1.99734E-02 8.18076E-03-6.35663E-03-5.58115E-05-3.48215E-04 1.14839E-04



 n o d a l   p r i n t   o u t   f o r   t i m e  s t e p   49206                              ( at time 2.4600038E+01 )

 nodal point  x-disp     y-disp      z-disp      x-vel       y-vel       z-vel      x-accl      y-accl      z-accl      x-coor      y-coor      z-coor
    22626  7.32885E+00-1.70803E+00-1.31620E+01 4.07376E-01-1.72296E-01 5.05669E-01-2.56025E-03-1.91974E-02-2.18876E-02 5.52930E+01-2.37378E+01-5.82347E+00



 n o d a l   p r i n t   o u t   f o r   t i m e  s t e p   49206                              ( at time 2.4600038E+01 )

 nodal point  x-rot      y-rot       z-rot       x-rot vel   y-rot vel   z-rot vel   x-rot acc   y-rot acc   z-rot acc
    22626  3.32445E-01 1.68694E-01-8.96425E-02 1.99579E-02 8.14927E-03-6.35111E-03-1.54781E-04-3.14918E-04 5.51440E-05



 n o d a l   p r i n t   o u t   f o r   t i m e  s t e p   49406                              ( at time 2.4700028E+01 )

 nodal point  x-disp     y-disp      z-disp      x-vel       y-vel       z-vel      x-accl      y-accl      z-accl      x-coor      y-coor      z-coor
    22626  7.36959E+00-1.72537E+00-1.31115E+01 4.07569E-01-1.74681E-01 5.03857E-01 1.92097E-03-2.38505E-02-1.81266E-02 5.53338E+01-2.37552E+01-5.77299E+00



 n o d a l   p r i n t   o u t   f o r   t i m e  s t e p   49406                              ( at time 2.4700028E+01 )

 nodal point  x-rot      y-rot       z-rot       x-rot vel   y-rot vel   z-rot vel   x-rot acc   y-rot acc   z-rot acc
    22626  3.34440E-01 1.69508E-01-9.02768E-02 1.99353E-02 8.11498E-03-6.33113E-03-2.26597E-04-3.42960E-04 1.99847E-04



 n o d a l   p r i n t   o u t   f o r   t i m e  s t e p   49606                              ( at time 2.4800018E+01 )

 nodal point  x-disp     y-disp      z-disp      x-vel       y-vel       z-vel      x-accl      y-accl      z-accl      x-coor      y-coor      z-coor
    22626  7.41032E+00-1.74293E+00-1.30612E+01 4.07310E-01-1.76730E-01 5.02145E-01-2.58440E-03-2.04972E-02-1.71206E-02 5.53745E+01-2.37727E+01-5.72272E+00



 n o d a l   p r i n t   o u t   f o r   t i m e  s t e p   49606                              ( at time 2.4800018E+01 )

 nodal point  x-rot      y-rot       z-rot       x-rot vel   y-rot vel   z-rot vel   x-rot acc   y-rot acc   z-rot acc
    22626  3.36432E-01 1.70318E-01-9.09097E-02 1.99101E-02 8.09043E-03-6.31889E-03-2.51592E-04-2.45556E-04 1.22378E-04



 n o d a l   p r i n t   o u t   f o r   t i m e  s t e p   49806                              ( at time 2.4900008E+01 )

 nodal point  x-disp     y-disp      z-disp      x-vel       y-vel       z-vel      x-accl      y-accl      z-accl      x-coor      y-coor      z-coor
    22626  7.45103E+00-1.76070E+00-1.30111E+01 4.07105E-01-1.79053E-01 5.00358E-01-2.05003E-03-2.32320E-02-1.78714E-02 5.54152E+01-2.37905E+01-5.67259E+00



 n o d a l   p r i n t   o u t   f o r   t i m e  s t e p   49806                              ( at time 2.4900008E+01 )

 nodal point  x-rot      y-rot       z-rot       x-rot vel   y-rot vel   z-rot vel   x-rot acc   y-rot acc   z-rot acc
    22626  3.38421E-01 1.71125E-01-9.15411E-02 1.98846E-02 8.06407E-03-6.30727E-03-2.55155E-04-2.63538E-04 1.16205E-04



 n o d a l   p r i n t   o u t   f o r   t i m e  s t e p   50006                              ( at time 2.4999998E+01 )

 nodal point  x-disp     y-disp      z-disp      x-vel       y-vel       z-vel      x-accl      y-accl      z-accl      x-coor      y-coor      z-coor
    22626  7.49173E+00-1.77873E+00-1.29611E+01 4.06880E-01-1.81651E-01 4.99077E-01-2.24969E-03-2.59826E-02-1.28114E-02 5.54559E+01-2.38085E+01-5.62261E+00



 n o d a l   p r i n t   o u t   f o r   t i m e  s t e p   50006                              ( at time 2.4999998E+01 )

 nodal point  x-rot      y-rot       z-rot       x-rot vel   y-rot vel   z-rot vel   x-rot acc   y-rot acc   z-rot acc
    22626  3.40408E-01 1.71930E-01-9.21716E-02 1.98536E-02 8.03718E-03-6.29957E-03-3.10028E-04-2.68935E-04 7.70414E-05
