 LSTC 50th% Full_FE H-III Dummy (Beta Version, February 17, 2019)        
                    ls-dyna smp s R16 R16.0_619_d222963 date 03/18/2025

{BEGIN LEGEND}
 Entity #        Title
    22626                                                                                     
{END LEGEND}




 n o d a l   p r i n t   o u t   f o r   t i m e  s t e p       1                              ( at time 0.0000000E+00 )

 nodal point  x-disp     y-disp      z-disp      x-vel       y-vel       z-vel      x-accl      y-accl      z-accl      x-coor      y-coor      z-coor
    22626  0.00000E+00 0.00000E+00 0.00000E+00 0.00000E+00 0.00000E+00-3.12000E+00 0.00000E+00 0.00000E+00 0.00000E+00 4.79642E+01-2.20298E+01 7.33850E+00



 n o d a l   p r i n t   o u t   f o r   t i m e  s t e p       1                              ( at time 0.0000000E+00 )

 nodal point  x-rot      y-rot       z-rot       x-rot vel   y-rot vel   z-rot vel   x-rot acc   y-rot acc   z-rot acc
    22626  0.00000E+00 0.00000E+00 0.00000E+00 0.00000E+00 0.00000E+00 0.00000E+00 0.00000E+00 0.00000E+00 0.00000E+00



 n o d a l   p r i n t   o u t   f o r   t i m e  s t e p     201                              ( at time 9.9989993E-02 )

 nodal point  x-disp     y-disp      z-disp      x-vel       y-vel       z-vel      x-accl      y-accl      z-accl      x-coor      y-coor      z-coor
    22626  8.34441E-07-4.04315E-06-3.12016E-01 4.77005E-05-4.96321E-04-3.12074E+00 4.77053E-04-4.96370E-03-7.42748E-03 4.79642E+01-2.20298E+01 7.02648E+00



 n o d a l   p r i n t   o u t   f o r   t i m e  s t e p     201                              ( at time 9.9989993E-02 )

 nodal point  x-rot      y-rot       z-rot       x-rot vel   y-rot vel   z-rot vel   x-rot acc   y-rot acc   z-rot acc
    22626  9.60948E-09 3.04098E-08 5.27207E-08 1.30699E-06 2.72318E-06 5.21413E-06 1.30712E-05 2.72345E-05 5.21466E-05



 n o d a l   p r i n t   o u t   f o r   t i m e  s t e p     401                              ( at time 1.9997999E-01 )

 nodal point  x-disp     y-disp      z-disp      x-vel       y-vel       z-vel      x-accl      y-accl      z-accl      x-coor      y-coor      z-coor
    22626 -5.12713E-05-5.21494E-04-6.23853E-01-1.09597E-03-1.11130E-02-3.11558E+00-1.14379E-02-1.06178E-01 5.16180E-02 4.79641E+01-2.20303E+01 6.71465E+00



 n o d a l   p r i n t   o u t   f o r   t i m e  s t e p     401                              ( at time 1.9997999E-01 )

 nodal point  x-rot      y-rot       z-rot       x-rot vel   y-rot vel   z-rot vel   x-rot acc   y-rot acc   z-rot acc
    22626  4.60096E-07 1.33041E-06 2.50312E-06 2.64026E-06 1.90825E-05 3.50078E-05 1.33340E-05 1.63610E-04 2.97966E-04



 n o d a l   p r i n t   o u t   f o r   t i m e  s t e p     601                              ( at time 2.9996998E-01 )

 nodal point  x-disp     y-disp      z-disp      x-vel       y-vel       z-vel      x-accl      y-accl      z-accl      x-coor      y-coor      z-coor
    22626 -2.41821E-05-1.97533E-03-9.35239E-01 1.67441E-03-1.60278E-02-3.11416E+00 2.77066E-02-4.91524E-02 1.42231E-02 4.79642E+01-2.20318E+01 6.40326E+00



 n o d a l   p r i n t   o u t   f o r   t i m e  s t e p     601                              ( at time 2.9996998E-01 )

 nodal point  x-rot      y-rot       z-rot       x-rot vel   y-rot vel   z-rot vel   x-rot acc   y-rot acc   z-rot acc
    22626  6.75124E-07 2.41500E-06 4.83342E-06 8.32370E-06 5.38981E-06 1.47366E-05 5.68401E-05-1.36941E-04-2.02732E-04



 n o d a l   p r i n t   o u t   f o r   t i m e  s t e p     801                              ( at time 3.9995997E-01 )

 nodal point  x-disp     y-disp      z-disp      x-vel       y-vel       z-vel      x-accl      y-accl      z-accl      x-coor      y-coor      z-coor
    22626  6.31620E-05-3.56880E-03-1.24663E+00 2.53983E-04-1.73240E-02-3.11357E+00-1.42057E-02-1.29640E-02 5.86091E-03 4.79642E+01-2.20334E+01 6.09187E+00



 n o d a l   p r i n t   o u t   f o r   t i m e  s t e p     801                              ( at time 3.9995997E-01 )

 nodal point  x-rot      y-rot       z-rot       x-rot vel   y-rot vel   z-rot vel   x-rot acc   y-rot acc   z-rot acc
    22626  1.58405E-06 3.65820E-06 6.63770E-06 6.35732E-06 2.34851E-05 3.69268E-05-1.96658E-05 1.80971E-04 2.21925E-04



 n o d a l   p r i n t   o u t   f o r   t i m e  s t e p    1001                              ( at time 4.9994997E-01 )

 nodal point  x-disp     y-disp      z-disp      x-vel       y-vel       z-vel      x-accl      y-accl      z-accl      x-coor      y-coor      z-coor
    22626  8.36588E-05-5.61441E-03-1.55783E+00 9.58112E-04-2.36585E-02-3.11095E+00 7.04200E-03-6.33508E-02 2.62501E-02 4.79643E+01-2.20354E+01 5.78067E+00



 n o d a l   p r i n t   o u t   f o r   t i m e  s t e p    1001                              ( at time 4.9994997E-01 )

 nodal point  x-rot      y-rot       z-rot       x-rot vel   y-rot vel   z-rot vel   x-rot acc   y-rot acc   z-rot acc
    22626  1.50342E-06 6.48742E-06 1.15151E-05-4.77846E-06 4.20043E-05 6.79284E-05-1.11369E-04 1.85210E-04 3.10046E-04



 n o d a l   p r i n t   o u t   f o r   t i m e  s t e p    1201                              ( at time 5.9993996E-01 )

 nodal point  x-disp     y-disp      z-disp      x-vel       y-vel       z-vel      x-accl      y-accl      z-accl      x-coor      y-coor      z-coor
    22626  7.65746E-05-8.09429E-03-1.86890E+00-3.23814E-04-2.58167E-02-3.11100E+00-1.28206E-02-2.15845E-02-5.41264E-04 4.79643E+01-2.20379E+01 5.46960E+00



 n o d a l   p r i n t   o u t   f o r   t i m e  s t e p    1201                              ( at time 5.9993996E-01 )

 nodal point  x-rot      y-rot       z-rot       x-rot vel   y-rot vel   z-rot vel   x-rot acc   y-rot acc   z-rot acc
    22626  1.27636E-06 9.49206E-06 1.69263E-05-2.09908E-06 2.34572E-05 4.70347E-05 2.67965E-05-1.85489E-04-2.08957E-04



 n o d a l   p r i n t   o u t   f o r   t i m e  s t e p    1401                              ( at time 6.9992995E-01 )

 nodal point  x-disp     y-disp      z-disp      x-vel       y-vel       z-vel      x-accl      y-accl      z-accl      x-coor      y-coor      z-coor
    22626  6.95722E-05-1.09495E-02-2.17980E+00 9.46686E-04-3.19562E-02-3.10787E+00 1.27063E-02-6.14009E-02 3.12789E-02 4.79642E+01-2.20407E+01 5.15870E+00



 n o d a l   p r i n t   o u t   f o r   t i m e  s t e p    1401                              ( at time 6.9992995E-01 )

 nodal point  x-rot      y-rot       z-rot       x-rot vel   y-rot vel   z-rot vel   x-rot acc   y-rot acc   z-rot acc
    22626  1.14043E-06 1.23207E-05 2.11785E-05-2.12342E-06 3.33102E-05 5.04650E-05-2.43414E-07 9.85404E-05 3.43063E-05



 n o d a l   p r i n t   o u t   f o r   t i m e  s t e p    1601                              ( at time 7.9991994E-01 )

 nodal point  x-disp     y-disp      z-disp      x-vel       y-vel       z-vel      x-accl      y-accl      z-accl      x-coor      y-coor      z-coor
    22626  2.08493E-04-1.44561E-02-2.49045E+00 1.65342E-03-3.62182E-02-3.10637E+00 7.06800E-03-4.26241E-02 1.50362E-02 4.79644E+01-2.20442E+01 4.84805E+00



 n o d a l   p r i n t   o u t   f o r   t i m e  s t e p    1601                              ( at time 7.9991994E-01 )

 nodal point  x-rot      y-rot       z-rot       x-rot vel   y-rot vel   z-rot vel   x-rot acc   y-rot acc   z-rot acc
    22626  1.08994E-06 1.59174E-05 2.70204E-05 3.34382E-06 4.18888E-05 6.26773E-05 5.46778E-05 8.57943E-05 1.22135E-04



 n o d a l   p r i n t   o u t   f o r   t i m e  s t e p    1801                              ( at time 8.9990994E-01 )

 nodal point  x-disp     y-disp      z-disp      x-vel       y-vel       z-vel      x-accl      y-accl      z-accl      x-coor      y-coor      z-coor
    22626  3.19793E-04-1.80263E-02-2.80115E+00-2.67199E-05-3.55974E-02-3.10789E+00-1.68030E-02 6.20848E-03-1.52293E-02 4.79645E+01-2.20478E+01 4.53735E+00



 n o d a l   p r i n t   o u t   f o r   t i m e  s t e p    1801                              ( at time 8.9990994E-01 )

 nodal point  x-rot      y-rot       z-rot       x-rot vel   y-rot vel   z-rot vel   x-rot acc   y-rot acc   z-rot acc
    22626  1.13004E-06 1.91559E-05 3.23325E-05-1.53005E-06 2.80882E-05 4.88007E-05-4.87437E-05-1.38019E-04-1.38780E-04



 n o d a l   p r i n t   o u t   f o r   t i m e  s t e p    2001                              ( at time 9.9989993E-01 )

 nodal point  x-disp     y-disp      z-disp      x-vel       y-vel       z-vel      x-accl      y-accl      z-accl      x-coor      y-coor      z-coor
    22626  2.77044E-04-2.16511E-02-3.11191E+00-2.54271E-04-3.74341E-02-3.10818E+00-2.27574E-03-1.83685E-02-2.83270E-03 4.79645E+01-2.20514E+01 4.22659E+00



 n o d a l   p r i n t   o u t   f o r   t i m e  s t e p    2001                              ( at time 9.9989993E-01 )

 nodal point  x-rot      y-rot       z-rot       x-rot vel   y-rot vel   z-rot vel   x-rot acc   y-rot acc   z-rot acc
    22626  1.02468E-06 2.22718E-05 3.73380E-05 3.08839E-07 3.36147E-05 6.13433E-05 1.83908E-05 5.52697E-05 1.25439E-04



 n o d a l   p r i n t   o u t   f o r   t i m e  s t e p    2201                              ( at time 1.0998899E+00 )

 nodal point  x-disp     y-disp      z-disp      x-vel       y-vel       z-vel      x-accl      y-accl      z-accl      x-coor      y-coor      z-coor
    22626  3.21512E-04-2.54937E-02-3.42268E+00 4.95103E-04-3.91368E-02-3.10778E+00 7.49449E-03-1.70290E-02 4.02253E-03 4.79645E+01-2.20553E+01 3.91582E+00



 n o d a l   p r i n t   o u t   f o r   t i m e  s t e p    2201                              ( at time 1.0998899E+00 )

 nodal point  x-rot      y-rot       z-rot       x-rot vel   y-rot vel   z-rot vel   x-rot acc   y-rot acc   z-rot acc
    22626  1.21035E-06 2.56733E-05 4.31909E-05 6.12052E-06 3.05997E-05 4.32324E-05 5.81226E-05-3.01524E-05-1.81128E-04



 n o d a l   p r i n t   o u t   f o r   t i m e  s t e p    2401                              ( at time 1.1998799E+00 )

 nodal point  x-disp     y-disp      z-disp      x-vel       y-vel       z-vel      x-accl      y-accl      z-accl      x-coor      y-coor      z-coor
    22626  4.37107E-04-2.93836E-02-3.73350E+00 1.45053E-03-3.83649E-02-3.10935E+00 9.55522E-03 7.71976E-03-1.57420E-02 4.79646E+01-2.20592E+01 3.60500E+00



 n o d a l   p r i n t   o u t   f o r   t i m e  s t e p    2401                              ( at time 1.1998799E+00 )

 nodal point  x-rot      y-rot       z-rot       x-rot vel   y-rot vel   z-rot vel   x-rot acc   y-rot acc   z-rot acc
    22626  1.70337E-06 2.80882E-05 4.66081E-05 5.94716E-06 2.07761E-05 2.83057E-05-1.73377E-06-9.82460E-05-1.49282E-04



 n o d a l   p r i n t   o u t   f o r   t i m e  s t e p    2601                              ( at time 1.2998699E+00 )

 nodal point  x-disp     y-disp      z-disp      x-vel       y-vel       z-vel      x-accl      y-accl      z-accl      x-coor      y-coor      z-coor
    22626  5.27075E-04-3.30619E-02-4.04453E+00 4.33949E-04-3.48369E-02-3.11241E+00-1.01668E-02 3.52835E-02-3.06518E-02 4.79647E+01-2.20629E+01 3.29397E+00



 n o d a l   p r i n t   o u t   f o r   t i m e  s t e p    2601                              ( at time 1.2998699E+00 )

 nodal point  x-rot      y-rot       z-rot       x-rot vel   y-rot vel   z-rot vel   x-rot acc   y-rot acc   z-rot acc
    22626  2.09812E-06 3.00359E-05 4.93701E-05-1.06249E-06 2.22749E-05 3.54118E-05-7.01035E-05 1.49894E-05 7.10680E-05



 n o d a l   p r i n t   o u t   f o r   t i m e  s t e p    2801                              ( at time 1.3998599E+00 )

 nodal point  x-disp     y-disp      z-disp      x-vel       y-vel       z-vel      x-accl      y-accl      z-accl      x-coor      y-coor      z-coor
    22626  5.04869E-04-3.62754E-02-4.35594E+00-3.06695E-04-2.96231E-02-3.11622E+00-7.40718E-03 5.21435E-02-3.80840E-02 4.79647E+01-2.20661E+01 2.98256E+00



 n o d a l   p r i n t   o u t   f o r   t i m e  s t e p    2801                              ( at time 1.3998599E+00 )

 nodal point  x-rot      y-rot       z-rot       x-rot vel   y-rot vel   z-rot vel   x-rot acc   y-rot acc   z-rot acc
    22626  1.82958E-06 3.20667E-05 5.24583E-05-2.76735E-06 1.94329E-05 2.30355E-05-1.70503E-05-2.84233E-05-1.23775E-04



 n o d a l   p r i n t   o u t   f o r   t i m e  s t e p    3001                              ( at time 1.4998499E+00 )

 nodal point  x-disp     y-disp      z-disp      x-vel       y-vel       z-vel      x-accl      y-accl      z-accl      x-coor      y-coor      z-coor
    22626  5.00211E-04-3.91370E-02-4.66764E+00 5.77691E-04-2.79169E-02-3.11824E+00 8.84475E-03 1.70634E-02-2.01579E-02 4.79647E+01-2.20689E+01 2.67086E+00



 n o d a l   p r i n t   o u t   f o r   t i m e  s t e p    3001                              ( at time 1.4998499E+00 )

 nodal point  x-rot      y-rot       z-rot       x-rot vel   y-rot vel   z-rot vel   x-rot acc   y-rot acc   z-rot acc
    22626  1.65815E-06 3.33201E-05 5.37424E-05 6.00690E-07 4.20852E-06 2.85749E-06 3.36838E-05-1.52259E-04-2.01800E-04



 n o d a l   p r i n t   o u t   f o r   t i m e  s t e p    3201                              ( at time 1.5998399E+00 )

 nodal point  x-disp     y-disp      z-disp      x-vel       y-vel       z-vel      x-accl      y-accl      z-accl      x-coor      y-coor      z-coor
    22626  5.49873E-04-4.18346E-02-4.97953E+00 1.80421E-04-2.54126E-02-3.12071E+00-3.97310E-03 2.50452E-02-2.46931E-02 4.79647E+01-2.20716E+01 2.35897E+00



 n o d a l   p r i n t   o u t   f o r   t i m e  s t e p    3201                              ( at time 1.5998399E+00 )

 nodal point  x-rot      y-rot       z-rot       x-rot vel   y-rot vel   z-rot vel   x-rot acc   y-rot acc   z-rot acc
    22626  1.57574E-06 3.34795E-05 5.30259E-05 6.55748E-07 2.14825E-06-1.03714E-05 5.50639E-07-2.06048E-05-1.32302E-04



 n o d a l   p r i n t   o u t   f o r   t i m e  s t e p    3401                              ( at time 1.6998299E+00 )

 nodal point  x-disp     y-disp      z-disp      x-vel       y-vel       z-vel      x-accl      y-accl      z-accl      x-coor      y-coor      z-coor
    22626  5.60931E-04-4.41343E-02-5.29176E+00-5.94695E-05-2.03247E-02-3.12456E+00-2.39915E-03 5.08844E-02-3.85561E-02 4.79647E+01-2.20739E+01 2.04674E+00



 n o d a l   p r i n t   o u t   f o r   t i m e  s t e p    3401                              ( at time 1.6998299E+00 )

 nodal point  x-rot      y-rot       z-rot       x-rot vel   y-rot vel   z-rot vel   x-rot acc   y-rot acc   z-rot acc
    22626  1.55663E-06 3.34796E-05 5.20467E-05-1.64399E-06-5.38376E-07-1.26838E-05-2.29997E-05-2.68689E-05-2.31258E-05



 n o d a l   p r i n t   o u t   f o r   t i m e  s t e p    3601                              ( at time 1.7998199E+00 )

 nodal point  x-disp     y-disp      z-disp      x-vel       y-vel       z-vel      x-accl      y-accl      z-accl      x-coor      y-coor      z-coor
    22626  5.65279E-04-4.59133E-02-5.60439E+00-3.08154E-04-1.56157E-02-3.12861E+00-2.48710E-03 4.70945E-02-4.04995E-02 4.79647E+01-2.20757E+01 1.73411E+00



 n o d a l   p r i n t   o u t   f o r   t i m e  s t e p    3601                              ( at time 1.7998199E+00 )

 nodal point  x-rot      y-rot       z-rot       x-rot vel   y-rot vel   z-rot vel   x-rot acc   y-rot acc   z-rot acc
    22626  1.66367E-06 3.31304E-05 5.05878E-05 2.28578E-06-1.08055E-05-2.07887E-05 3.93017E-05-1.02682E-04-8.10579E-05



 n o d a l   p r i n t   o u t   f o r   t i m e  s t e p    3801                              ( at time 1.8998099E+00 )

 nodal point  x-disp     y-disp      z-disp      x-vel       y-vel       z-vel      x-accl      y-accl      z-accl      x-coor      y-coor      z-coor
    22626  4.78664E-04-4.73477E-02-5.91734E+00-1.13933E-03-1.31976E-02-3.13109E+00-8.31256E-03 2.41835E-02-2.48147E-02 4.79647E+01-2.20771E+01 1.42116E+00



 n o d a l   p r i n t   o u t   f o r   t i m e  s t e p    3801                              ( at time 1.8998099E+00 )

 nodal point  x-rot      y-rot       z-rot       x-rot vel   y-rot vel   z-rot vel   x-rot acc   y-rot acc   z-rot acc
    22626  1.74546E-06 3.18469E-05 4.77332E-05 5.23534E-06-1.65633E-05-3.59891E-05 2.94986E-05-5.75838E-05-1.52019E-04



 n o d a l   p r i n t   o u t   f o r   t i m e  s t e p    4001                              ( at time 1.9997999E+00 )

 nodal point  x-disp     y-disp      z-disp      x-vel       y-vel       z-vel      x-accl      y-accl      z-accl      x-coor      y-coor      z-coor
    22626  4.04474E-04-4.85472E-02-6.23054E+00-6.44754E-04-1.08876E-02-3.13331E+00 4.94623E-03 2.31026E-02-2.22157E-02 4.79646E+01-2.20783E+01 1.10796E+00



 n o d a l   p r i n t   o u t   f o r   t i m e  s t e p    4001                              ( at time 1.9997999E+00 )

 nodal point  x-rot      y-rot       z-rot       x-rot vel   y-rot vel   z-rot vel   x-rot acc   y-rot acc   z-rot acc
    22626  2.25832E-06 3.00199E-05 4.38148E-05 6.33309E-06-1.78463E-05-4.16334E-05 1.09786E-05-1.28307E-05-5.64484E-05



 n o d a l   p r i n t   o u t   f o r   t i m e  s t e p    4201                              ( at time 2.0997899E+00 )

 nodal point  x-disp     y-disp      z-disp      x-vel       y-vel       z-vel      x-accl      y-accl      z-accl      x-coor      y-coor      z-coor
    22626  3.34111E-04-4.94454E-02-6.54400E+00-8.99246E-04-7.30164E-03-3.13640E+00-2.54518E-03 3.58628E-02-3.08878E-02 4.79645E+01-2.20792E+01 7.94501E-01



 n o d a l   p r i n t   o u t   f o r   t i m e  s t e p    4201                              ( at time 2.0997899E+00 )

 nodal point  x-rot      y-rot       z-rot       x-rot vel   y-rot vel   z-rot vel   x-rot acc   y-rot acc   z-rot acc
    22626  2.82517E-06 2.75678E-05 3.86619E-05 1.68729E-06-2.71244E-05-6.08355E-05-4.64627E-05-9.27905E-05-1.92041E-04



 n o d a l   p r i n t   o u t   f o r   t i m e  s t e p    4401                              ( at time 2.1997798E+00 )

 nodal point  x-disp     y-disp      z-disp      x-vel       y-vel       z-vel      x-accl      y-accl      z-accl      x-coor      y-coor      z-coor
    22626  1.89782E-04-4.99508E-02-6.85778E+00-1.79697E-03-2.59198E-03-3.14005E+00-8.97813E-03 4.71014E-02-3.64984E-02 4.79644E+01-2.20797E+01 4.80724E-01



 n o d a l   p r i n t   o u t   f o r   t i m e  s t e p    4401                              ( at time 2.1997798E+00 )

 nodal point  x-rot      y-rot       z-rot       x-rot vel   y-rot vel   z-rot vel   x-rot acc   y-rot acc   z-rot acc
    22626  2.98148E-06 2.46374E-05 3.25661E-05 2.05488E-06-3.06900E-05-6.28957E-05 3.67633E-06-3.56602E-05-2.06039E-05



 n o d a l   p r i n t   o u t   f o r   t i m e  s t e p    4601                              ( at time 2.2997698E+00 )

 nodal point  x-disp     y-disp      z-disp      x-vel       y-vel       z-vel      x-accl      y-accl      z-accl      x-coor      y-coor      z-coor
    22626 -2.32546E-05-4.99784E-02-7.17193E+00-2.50389E-03 1.45083E-03-3.14328E+00-7.06990E-03 4.04321E-02-3.23256E-02 4.79642E+01-2.20798E+01 1.66568E-01



 n o d a l   p r i n t   o u t   f o r   t i m e  s t e p    4601                              ( at time 2.2997698E+00 )

 nodal point  x-rot      y-rot       z-rot       x-rot vel   y-rot vel   z-rot vel   x-rot acc   y-rot acc   z-rot acc
    22626  2.86902E-06 2.15149E-05 2.63280E-05-1.56372E-06-3.71836E-05-7.12053E-05-3.61896E-05-6.49423E-05-8.31041E-05



 n o d a l   p r i n t   o u t   f o r   t i m e  s t e p    4801                              ( at time 2.3997598E+00 )

 nodal point  x-disp     y-disp      z-disp      x-vel       y-vel       z-vel      x-accl      y-accl      z-accl      x-coor      y-coor      z-coor
    22626 -2.91092E-04-4.97479E-02-7.48633E+00-2.62914E-03 3.17445E-03-3.14525E+00-1.25261E-03 1.72380E-02-1.96811E-02 4.79639E+01-2.20795E+01-1.47825E-01



 n o d a l   p r i n t   o u t   f o r   t i m e  s t e p    4801                              ( at time 2.3997598E+00 )

 nodal point  x-rot      y-rot       z-rot       x-rot vel   y-rot vel   z-rot vel   x-rot acc   y-rot acc   z-rot acc
    22626  2.67676E-06 1.76777E-05 1.82923E-05-2.60187E-06-4.01459E-05-8.60745E-05-1.03826E-05-2.96253E-05-1.48707E-04



 n o d a l   p r i n t   o u t   f o r   t i m e  s t e p    5001                              ( at time 2.4997498E+00 )

 nodal point  x-disp     y-disp      z-disp      x-vel       y-vel       z-vel      x-accl      y-accl      z-accl      x-coor      y-coor      z-coor
    22626 -5.90256E-04-4.93087E-02-7.80093E+00-3.33252E-03 6.31536E-03-3.14793E+00-7.03451E-03 3.14121E-02-2.67627E-02 4.79636E+01-2.20791E+01-4.62434E-01



 n o d a l   p r i n t   o u t   f o r   t i m e  s t e p    5001                              ( at time 2.4997498E+00 )

 nodal point  x-rot      y-rot       z-rot       x-rot vel   y-rot vel   z-rot vel   x-rot acc   y-rot acc   z-rot acc
    22626  2.59319E-06 1.31631E-05 9.11615E-06-2.70619E-07-4.85255E-05-1.00011E-04 2.33148E-05-8.38051E-05-1.39377E-04



 n o d a l   p r i n t   o u t   f o r   t i m e  s t e p    5201                              ( at time 2.5997398E+00 )

 nodal point  x-disp     y-disp      z-disp      x-vel       y-vel       z-vel      x-accl      y-accl      z-accl      x-coor      y-coor      z-coor
    22626 -9.68277E-04-4.84638E-02-8.11589E+00-4.26048E-03 1.05226E-02-3.15150E+00-9.28059E-03 4.20770E-02-3.57235E-02 4.79632E+01-2.20783E+01-7.77386E-01



 n o d a l   p r i n t   o u t   f o r   t i m e  s t e p    5201                              ( at time 2.5997398E+00 )

 nodal point  x-rot      y-rot       z-rot       x-rot vel   y-rot vel   z-rot vel   x-rot acc   y-rot acc   z-rot acc
    22626  2.54218E-06 7.89582E-06-1.22741E-06-1.55033E-06-5.54681E-05-1.08434E-04-1.27984E-05-6.94328E-05-8.42370E-05



 n o d a l   p r i n t   o u t   f o r   t i m e  s t e p    5401                              ( at time 2.6997298E+00 )

 nodal point  x-disp     y-disp      z-disp      x-vel       y-vel       z-vel      x-accl      y-accl      z-accl      x-coor      y-coor      z-coor
    22626 -1.43876E-03-4.72224E-02-8.43117E+00-5.41032E-03 1.37932E-02-3.15472E+00-1.14995E-02 3.27086E-02-3.22111E-02 4.79627E+01-2.20770E+01-1.09267E+00



 n o d a l   p r i n t   o u t   f o r   t i m e  s t e p    5401                              ( at time 2.6997298E+00 )

 nodal point  x-rot      y-rot       z-rot       x-rot vel   y-rot vel   z-rot vel   x-rot acc   y-rot acc   z-rot acc
    22626  2.52854E-06 2.49043E-06-1.20517E-05 1.09207E-06-5.53802E-05-1.07121E-04 2.64266E-05 8.78768E-07 1.31284E-05



 n o d a l   p r i n t   o u t   f o r   t i m e  s t e p    5601                              ( at time 2.7997198E+00 )

 nodal point  x-disp     y-disp      z-disp      x-vel       y-vel       z-vel      x-accl      y-accl      z-accl      x-coor      y-coor      z-coor
    22626 -2.05307E-03-4.57267E-02-8.74672E+00-6.66248E-03 1.58498E-02-3.15680E+00-1.25229E-02 2.05686E-02-2.08375E-02 4.79621E+01-2.20755E+01-1.40822E+00



 n o d a l   p r i n t   o u t   f o r   t i m e  s t e p    5601                              ( at time 2.7997198E+00 )

 nodal point  x-rot      y-rot       z-rot       x-rot vel   y-rot vel   z-rot vel   x-rot acc   y-rot acc   z-rot acc
    22626  2.78009E-06-3.65634E-06-2.39756E-05 4.35916E-06-6.83877E-05-1.33427E-04 3.26742E-05-1.30087E-04-2.63081E-04



 n o d a l   p r i n t   o u t   f o r   t i m e  s t e p    5801                              ( at time 2.8997098E+00 )

 nodal point  x-disp     y-disp      z-disp      x-vel       y-vel       z-vel      x-accl      y-accl      z-accl      x-coor      y-coor      z-coor
    22626 -2.72524E-03-4.40932E-02-9.06246E+00-6.86678E-03 1.67096E-02-3.15845E+00-2.04327E-03 8.59830E-03-1.64907E-02 4.79615E+01-2.20739E+01-1.72396E+00



 n o d a l   p r i n t   o u t   f o r   t i m e  s t e p    5801                              ( at time 2.8997098E+00 )

 nodal point  x-rot      y-rot       z-rot       x-rot vel   y-rot vel   z-rot vel   x-rot acc   y-rot acc   z-rot acc
    22626  3.31783E-06-1.09781E-05-3.81170E-05 5.18375E-06-7.25041E-05-1.44577E-04 8.24672E-06-4.11683E-05-1.11513E-04



 n o d a l   p r i n t   o u t   f o r   t i m e  s t e p    6001                              ( at time 2.9996998E+00 )

 nodal point  x-disp     y-disp      z-disp      x-vel       y-vel       z-vel      x-accl      y-accl      z-accl      x-coor      y-coor      z-coor
    22626 -3.45351E-03-4.23191E-02-9.37837E+00-7.91466E-03 1.89272E-02-3.16069E+00-1.04798E-02 2.21782E-02-2.23826E-02 4.79607E+01-2.20721E+01-2.03987E+00



 n o d a l   p r i n t   o u t   f o r   t i m e  s t e p    6001                              ( at time 2.9996998E+00 )

 nodal point  x-rot      y-rot       z-rot       x-rot vel   y-rot vel   z-rot vel   x-rot acc   y-rot acc   z-rot acc
    22626  3.82679E-06-1.82470E-05-5.23806E-05 3.84470E-06-7.24356E-05-1.44286E-04-1.33918E-05 6.85245E-07 2.90310E-06



 n o d a l   p r i n t   o u t   f o r   t i m e  s t e p    6201                              ( at time 3.0996898E+00 )

 nodal point  x-disp     y-disp      z-disp      x-vel       y-vel       z-vel      x-accl      y-accl      z-accl      x-coor      y-coor      z-coor
    22626 -4.32730E-03-4.03093E-02-9.69452E+00-9.42724E-03 2.07637E-02-3.16253E+00-1.51273E-02 1.83668E-02-1.84245E-02 4.79599E+01-2.20701E+01-2.35602E+00



 n o d a l   p r i n t   o u t   f o r   t i m e  s t e p    6201                              ( at time 3.0996898E+00 )

 nodal point  x-rot      y-rot       z-rot       x-rot vel   y-rot vel   z-rot vel   x-rot acc   y-rot acc   z-rot acc
    22626  4.09131E-06-2.54585E-05-6.69237E-05 2.55009E-07-7.10720E-05-1.48659E-04-3.59005E-05 1.36370E-05-4.37291E-05



 n o d a l   p r i n t   o u t   f o r   t i m e  s t e p    6401                              ( at time 3.1996798E+00 )

 nodal point  x-disp     y-disp      z-disp      x-vel       y-vel       z-vel      x-accl      y-accl      z-accl      x-coor      y-coor      z-coor
    22626 -5.30363E-03-3.82831E-02-1.00108E+01-9.98942E-03 1.95026E-02-3.16295E+00-5.62232E-03-1.26121E-02-4.17274E-03 4.79589E+01-2.20681E+01-2.67227E+00



 n o d a l   p r i n t   o u t   f o r   t i m e  s t e p    6401                              ( at time 3.1996798E+00 )

 nodal point  x-rot      y-rot       z-rot       x-rot vel   y-rot vel   z-rot vel   x-rot acc   y-rot acc   z-rot acc
    22626  4.17786E-06-3.28200E-05-8.16834E-05 7.25549E-07-7.52622E-05-1.52295E-04 4.70587E-06-4.19058E-05-3.63632E-05



 n o d a l   p r i n t   o u t   f o r   t i m e  s t e p    6601                              ( at time 3.2996698E+00 )

 nodal point  x-disp     y-disp      z-disp      x-vel       y-vel       z-vel      x-accl      y-accl      z-accl      x-coor      y-coor      z-coor
    22626 -6.31703E-03-3.64350E-02-1.03270E+01-1.02246E-02 1.74442E-02-3.16255E+00-2.35186E-03-2.05862E-02 3.98676E-03 4.79579E+01-2.20662E+01-2.98851E+00



 n o d a l   p r i n t   o u t   f o r   t i m e  s t e p    6601                              ( at time 3.2996698E+00 )

 nodal point  x-rot      y-rot       z-rot       x-rot vel   y-rot vel   z-rot vel   x-rot acc   y-rot acc   z-rot acc
    22626  4.15301E-06-4.01904E-05-9.69089E-05-3.52550E-07-7.31724E-05-1.51269E-04-1.07821E-05 2.09002E-05 1.02630E-05



 n o d a l   p r i n t   o u t   f o r   t i m e  s t e p    6801                              ( at time 3.3996598E+00 )

 nodal point  x-disp     y-disp      z-disp      x-vel       y-vel       z-vel      x-accl      y-accl      z-accl      x-coor      y-coor      z-coor
    22626 -7.37147E-03-3.47825E-02-1.06432E+01-1.08121E-02 1.55580E-02-3.16247E+00-5.87617E-03-1.88633E-02 7.89243E-04 4.79568E+01-2.20646E+01-3.30473E+00



 n o d a l   p r i n t   o u t   f o r   t i m e  s t e p    6801                              ( at time 3.3996598E+00 )

 nodal point  x-rot      y-rot       z-rot       x-rot vel   y-rot vel   z-rot vel   x-rot acc   y-rot acc   z-rot acc
    22626  4.30512E-06-4.71725E-05-1.11844E-04-2.93458E-07-6.66880E-05-1.46188E-04 5.90977E-07 6.48505E-05 5.08138E-05



 n o d a l   p r i n t   o u t   f o r   t i m e  s t e p    7001                              ( at time 3.4996498E+00 )

 nodal point  x-disp     y-disp      z-disp      x-vel       y-vel       z-vel      x-accl      y-accl      z-accl      x-coor      y-coor      z-coor
    22626 -8.48946E-03-3.33114E-02-1.09595E+01-1.15180E-02 1.38494E-02-3.16258E+00-7.05960E-03-1.70875E-02-1.03961E-03 4.79557E+01-2.20631E+01-3.62096E+00



 n o d a l   p r i n t   o u t   f o r   t i m e  s t e p    7001                              ( at time 3.4996498E+00 )

 nodal point  x-rot      y-rot       z-rot       x-rot vel   y-rot vel   z-rot vel   x-rot acc   y-rot acc   z-rot acc
    22626  4.47111E-06-5.34411E-05-1.25547E-04 1.62328E-06-5.95457E-05-1.32364E-04 1.91693E-05 7.14295E-05 1.38247E-04



 n o d a l   p r i n t   o u t   f o r   t i m e  s t e p    7201                              ( at time 3.5996397E+00 )

 nodal point  x-disp     y-disp      z-disp      x-vel       y-vel       z-vel      x-accl      y-accl      z-accl      x-coor      y-coor      z-coor
    22626 -9.65752E-03-3.20477E-02-1.12757E+01-1.15448E-02 1.11110E-02-3.16216E+00-2.67307E-04-2.73870E-02 4.15844E-03 4.79545E+01-2.20618E+01-3.93717E+00



 n o d a l   p r i n t   o u t   f o r   t i m e  s t e p    7201                              ( at time 3.5996397E+00 )

 nodal point  x-rot      y-rot       z-rot       x-rot vel   y-rot vel   z-rot vel   x-rot acc   y-rot acc   z-rot acc
    22626  4.58070E-06-5.89442E-05-1.38029E-04 3.77014E-06-5.02573E-05-1.15219E-04 2.14708E-05 9.28940E-05 1.71472E-04



 n o d a l   p r i n t   o u t   f o r   t i m e  s t e p    7401                              ( at time 3.6996297E+00 )

 nodal point  x-disp     y-disp      z-disp      x-vel       y-vel       z-vel      x-accl      y-accl      z-accl      x-coor      y-coor      z-coor
    22626 -1.07934E-02-3.11104E-02-1.15918E+01-1.12346E-02 7.69024E-03-3.16125E+00 3.10172E-03-3.42111E-02 9.10610E-03 4.79534E+01-2.20609E+01-4.25331E+00



 n o d a l   p r i n t   o u t   f o r   t i m e  s t e p    7401                              ( at time 3.6996297E+00 )

 nodal point  x-rot      y-rot       z-rot       x-rot vel   y-rot vel   z-rot vel   x-rot acc   y-rot acc   z-rot acc
    22626  5.06153E-06-6.35901E-05-1.49216E-04 5.60504E-06-4.34143E-05-1.08317E-04 1.83509E-05 6.84368E-05 6.90231E-05



 n o d a l   p r i n t   o u t   f o r   t i m e  s t e p    7601                              ( at time 3.7996197E+00 )

 nodal point  x-disp     y-disp      z-disp      x-vel       y-vel       z-vel      x-accl      y-accl      z-accl      x-coor      y-coor      z-coor
    22626 -1.18957E-02-3.04835E-02-1.19079E+01-1.07525E-02 4.92880E-03-3.16045E+00 4.82136E-03-2.76172E-02 8.03075E-03 4.79523E+01-2.20603E+01-4.56936E+00



 n o d a l   p r i n t   o u t   f o r   t i m e  s t e p    7601                              ( at time 3.7996197E+00 )

 nodal point  x-rot      y-rot       z-rot       x-rot vel   y-rot vel   z-rot vel   x-rot acc   y-rot acc   z-rot acc
    22626  5.62249E-06-6.72702E-05-1.59102E-04 6.46074E-06-2.80025E-05-8.41214E-05 8.55781E-06 1.54133E-04 2.41983E-04



 n o d a l   p r i n t   o u t   f o r   t i m e  s t e p    7801                              ( at time 3.8996097E+00 )

 nodal point  x-disp     y-disp      z-disp      x-vel       y-vel       z-vel      x-accl      y-accl      z-accl      x-coor      y-coor      z-coor
    22626 -1.29433E-02-3.01015E-02-1.22239E+01-1.01854E-02 3.03913E-03-3.16036E+00 5.67175E-03-1.88986E-02 9.29924E-04 4.79512E+01-2.20599E+01-4.88537E+00



 n o d a l   p r i n t   o u t   f o r   t i m e  s t e p    7801                              ( at time 3.8996097E+00 )

 nodal point  x-rot      y-rot       z-rot       x-rot vel   y-rot vel   z-rot vel   x-rot acc   y-rot acc   z-rot acc
    22626  6.15642E-06-6.93238E-05-1.66034E-04 2.24449E-06-9.56972E-06-5.16932E-05-4.21667E-05 1.84346E-04 3.24314E-04



 n o d a l   p r i n t   o u t   f o r   t i m e  s t e p    8001                              ( at time 3.9995997E+00 )

 nodal point  x-disp     y-disp      z-disp      x-vel       y-vel       z-vel      x-accl      y-accl      z-accl      x-coor      y-coor      z-coor
    22626 -1.39248E-02-2.98465E-02-1.25399E+01-9.54407E-03 1.88778E-03-3.16079E+00 6.41408E-03-1.15146E-02-4.37542E-03 4.79503E+01-2.20596E+01-5.20140E+00



 n o d a l   p r i n t   o u t   f o r   t i m e  s t e p    8001                              ( at time 3.9995997E+00 )

 nodal point  x-rot      y-rot       z-rot       x-rot vel   y-rot vel   z-rot vel   x-rot acc   y-rot acc   z-rot acc
    22626  6.48710E-06-6.96192E-05-1.70078E-04 1.20004E-06 3.81390E-06-3.12951E-05-1.04455E-05 1.33850E-04 2.04001E-04



 n o d a l   p r i n t   o u t   f o r   t i m e  s t e p    8201                              ( at time 4.0995897E+00 )

 nodal point  x-disp     y-disp      z-disp      x-vel       y-vel       z-vel      x-accl      y-accl      z-accl      x-coor      y-coor      z-coor
    22626 -1.48021E-02-2.97777E-02-1.28559E+01-7.77915E-03-6.46413E-04-3.16025E+00 1.76509E-02-2.53444E-02 5.44125E-03 4.79494E+01-2.20596E+01-5.51742E+00



 n o d a l   p r i n t   o u t   f o r   t i m e  s t e p    8201                              ( at time 4.0995897E+00 )

 nodal point  x-rot      y-rot       z-rot       x-rot vel   y-rot vel   z-rot vel   x-rot acc   y-rot acc   z-rot acc
    22626  6.67921E-06-6.84829E-05-1.71937E-04 1.80802E-06 2.24782E-05-3.08606E-06 6.08039E-06 1.86661E-04 2.82119E-04



 n o d a l   p r i n t   o u t   f o r   t i m e  s t e p    8401                              ( at time 4.1995797E+00 )

 nodal point  x-disp     y-disp      z-disp      x-vel       y-vel       z-vel      x-accl      y-accl      z-accl      x-coor      y-coor      z-coor
    22626 -1.55022E-02-2.99709E-02-1.31719E+01-6.20042E-03-3.00306E-03-3.15968E+00 1.57889E-02-2.35688E-02 5.67732E-03 4.79487E+01-2.20598E+01-5.83339E+00



 n o d a l   p r i n t   o u t   f o r   t i m e  s t e p    8401                              ( at time 4.1995797E+00 )

 nodal point  x-rot      y-rot       z-rot       x-rot vel   y-rot vel   z-rot vel   x-rot acc   y-rot acc   z-rot acc
    22626  6.95792E-06-6.54124E-05-1.70219E-04 1.19507E-06 4.07747E-05 3.46086E-05-6.13013E-06 1.82984E-04 3.76985E-04



 n o d a l   p r i n t   o u t   f o r   t i m e  s t e p    8601                              ( at time 4.2995697E+00 )

 nodal point  x-disp     y-disp      z-disp      x-vel       y-vel       z-vel      x-accl      y-accl      z-accl      x-coor      y-coor      z-coor
    22626 -1.60581E-02-3.03827E-02-1.34878E+01-4.71941E-03-5.02916E-03-3.15976E+00 1.48116E-02-2.02631E-02-7.82092E-04 4.79481E+01-2.20602E+01-6.14932E+00



 n o d a l   p r i n t   o u t   f o r   t i m e  s t e p    8601                              ( at time 4.2995697E+00 )

 nodal point  x-rot      y-rot       z-rot       x-rot vel   y-rot vel   z-rot vel   x-rot acc   y-rot acc   z-rot acc
    22626  7.12378E-06-6.03322E-05-1.65353E-04 3.19174E-06 5.83578E-05 6.41168E-05 1.99687E-05 1.75849E-04 2.95111E-04



 n o d a l   p r i n t   o u t   f o r   t i m e  s t e p    8801                              ( at time 4.3995597E+00 )

 nodal point  x-disp     y-disp      z-disp      x-vel       y-vel       z-vel      x-accl      y-accl      z-accl      x-coor      y-coor      z-coor
    22626 -1.64572E-02-3.09170E-02-1.38038E+01-3.02256E-03-5.70237E-03-3.16037E+00 1.69703E-02-6.73280E-03-6.15182E-03 4.79477E+01-2.20607E+01-6.46529E+00



 n o d a l   p r i n t   o u t   f o r   t i m e  s t e p    8801                              ( at time 4.3995597E+00 )

 nodal point  x-rot      y-rot       z-rot       x-rot vel   y-rot vel   z-rot vel   x-rot acc   y-rot acc   z-rot acc
    22626  7.42786E-06-5.34013E-05-1.57017E-04 2.51158E-06 7.84201E-05 1.01768E-04-6.80221E-06 2.00643E-04 3.76553E-04



 n o d a l   p r i n t   o u t   f o r   t i m e  s t e p    9001                              ( at time 4.4995497E+00 )

 nodal point  x-disp     y-disp      z-disp      x-vel       y-vel       z-vel      x-accl      y-accl      z-accl      x-coor      y-coor      z-coor
    22626 -1.66865E-02-3.15882E-02-1.41198E+01-1.38064E-03-7.98565E-03-3.16005E+00 1.64207E-02-2.28349E-02 3.23088E-03 4.79475E+01-2.20614E+01-6.78129E+00



 n o d a l   p r i n t   o u t   f o r   t i m e  s t e p    9001                              ( at time 4.4995497E+00 )

 nodal point  x-rot      y-rot       z-rot       x-rot vel   y-rot vel   z-rot vel   x-rot acc   y-rot acc   z-rot acc
    22626  7.77450E-06-4.42785E-05-1.44764E-04 5.73874E-06 1.00080E-04 1.35387E-04 3.22746E-05 2.16619E-04 3.36218E-04



 n o d a l   p r i n t   o u t   f o r   t i m e  s t e p    9201                              ( at time 4.5995397E+00 )

 nodal point  x-disp     y-disp      z-disp      x-vel       y-vel       z-vel      x-accl      y-accl      z-accl      x-coor      y-coor      z-coor
    22626 -1.67210E-02-3.25289E-02-1.44357E+01 5.38529E-04-1.06872E-02-3.15964E+00 1.91937E-02-2.70187E-02 4.08214E-03 4.79475E+01-2.20623E+01-7.09724E+00



 n o d a l   p r i n t   o u t   f o r   t i m e  s t e p    9201                              ( at time 4.5995397E+00 )

 nodal point  x-rot      y-rot       z-rot       x-rot vel   y-rot vel   z-rot vel   x-rot acc   y-rot acc   z-rot acc
    22626  8.34158E-06-3.35124E-05-1.29830E-04 6.07477E-06 1.12454E-04 1.59398E-04 3.36071E-06 1.23752E-04 2.40132E-04



 n o d a l   p r i n t   o u t   f o r   t i m e  s t e p    9401                              ( at time 4.6995297E+00 )

 nodal point  x-disp     y-disp      z-disp      x-vel       y-vel       z-vel      x-accl      y-accl      z-accl      x-coor      y-coor      z-coor
    22626 -1.65559E-02-3.36652E-02-1.47517E+01 2.58446E-03-1.20075E-02-3.15967E+00 2.04614E-02-1.32035E-02-2.98053E-04 4.79476E+01-2.20635E+01-7.41316E+00



 n o d a l   p r i n t   o u t   f o r   t i m e  s t e p    9401                              ( at time 4.6995297E+00 )

 nodal point  x-rot      y-rot       z-rot       x-rot vel   y-rot vel   z-rot vel   x-rot acc   y-rot acc   z-rot acc
    22626  8.93761E-06-2.10730E-05-1.11713E-04 5.41164E-06 1.36016E-04 1.99919E-04-6.63200E-06 2.35642E-04 4.05251E-04



 n o d a l   p r i n t   o u t   f o r   t i m e  s t e p    9601                              ( at time 4.7995197E+00 )

 nodal point  x-disp     y-disp      z-disp      x-vel       y-vel       z-vel      x-accl      y-accl      z-accl      x-coor      y-coor      z-coor
    22626 -1.62028E-02-3.49177E-02-1.50676E+01 4.35310E-03-1.28607E-02-3.16011E+00 1.76882E-02-8.53311E-03-4.33012E-03 4.79480E+01-2.20647E+01-7.72912E+00



 n o d a l   p r i n t   o u t   f o r   t i m e  s t e p    9601                              ( at time 4.7995197E+00 )

 nodal point  x-rot      y-rot       z-rot       x-rot vel   y-rot vel   z-rot vel   x-rot acc   y-rot acc   z-rot acc
    22626  9.51840E-06-6.34961E-06-8.99434E-05 2.97664E-06 1.58586E-04 2.34475E-04-2.43524E-05 2.25722E-04 3.45602E-04



 n o d a l   p r i n t   o u t   f o r   t i m e  s t e p    9801                              ( at time 4.8995097E+00 )

 nodal point  x-disp     y-disp      z-disp      x-vel       y-vel       z-vel      x-accl      y-accl      z-accl      x-coor      y-coor      z-coor
    22626 -1.56685E-02-3.62440E-02-1.53836E+01 6.18305E-03-1.37374E-02-3.16050E+00 1.83013E-02-8.76761E-03-3.89377E-03 4.79485E+01-2.20660E+01-8.04512E+00



 n o d a l   p r i n t   o u t   f o r   t i m e  s t e p    9801                              ( at time 4.8995097E+00 )

 nodal point  x-rot      y-rot       z-rot       x-rot vel   y-rot vel   z-rot vel   x-rot acc   y-rot acc   z-rot acc
    22626  9.79447E-06 1.01696E-05-6.51789E-05 3.09409E-06 1.69591E-04 2.56092E-04 1.17457E-06 1.10062E-04 2.16189E-04



 n o d a l   p r i n t   o u t   f o r   t i m e  s t e p   10001                              ( at time 4.9994997E+00 )

 nodal point  x-disp     y-disp      z-disp      x-vel       y-vel       z-vel      x-accl      y-accl      z-accl      x-coor      y-coor      z-coor
    22626 -1.49376E-02-3.77001E-02-1.56996E+01 8.34526E-03-1.53773E-02-3.16051E+00 2.16242E-02-1.64011E-02-1.04914E-04 4.79492E+01-2.20675E+01-8.36114E+00



 n o d a l   p r i n t   o u t   f o r   t i m e  s t e p   10001                              ( at time 4.9994997E+00 )

 nodal point  x-rot      y-rot       z-rot       x-rot vel   y-rot vel   z-rot vel   x-rot acc   y-rot acc   z-rot acc
    22626  1.00884E-05 2.78898E-05-3.82299E-05 2.94371E-06 1.82245E-04 2.79412E-04-1.50392E-06 1.26554E-04 2.33221E-04



 n o d a l   p r i n t   o u t   f o r   t i m e  s t e p   10202                              ( at time 5.0999896E+00 )

 nodal point  x-disp     y-disp      z-disp      x-vel       y-vel       z-vel      x-accl      y-accl      z-accl      x-coor      y-coor      z-coor
    22626 -1.39951E-02-3.92901E-02-1.60172E+01 1.03743E-02-1.60056E-02-3.16090E+00 2.01916E-02-6.25217E-03-3.96931E-03 4.79502E+01-2.20691E+01-8.67875E+00



 n o d a l   p r i n t   o u t   f o r   t i m e  s t e p   10202                              ( at time 5.0999896E+00 )

 nodal point  x-rot      y-rot       z-rot       x-rot vel   y-rot vel   z-rot vel   x-rot acc   y-rot acc   z-rot acc
    22626  1.03271E-05 4.72100E-05-8.77603E-06 2.40433E-06 1.98087E-04 3.03843E-04-5.36752E-06 1.57648E-04 2.43118E-04



 n o d a l   p r i n t   o u t   f o r   t i m e  s t e p   10402                              ( at time 5.1999796E+00 )

 nodal point  x-disp     y-disp      z-disp      x-vel       y-vel       z-vel      x-accl      y-accl      z-accl      x-coor      y-coor      z-coor
    22626 -1.28931E-02-4.08771E-02-1.63334E+01 1.16610E-02-1.53910E-02-3.16224E+00 1.28684E-02 6.14667E-03-1.33837E-02 4.79513E+01-2.20707E+01-8.99487E+00



 n o d a l   p r i n t   o u t   f o r   t i m e  s t e p   10402                              ( at time 5.1999796E+00 )

 nodal point  x-rot      y-rot       z-rot       x-rot vel   y-rot vel   z-rot vel   x-rot acc   y-rot acc   z-rot acc
    22626  1.06512E-05 6.76890E-05 2.26174E-05 3.83642E-06 2.07103E-04 3.22062E-04 1.43223E-05 9.01737E-05 1.82205E-04



 n o d a l   p r i n t   o u t   f o r   t i m e  s t e p   10602                              ( at time 5.2999696E+00 )

 nodal point  x-disp     y-disp      z-disp      x-vel       y-vel       z-vel      x-accl      y-accl      z-accl      x-coor      y-coor      z-coor
    22626 -1.16720E-02-4.23512E-02-1.66497E+01 1.27734E-02-1.42690E-02-3.16408E+00 1.11247E-02 1.12209E-02-1.83601E-02 4.79525E+01-2.20721E+01-9.31116E+00



 n o d a l   p r i n t   o u t   f o r   t i m e  s t e p   10602                              ( at time 5.2999696E+00 )

 nodal point  x-rot      y-rot       z-rot       x-rot vel   y-rot vel   z-rot vel   x-rot acc   y-rot acc   z-rot acc
    22626  1.09364E-05 8.88049E-05 5.52296E-05 2.38196E-06 2.12694E-04 3.30903E-04-1.45461E-05 5.59089E-05 8.84223E-05



 n o d a l   p r i n t   o u t   f o r   t i m e  s t e p   10802                              ( at time 5.3999596E+00 )

 nodal point  x-disp     y-disp      z-disp      x-vel       y-vel       z-vel      x-accl      y-accl      z-accl      x-coor      y-coor      z-coor
    22626 -1.03523E-02-4.37223E-02-1.69661E+01 1.39111E-02-1.31910E-02-3.16561E+00 1.13782E-02 1.07813E-02-1.52889E-02 4.79538E+01-2.20735E+01-9.62761E+00



 n o d a l   p r i n t   o u t   f o r   t i m e  s t e p   10802                              ( at time 5.3999596E+00 )

 nodal point  x-rot      y-rot       z-rot       x-rot vel   y-rot vel   z-rot vel   x-rot acc   y-rot acc   z-rot acc
    22626  1.13746E-05 1.10319E-04 8.85317E-05 6.76917E-06 2.15536E-04 3.31545E-04 4.38765E-05 2.84280E-05 6.41833E-06



 n o d a l   p r i n t   o u t   f o r   t i m e  s t e p   11002                              ( at time 5.4999496E+00 )

 nodal point  x-disp     y-disp      z-disp      x-vel       y-vel       z-vel      x-accl      y-accl      z-accl      x-coor      y-coor      z-coor
    22626 -8.89421E-03-4.49866E-02-1.72827E+01 1.50993E-02-1.17544E-02-3.16671E+00 1.18831E-02 1.43669E-02-1.10137E-02 4.79553E+01-2.20748E+01-9.94421E+00



 n o d a l   p r i n t   o u t   f o r   t i m e  s t e p   11002                              ( at time 5.4999496E+00 )

 nodal point  x-rot      y-rot       z-rot       x-rot vel   y-rot vel   z-rot vel   x-rot acc   y-rot acc   z-rot acc
    22626  1.18294E-05 1.32246E-04 1.22354E-04 4.18364E-06 2.22829E-04 3.36606E-04-2.58578E-05 7.29355E-05 5.06187E-05



 n o d a l   p r i n t   o u t   f o r   t i m e  s t e p   11202                              ( at time 5.5999396E+00 )

 nodal point  x-disp     y-disp      z-disp      x-vel       y-vel       z-vel      x-accl      y-accl      z-accl      x-coor      y-coor      z-coor
    22626 -7.35397E-03-4.60284E-02-1.75994E+01 1.55103E-02-9.20746E-03-3.16769E+00 4.11094E-03 2.54724E-02-9.81668E-03 4.79568E+01-2.20758E+01-1.02609E+01



 n o d a l   p r i n t   o u t   f o r   t i m e  s t e p   11202                              ( at time 5.5999396E+00 )

 nodal point  x-rot      y-rot       z-rot       x-rot vel   y-rot vel   z-rot vel   x-rot acc   y-rot acc   z-rot acc
    22626  1.24167E-05 1.55508E-04 1.56189E-04 2.85870E-06 2.46142E-04 3.39097E-04-1.32508E-05 2.33150E-04 2.49139E-05



 n o d a l   p r i n t   o u t   f o r   t i m e  s t e p   11402                              ( at time 5.6999296E+00 )

 nodal point  x-disp     y-disp      z-disp      x-vel       y-vel       z-vel      x-accl      y-accl      z-accl      x-coor      y-coor      z-coor
    22626 -5.79576E-03-4.67972E-02-1.79161E+01 1.56549E-02-6.18975E-03-3.16731E+00 1.44619E-03 3.01800E-02 3.76261E-03 4.79584E+01-2.20766E+01-1.05776E+01



 n o d a l   p r i n t   o u t   f o r   t i m e  s t e p   11402                              ( at time 5.6999296E+00 )

 nodal point  x-rot      y-rot       z-rot       x-rot vel   y-rot vel   z-rot vel   x-rot acc   y-rot acc   z-rot acc
    22626  1.27387E-05 1.81945E-04 1.89849E-04 1.65694E-06 2.84284E-04 3.30387E-04-1.20187E-05 3.81456E-04-8.71144E-05



 n o d a l   p r i n t   o u t   f o r   t i m e  s t e p   11602                              ( at time 5.7999195E+00 )

 nodal point  x-disp     y-disp      z-disp      x-vel       y-vel       z-vel      x-accl      y-accl      z-accl      x-coor      y-coor      z-coor
    22626 -4.19594E-03-4.72982E-02-1.82327E+01 1.63041E-02-4.03438E-03-3.16476E+00 6.49210E-03 2.15559E-02 2.55253E-02 4.79600E+01-2.20771E+01-1.08942E+01



 n o d a l   p r i n t   o u t   f o r   t i m e  s t e p   11602                              ( at time 5.7999195E+00 )

 nodal point  x-rot      y-rot       z-rot       x-rot vel   y-rot vel   z-rot vel   x-rot acc   y-rot acc   z-rot acc
    22626  1.29340E-05 2.13401E-04 2.22731E-04 7.73063E-07 3.44557E-04 3.22888E-04-8.83969E-06 6.02798E-04-7.49936E-05



 n o d a l   p r i n t   o u t   f o r   t i m e  s t e p   11802                              ( at time 5.8999095E+00 )

 nodal point  x-disp     y-disp      z-disp      x-vel       y-vel       z-vel      x-accl      y-accl      z-accl      x-coor      y-coor      z-coor
    22626 -2.52064E-03-4.76548E-02-1.85489E+01 1.71055E-02-3.12273E-03-3.15963E+00 8.01516E-03 9.11741E-03 5.13462E-02 4.79617E+01-2.20774E+01-1.12104E+01



 n o d a l   p r i n t   o u t   f o r   t i m e  s t e p   11802                              ( at time 5.8999095E+00 )

 nodal point  x-rot      y-rot       z-rot       x-rot vel   y-rot vel   z-rot vel   x-rot acc   y-rot acc   z-rot acc
    22626  1.24442E-05 2.51679E-04 2.54750E-04-8.96763E-06 4.27231E-04 3.16865E-04-9.74168E-05 8.26819E-04-6.02321E-05



 n o d a l   p r i n t   o u t   f o r   t i m e  s t e p   12002                              ( at time 5.9998995E+00 )

 nodal point  x-disp     y-disp      z-disp      x-vel       y-vel       z-vel      x-accl      y-accl      z-accl      x-coor      y-coor      z-coor
    22626 -8.44995E-04-4.78737E-02-1.88645E+01 1.63192E-02-1.13933E-03-3.15221E+00-7.86376E-03 1.98360E-02 7.41557E-02 4.79633E+01-2.20777E+01-1.15260E+01



 n o d a l   p r i n t   o u t   f o r   t i m e  s t e p   12002                              ( at time 5.9998995E+00 )

 nodal point  x-rot      y-rot       z-rot       x-rot vel   y-rot vel   z-rot vel   x-rot acc   y-rot acc   z-rot acc
    22626  1.21960E-05 3.00541E-04 2.84986E-04 4.34957E-06 5.55627E-04 2.90224E-04 1.33185E-04 1.28409E-03-2.66438E-04



 n o d a l   p r i n t   o u t   f o r   t i m e  s t e p   12202                              ( at time 6.0998895E+00 )

 nodal point  x-disp     y-disp      z-disp      x-vel       y-vel       z-vel      x-accl      y-accl      z-accl      x-coor      y-coor      z-coor
    22626  7.29642E-04-4.78678E-02-1.91792E+01 1.52534E-02 1.35974E-03-3.14093E+00-1.06596E-02 2.49931E-02 1.12883E-01 4.79649E+01-2.20777E+01-1.18407E+01



 n o d a l   p r i n t   o u t   f o r   t i m e  s t e p   12202                              ( at time 6.0998895E+00 )

 nodal point  x-rot      y-rot       z-rot       x-rot vel   y-rot vel   z-rot vel   x-rot acc   y-rot acc   z-rot acc
    22626  1.32355E-05 3.64588E-04 3.11943E-04 1.90528E-05 7.32450E-04 2.49674E-04 1.47047E-04 1.76840E-03-4.05546E-04



 n o d a l   p r i n t   o u t   f o r   t i m e  s t e p   12402                              ( at time 6.1998795E+00 )

 nodal point  x-disp     y-disp      z-disp      x-vel       y-vel       z-vel      x-accl      y-accl      z-accl      x-coor      y-coor      z-coor
    22626  2.19785E-03-4.76392E-02-1.94925E+01 1.38960E-02 3.13001E-03-3.12642E+00-1.35748E-02 1.77044E-02 1.45092E-01 4.79664E+01-2.20774E+01-1.21540E+01



 n o d a l   p r i n t   o u t   f o r   t i m e  s t e p   12402                              ( at time 6.1998795E+00 )

 nodal point  x-rot      y-rot       z-rot       x-rot vel   y-rot vel   z-rot vel   x-rot acc   y-rot acc   z-rot acc
    22626  1.64789E-05 4.48850E-04 3.35230E-04 4.62063E-05 9.62758E-04 2.16184E-04 2.71562E-04 2.30331E-03-3.34933E-04



 n o d a l   p r i n t   o u t   f o r   t i m e  s t e p   12602                              ( at time 6.2998695E+00 )

 nodal point  x-disp     y-disp      z-disp      x-vel       y-vel       z-vel      x-accl      y-accl      z-accl      x-coor      y-coor      z-coor
    22626  3.51482E-03-4.72552E-02-1.98043E+01 1.23122E-02 4.66985E-03-3.10825E+00-1.58402E-02 1.54000E-02 1.81736E-01 4.79677E+01-2.20770E+01-1.24657E+01



 n o d a l   p r i n t   o u t   f o r   t i m e  s t e p   12602                              ( at time 6.2998695E+00 )

 nodal point  x-rot      y-rot       z-rot       x-rot vel   y-rot vel   z-rot vel   x-rot acc   y-rot acc   z-rot acc
    22626  2.19568E-05 5.58249E-04 3.54401E-04 7.33495E-05 1.22877E-03 1.62010E-04 2.71459E-04 2.66042E-03-5.41797E-04



 n o d a l   p r i n t   o u t   f o r   t i m e  s t e p   12802                              ( at time 6.3998595E+00 )

 nodal point  x-disp     y-disp      z-disp      x-vel       y-vel       z-vel      x-accl      y-accl      z-accl      x-coor      y-coor      z-coor
    22626  4.61188E-03-4.66772E-02-2.01139E+01 9.40862E-03 7.63518E-03-3.08565E+00-2.90385E-02 2.96564E-02 2.25989E-01 4.79688E+01-2.20765E+01-1.27754E+01



 n o d a l   p r i n t   o u t   f o r   t i m e  s t e p   12802                              ( at time 6.3998595E+00 )

 nodal point  x-rot      y-rot       z-rot       x-rot vel   y-rot vel   z-rot vel   x-rot acc   y-rot acc   z-rot acc
    22626  3.23139E-05 6.98134E-04 3.67482E-04 1.40488E-04 1.57773E-03 9.66605E-05 6.71453E-04 3.48991E-03-6.53556E-04



 n o d a l   p r i n t   o u t   f o r   t i m e  s t e p   13002                              ( at time 6.4998495E+00 )

 nodal point  x-disp     y-disp      z-disp      x-vel       y-vel       z-vel      x-accl      y-accl      z-accl      x-coor      y-coor      z-coor
    22626  5.38549E-03-4.57604E-02-2.04213E+01 6.12389E-03 1.07295E-02-3.06145E+00-3.28506E-02 3.09468E-02 2.42015E-01 4.79696E+01-2.20756E+01-1.30828E+01



 n o d a l   p r i n t   o u t   f o r   t i m e  s t e p   13002                              ( at time 6.4998495E+00 )

 nodal point  x-rot      y-rot       z-rot       x-rot vel   y-rot vel   z-rot vel   x-rot acc   y-rot acc   z-rot acc
    22626  4.93941E-05 8.74237E-04 3.74426E-04 1.97958E-04 1.95172E-03 4.48419E-05 5.74754E-04 3.74033E-03-5.18238E-04



 n o d a l   p r i n t   o u t   f o r   t i m e  s t e p   13202                              ( at time 6.5998395E+00 )

 nodal point  x-disp     y-disp      z-disp      x-vel       y-vel       z-vel      x-accl      y-accl      z-accl      x-coor      y-coor      z-coor
    22626  5.78711E-03-4.45255E-02-2.07260E+01 2.05261E-03 1.44521E-02-3.03361E+00-4.07167E-02 3.72294E-02 2.78385E-01 4.79700E+01-2.20743E+01-1.33875E+01



 n o d a l   p r i n t   o u t   f o r   t i m e  s t e p   13202                              ( at time 6.5998395E+00 )

 nodal point  x-rot      y-rot       z-rot       x-rot vel   y-rot vel   z-rot vel   x-rot acc   y-rot acc   z-rot acc
    22626  7.24350E-05 1.09012E-03 3.75207E-04 2.74292E-04 2.35928E-03-3.91411E-05 7.63421E-04 4.07595E-03-8.39911E-04



 n o d a l   p r i n t   o u t   f o r   t i m e  s t e p   13402                              ( at time 6.6998295E+00 )

 nodal point  x-disp     y-disp      z-disp      x-vel       y-vel       z-vel      x-accl      y-accl      z-accl      x-coor      y-coor      z-coor
    22626  5.74983E-03-4.29214E-02-2.10278E+01-2.82387E-03 1.72990E-02-3.00282E+00-4.87697E-02 2.84714E-02 3.07951E-01 4.79699E+01-2.20727E+01-1.36893E+01



 n o d a l   p r i n t   o u t   f o r   t i m e  s t e p   13402                              ( at time 6.6998295E+00 )

 nodal point  x-rot      y-rot       z-rot       x-rot vel   y-rot vel   z-rot vel   x-rot acc   y-rot acc   z-rot acc
    22626  1.05118E-04 1.34826E-03 3.68380E-04 3.76801E-04 2.80381E-03-1.00024E-04 1.02519E-03 4.44579E-03-6.08892E-04



 n o d a l   p r i n t   o u t   f o r   t i m e  s t e p   13602                              ( at time 6.7998195E+00 )

 nodal point  x-disp     y-disp      z-disp      x-vel       y-vel       z-vel      x-accl      y-accl      z-accl      x-coor      y-coor      z-coor
    22626  5.23335E-03-4.10639E-02-2.13264E+01-7.61170E-03 2.02578E-02-2.96988E+00-4.78831E-02 2.95908E-02 3.29494E-01 4.79694E+01-2.20709E+01-1.39879E+01



 n o d a l   p r i n t   o u t   f o r   t i m e  s t e p   13602                              ( at time 6.7998195E+00 )

 nodal point  x-rot      y-rot       z-rot       x-rot vel   y-rot vel   z-rot vel   x-rot acc   y-rot acc   z-rot acc
    22626  1.46957E-04 1.65057E-03 3.55565E-04 4.70177E-04 3.24109E-03-1.62131E-04 9.33852E-04 4.37319E-03-6.21134E-04



 n o d a l   p r i n t   o u t   f o r   t i m e  s t e p   13802                              ( at time 6.8998095E+00 )

 nodal point  x-disp     y-disp      z-disp      x-vel       y-vel       z-vel      x-accl      y-accl      z-accl      x-coor      y-coor      z-coor
    22626  4.22057E-03-3.89239E-02-2.16216E+01-1.33414E-02 2.31204E-02-2.93499E+00-5.73026E-02 2.86296E-02 3.48932E-01 4.79684E+01-2.20687E+01-1.42831E+01



 n o d a l   p r i n t   o u t   f o r   t i m e  s t e p   13802                              ( at time 6.8998095E+00 )

 nodal point  x-rot      y-rot       z-rot       x-rot vel   y-rot vel   z-rot vel   x-rot acc   y-rot acc   z-rot acc
    22626  1.98698E-04 1.99765E-03 3.37287E-04 5.73488E-04 3.68996E-03-2.16106E-04 1.03322E-03 4.48914E-03-5.39807E-04



 n o d a l   p r i n t   o u t   f o r   t i m e  s t e p   14002                              ( at time 6.9997995E+00 )

 nodal point  x-disp     y-disp      z-disp      x-vel       y-vel       z-vel      x-accl      y-accl      z-accl      x-coor      y-coor      z-coor
    22626  2.66690E-03-3.64505E-02-2.19132E+01-1.77565E-02 2.63010E-02-2.89768E+00-4.41556E-02 3.18085E-02 3.73055E-01 4.79668E+01-2.20662E+01-1.45747E+01



 n o d a l   p r i n t   o u t   f o r   t i m e  s t e p   14002                              ( at time 6.9997995E+00 )

 nodal point  x-rot      y-rot       z-rot       x-rot vel   y-rot vel   z-rot vel   x-rot acc   y-rot acc   z-rot acc
    22626  2.61642E-04 2.38911E-03 3.13112E-04 6.93174E-04 4.12687E-03-2.66681E-04 1.19698E-03 4.36954E-03-5.05793E-04



 n o d a l   p r i n t   o u t   f o r   t i m e  s t e p   14202                              ( at time 7.0997895E+00 )

 nodal point  x-disp     y-disp      z-disp      x-vel       y-vel       z-vel      x-accl      y-accl      z-accl      x-coor      y-coor      z-coor
    22626  5.85971E-04-3.37762E-02-2.22010E+01-2.32323E-02 2.71213E-02-2.85759E+00-5.47634E-02 8.20423E-03 4.00978E-01 4.79648E+01-2.20636E+01-1.48625E+01



 n o d a l   p r i n t   o u t   f o r   t i m e  s t e p   14202                              ( at time 7.0997895E+00 )

 nodal point  x-rot      y-rot       z-rot       x-rot vel   y-rot vel   z-rot vel   x-rot acc   y-rot acc   z-rot acc
    22626  3.36752E-04 2.82225E-03 2.85562E-04 8.00909E-04 4.52923E-03-2.87510E-04 1.07746E-03 4.02399E-03-2.08319E-04



 n o d a l   p r i n t   o u t   f o r   t i m e  s t e p   14402                              ( at time 7.1997794E+00 )

 nodal point  x-disp     y-disp      z-disp      x-vel       y-vel       z-vel      x-accl      y-accl      z-accl      x-coor      y-coor      z-coor
    22626 -1.91690E-03-3.10427E-02-2.24847E+01-2.72680E-02 2.74810E-02-2.81499E+00-4.03607E-02 3.59728E-03 4.26009E-01 4.79623E+01-2.20608E+01-1.51462E+01



 n o d a l   p r i n t   o u t   f o r   t i m e  s t e p   14402                              ( at time 7.1997794E+00 )

 nodal point  x-rot      y-rot       z-rot       x-rot vel   y-rot vel   z-rot vel   x-rot acc   y-rot acc   z-rot acc
    22626  4.26013E-04 3.29448E-03 2.55637E-04 9.70203E-04 4.91455E-03-2.97507E-04 1.69311E-03 3.85365E-03-9.99751E-05



 n o d a l   p r i n t   o u t   f o r   t i m e  s t e p   14602                              ( at time 7.2997694E+00 )

 nodal point  x-disp     y-disp      z-disp      x-vel       y-vel       z-vel      x-accl      y-accl      z-accl      x-coor      y-coor      z-coor
    22626 -4.80608E-03-2.81806E-02-2.27639E+01-2.99564E-02 2.90142E-02-2.77091E+00-2.68875E-02 1.53338E-02 4.40873E-01 4.79594E+01-2.20580E+01-1.54254E+01



 n o d a l   p r i n t   o u t   f o r   t i m e  s t e p   14602                              ( at time 7.2997694E+00 )

 nodal point  x-rot      y-rot       z-rot       x-rot vel   y-rot vel   z-rot vel   x-rot acc   y-rot acc   z-rot acc
    22626  5.31646E-04 3.80357E-03 2.24235E-04 1.14695E-03 5.24436E-03-3.25814E-04 1.76763E-03 3.29843E-03-2.83102E-04



 n o d a l   p r i n t   o u t   f o r   t i m e  s t e p   14802                              ( at time 7.3997594E+00 )

 nodal point  x-disp     y-disp      z-disp      x-vel       y-vel       z-vel      x-accl      y-accl      z-accl      x-coor      y-coor      z-coor
    22626 -7.97129E-03-2.52820E-02-2.30386E+01-3.36128E-02 2.93738E-02-2.72459E+00-3.65674E-02 3.59650E-03 4.63258E-01 4.79562E+01-2.20551E+01-1.57001E+01



 n o d a l   p r i n t   o u t   f o r   t i m e  s t e p   14802                              ( at time 7.3997594E+00 )

 nodal point  x-rot      y-rot       z-rot       x-rot vel   y-rot vel   z-rot vel   x-rot acc   y-rot acc   z-rot acc
    22626  6.54476E-04 4.34564E-03 1.92089E-04 1.32312E-03 5.58100E-03-3.23994E-04 1.76192E-03 3.36671E-03 1.82057E-05



 n o d a l   p r i n t   o u t   f o r   t i m e  s t e p   15002                              ( at time 7.4997494E+00 )

 nodal point  x-disp     y-disp      z-disp      x-vel       y-vel       z-vel      x-accl      y-accl      z-accl      x-coor      y-coor      z-coor
    22626 -1.14188E-02-2.24077E-02-2.33085E+01-3.49042E-02 2.74055E-02-2.67330E+00-1.29151E-02-1.96847E-02 5.12926E-01 4.79528E+01-2.20522E+01-1.59700E+01



 n o d a l   p r i n t   o u t   f o r   t i m e  s t e p   15002                              ( at time 7.4997494E+00 )

 nodal point  x-rot      y-rot       z-rot       x-rot vel   y-rot vel   z-rot vel   x-rot acc   y-rot acc   z-rot acc
    22626  7.96037E-04 4.91808E-03 1.61467E-04 1.51294E-03 5.88435E-03-2.86195E-04 1.89832E-03 3.03384E-03 3.78022E-04



 n o d a l   p r i n t   o u t   f o r   t i m e  s t e p   15202                              ( at time 7.5997394E+00 )

 nodal point  x-disp     y-disp      z-disp      x-vel       y-vel       z-vel      x-accl      y-accl      z-accl      x-coor      y-coor      z-coor
    22626 -1.49295E-02-1.96223E-02-2.35734E+01-3.69008E-02 2.88924E-02-2.62374E+00-1.99681E-02 1.48701E-02 4.95725E-01 4.79492E+01-2.20494E+01-1.62349E+01



 n o d a l   p r i n t   o u t   f o r   t i m e  s t e p   15202                              ( at time 7.5997394E+00 )

 nodal point  x-rot      y-rot       z-rot       x-rot vel   y-rot vel   z-rot vel   x-rot acc   y-rot acc   z-rot acc
    22626  9.57811E-04 5.51770E-03 1.32276E-04 1.73107E-03 6.11701E-03-2.95485E-04 2.18155E-03 2.32680E-03-9.29007E-05



 n o d a l   p r i n t   o u t   f o r   t i m e  s t e p   15402                              ( at time 7.6997294E+00 )

 nodal point  x-disp     y-disp      z-disp      x-vel       y-vel       z-vel      x-accl      y-accl      z-accl      x-coor      y-coor      z-coor
    22626 -1.85464E-02-1.68059E-02-2.38330E+01-3.55525E-02 2.74648E-02-2.57028E+00 1.34843E-02-1.42777E-02 5.34624E-01 4.79456E+01-2.20466E+01-1.64945E+01



 n o d a l   p r i n t   o u t   f o r   t i m e  s t e p   15402                              ( at time 7.6997294E+00 )

 nodal point  x-rot      y-rot       z-rot       x-rot vel   y-rot vel   z-rot vel   x-rot acc   y-rot acc   z-rot acc
    22626  1.14189E-03 6.14301E-03 1.02907E-04 1.96557E-03 6.36841E-03-2.86131E-04 2.34521E-03 2.51427E-03 9.35477E-05



 n o d a l   p r i n t   o u t   f o r   t i m e  s t e p   15602                              ( at time 7.7997194E+00 )

 nodal point  x-disp     y-disp      z-disp      x-vel       y-vel       z-vel      x-accl      y-accl      z-accl      x-coor      y-coor      z-coor
    22626 -2.19880E-02-1.41555E-02-2.40870E+01-3.28017E-02 2.56887E-02-2.51043E+00 2.75110E-02-1.77623E-02 5.98508E-01 4.79422E+01-2.20439E+01-1.67485E+01



 n o d a l   p r i n t   o u t   f o r   t i m e  s t e p   15602                              ( at time 7.7997194E+00 )

 nodal point  x-rot      y-rot       z-rot       x-rot vel   y-rot vel   z-rot vel   x-rot acc   y-rot acc   z-rot acc
    22626  1.35006E-03 6.79117E-03 7.91991E-05 2.21732E-03 6.62337E-03-1.78737E-04 2.51780E-03 2.54984E-03 1.07405E-03



 n o d a l   p r i n t   o u t   f o r   t i m e  s t e p   15802                              ( at time 7.8997094E+00 )

 nodal point  x-disp     y-disp      z-disp      x-vel       y-vel       z-vel      x-accl      y-accl      z-accl      x-coor      y-coor      z-coor
    22626 -2.52516E-02-1.14258E-02-2.43352E+01-3.26269E-02 2.95625E-02-2.45298E+00 1.74816E-03 3.87414E-02 5.74551E-01 4.79389E+01-2.20412E+01-1.69967E+01



 n o d a l   p r i n t   o u t   f o r   t i m e  s t e p   15802                              ( at time 7.8997094E+00 )

 nodal point  x-rot      y-rot       z-rot       x-rot vel   y-rot vel   z-rot vel   x-rot acc   y-rot acc   z-rot acc
    22626  1.58373E-03 7.45899E-03 5.73032E-05 2.47773E-03 6.71477E-03-2.36816E-04 2.60437E-03 9.14148E-04-5.80851E-04



 n o d a l   p r i n t   o u t   f o r   t i m e  s t e p   16002                              ( at time 7.9996994E+00 )

 nodal point  x-disp     y-disp      z-disp      x-vel       y-vel       z-vel      x-accl      y-accl      z-accl      x-coor      y-coor      z-coor
    22626 -2.82127E-02-8.69392E-03-2.45774E+01-2.74832E-02 2.63277E-02-2.38965E+00 5.14418E-02-3.23504E-02 6.33430E-01 4.79360E+01-2.20385E+01-1.72389E+01



 n o d a l   p r i n t   o u t   f o r   t i m e  s t e p   16002                              ( at time 7.9996994E+00 )

 nodal point  x-rot      y-rot       z-rot       x-rot vel   y-rot vel   z-rot vel   x-rot acc   y-rot acc   z-rot acc
    22626  1.84652E-03 8.14485E-03 3.99466E-05 2.78233E-03 6.97911E-03-1.23085E-04 3.04626E-03 2.64364E-03 1.13742E-03



 n o d a l   p r i n t   o u t   f o r   t i m e  s t e p   16202                              ( at time 8.0996894E+00 )

 nodal point  x-disp     y-disp      z-disp      x-vel       y-vel       z-vel      x-accl      y-accl      z-accl      x-coor      y-coor      z-coor
    22626 -3.06063E-02-5.98623E-03-2.48131E+01-1.92197E-02 2.71512E-02-2.32490E+00 8.26436E-02 8.23492E-03 6.47513E-01 4.79336E+01-2.20358E+01-1.74746E+01



 n o d a l   p r i n t   o u t   f o r   t i m e  s t e p   16202                              ( at time 8.0996894E+00 )

 nodal point  x-rot      y-rot       z-rot       x-rot vel   y-rot vel   z-rot vel   x-rot acc   y-rot acc   z-rot acc
    22626  2.14181E-03 8.84867E-03 2.76348E-05 3.11509E-03 7.11852E-03-1.05021E-04 3.32792E-03 1.39424E-03 1.80657E-04



 n o d a l   p r i n t   o u t   f o r   t i m e  s t e p   16402                              ( at time 8.1996794E+00 )

 nodal point  x-disp     y-disp      z-disp      x-vel       y-vel       z-vel      x-accl      y-accl      z-accl      x-coor      y-coor      z-coor
    22626 -3.23740E-02-3.14081E-03-2.50424E+01-1.38610E-02 2.91850E-02-2.25971E+00 5.35925E-02 2.03409E-02 6.52002E-01 4.79318E+01-2.20329E+01-1.77039E+01



 n o d a l   p r i n t   o u t   f o r   t i m e  s t e p   16402                              ( at time 8.1996794E+00 )

 nodal point  x-rot      y-rot       z-rot       x-rot vel   y-rot vel   z-rot vel   x-rot acc   y-rot acc   z-rot acc
    22626  2.47106E-03 9.56538E-03 1.97167E-05 3.44803E-03 7.23757E-03-3.62715E-05 3.32972E-03 1.19057E-03 6.87568E-04



 n o d a l   p r i n t   o u t   f o r   t i m e  s t e p   16602                              ( at time 8.2996694E+00 )

 nodal point  x-disp     y-disp      z-disp      x-vel       y-vel       z-vel      x-accl      y-accl      z-accl      x-coor      y-coor      z-coor
    22626 -3.35013E-02-1.13558E-04-2.52648E+01-6.82342E-03 2.96377E-02-2.18884E+00 7.03824E-02 4.52724E-03 7.08728E-01 4.79307E+01-2.20299E+01-1.79263E+01



 n o d a l   p r i n t   o u t   f o r   t i m e  s t e p   16602                              ( at time 8.2996694E+00 )

 nodal point  x-rot      y-rot       z-rot       x-rot vel   y-rot vel   z-rot vel   x-rot acc   y-rot acc   z-rot acc
    22626  2.83599E-03 1.02991E-02 1.69139E-05 3.83866E-03 7.42669E-03 2.59110E-05 3.90678E-03 1.89137E-03 6.21887E-04



 n o d a l   p r i n t   o u t   f o r   t i m e  s t e p   16802                              ( at time 8.3996594E+00 )

 nodal point  x-disp     y-disp      z-disp      x-vel       y-vel       z-vel      x-accl      y-accl      z-accl      x-coor      y-coor      z-coor
    22626 -3.36835E-02 3.07447E-03-2.54801E+01 3.83903E-03 3.30508E-02-2.11851E+00 1.06635E-01 3.41340E-02 7.03439E-01 4.79305E+01-2.20267E+01-1.81416E+01



 n o d a l   p r i n t   o u t   f o r   t i m e  s t e p   16802                              ( at time 8.3996594E+00 )

 nodal point  x-rot      y-rot       z-rot       x-rot vel   y-rot vel   z-rot vel   x-rot acc   y-rot acc   z-rot acc
    22626  3.23981E-03 1.10447E-02 1.83333E-05 4.21971E-03 7.47645E-03-1.41061E-05 3.81083E-03 4.97689E-04-4.00211E-04



 n o d a l   p r i n t   o u t   f o r   t i m e  s t e p   17002                              ( at time 8.4996494E+00 )

 nodal point  x-disp     y-disp      z-disp      x-vel       y-vel       z-vel      x-accl      y-accl      z-accl      x-coor      y-coor      z-coor
    22626 -3.28260E-02 6.31542E-03-2.56881E+01 1.30839E-02 3.41807E-02-2.04335E+00 9.24583E-02 1.13005E-02 7.51679E-01 4.79314E+01-2.20235E+01-1.83496E+01



 n o d a l   p r i n t   o u t   f o r   t i m e  s t e p   17002                              ( at time 8.4996494E+00 )

 nodal point  x-rot      y-rot       z-rot       x-rot vel   y-rot vel   z-rot vel   x-rot acc   y-rot acc   z-rot acc
    22626  3.68151E-03 1.18010E-02 2.44819E-05 4.62735E-03 7.62545E-03 6.92234E-05 4.07683E-03 1.49011E-03 8.33379E-04



 n o d a l   p r i n t   o u t   f o r   t i m e  s t e p   17202                              ( at time 8.5996394E+00 )

 nodal point  x-disp     y-disp      z-disp      x-vel       y-vel       z-vel      x-accl      y-accl      z-accl      x-coor      y-coor      z-coor
    22626 -3.09926E-02 9.68809E-03-2.58885E+01 2.47412E-02 3.44689E-02-1.96615E+00 1.16584E-01 2.88262E-03 7.72048E-01 4.79332E+01-2.20201E+01-1.85500E+01



 n o d a l   p r i n t   o u t   f o r   t i m e  s t e p   17202                              ( at time 8.5996394E+00 )

 nodal point  x-rot      y-rot       z-rot       x-rot vel   y-rot vel   z-rot vel   x-rot acc   y-rot acc   z-rot acc
    22626  4.16344E-03 1.25695E-02 3.68703E-05 5.03922E-03 7.72113E-03 1.45249E-04 4.11913E-03 9.56952E-04 7.60336E-04



 n o d a l   p r i n t   o u t   f o r   t i m e  s t e p   17402                              ( at time 8.6996293E+00 )

 nodal point  x-disp     y-disp      z-disp      x-vel       y-vel       z-vel      x-accl      y-accl      z-accl      x-coor      y-coor      z-coor
    22626 -2.78871E-02 1.33151E-02-2.60812E+01 3.88265E-02 3.72787E-02-1.89071E+00 1.40866E-01 2.80997E-02 7.54491E-01 4.79363E+01-2.20165E+01-1.87426E+01



 n o d a l   p r i n t   o u t   f o r   t i m e  s t e p   17402                              ( at time 8.6996293E+00 )

 nodal point  x-rot      y-rot       z-rot       x-rot vel   y-rot vel   z-rot vel   x-rot acc   y-rot acc   z-rot acc
    22626  4.68579E-03 1.33450E-02 5.22553E-05 5.44989E-03 7.74557E-03 1.66235E-04 4.10708E-03 2.44383E-04 2.09877E-04



 n o d a l   p r i n t   o u t   f o r   t i m e  s t e p   17602                              ( at time 8.7996193E+00 )

 nodal point  x-disp     y-disp      z-disp      x-vel       y-vel       z-vel      x-accl      y-accl      z-accl      x-coor      y-coor      z-coor
    22626 -2.34668E-02 1.69422E-02-2.62660E+01 5.06269E-02 3.86508E-02-1.80718E+00 1.18016E-01 1.37232E-02 8.35330E-01 4.79407E+01-2.20128E+01-1.89275E+01



 n o d a l   p r i n t   o u t   f o r   t i m e  s t e p   17602                              ( at time 8.7996193E+00 )

 nodal point  x-rot      y-rot       z-rot       x-rot vel   y-rot vel   z-rot vel   x-rot acc   y-rot acc   z-rot acc
    22626  5.24940E-03 1.41287E-02 7.22257E-05 5.86608E-03 7.86606E-03 1.92541E-04 4.16234E-03 1.20501E-03 2.63086E-04



 n o d a l   p r i n t   o u t   f o r   t i m e  s t e p   17802                              ( at time 8.8996093E+00 )

 nodal point  x-disp     y-disp      z-disp      x-vel       y-vel       z-vel      x-accl      y-accl      z-accl      x-coor      y-coor      z-coor
    22626 -1.77257E-02 2.07594E-02-2.64428E+01 6.19566E-02 4.02371E-02-1.72945E+00 1.13309E-01 1.58646E-02 7.77367E-01 4.79465E+01-2.20090E+01-1.91043E+01



 n o d a l   p r i n t   o u t   f o r   t i m e  s t e p   17802                              ( at time 8.8996093E+00 )

 nodal point  x-rot      y-rot       z-rot       x-rot vel   y-rot vel   z-rot vel   x-rot acc   y-rot acc   z-rot acc
    22626  5.85572E-03 1.49210E-02 9.81214E-05 6.25614E-03 7.92573E-03 2.21798E-04 3.90093E-03 5.96759E-04 2.92598E-04



 n o d a l   p r i n t   o u t   f o r   t i m e  s t e p   18002                              ( at time 8.9995993E+00 )

 nodal point  x-disp     y-disp      z-disp      x-vel       y-vel       z-vel      x-accl      y-accl      z-accl      x-coor      y-coor      z-coor
    22626 -1.07237E-02 2.46964E-02-2.66115E+01 7.77299E-02 3.85846E-02-1.65032E+00 1.57749E-01-1.65273E-02 7.91441E-01 4.79535E+01-2.20051E+01-1.92730E+01



 n o d a l   p r i n t   o u t   f o r   t i m e  s t e p   18002                              ( at time 8.9995993E+00 )

 nodal point  x-rot      y-rot       z-rot       x-rot vel   y-rot vel   z-rot vel   x-rot acc   y-rot acc   z-rot acc
    22626  6.50248E-03 1.57220E-02 1.27287E-04 6.67332E-03 7.99696E-03 3.20217E-04 4.17227E-03 7.12403E-04 9.84295E-04



 n o d a l   p r i n t   o u t   f o r   t i m e  s t e p   18202                              ( at time 9.0995893E+00 )

 nodal point  x-disp     y-disp      z-disp      x-vel       y-vel       z-vel      x-accl      y-accl      z-accl      x-coor      y-coor      z-coor
    22626 -2.15819E-03 2.87565E-02-2.67721E+01 9.17606E-02 4.13449E-02-1.56220E+00 1.40321E-01 2.76063E-02 8.81253E-01 4.79620E+01-2.20010E+01-1.94336E+01



 n o d a l   p r i n t   o u t   f o r   t i m e  s t e p   18202                              ( at time 9.0995893E+00 )

 nodal point  x-rot      y-rot       z-rot       x-rot vel   y-rot vel   z-rot vel   x-rot acc   y-rot acc   z-rot acc
    22626  7.19416E-03 1.65267E-02 1.60303E-04 7.10281E-03 8.12607E-03 3.39310E-04 4.29533E-03 1.29121E-03 1.90948E-04



 n o d a l   p r i n t   o u t   f o r   t i m e  s t e p   18402                              ( at time 9.1995793E+00 )

 nodal point  x-disp     y-disp      z-disp      x-vel       y-vel       z-vel      x-accl      y-accl      z-accl      x-coor      y-coor      z-coor
    22626  7.68116E-03 3.28886E-02-2.69244E+01 1.03584E-01 4.33000E-02-1.48432E+00 1.18241E-01 1.95525E-02 7.78858E-01 4.79719E+01-2.19969E+01-1.95859E+01



 n o d a l   p r i n t   o u t   f o r   t i m e  s t e p   18402                              ( at time 9.1995793E+00 )

 nodal point  x-rot      y-rot       z-rot       x-rot vel   y-rot vel   z-rot vel   x-rot acc   y-rot acc   z-rot acc
    22626  7.92636E-03 1.73411E-02 1.94533E-04 7.52011E-03 8.16368E-03 3.06077E-04 4.17339E-03 3.76199E-04-3.32364E-04



 n o d a l   p r i n t   o u t   f o r   t i m e  s t e p   18602                              ( at time 9.2995693E+00 )

 nodal point  x-disp     y-disp      z-disp      x-vel       y-vel       z-vel      x-accl      y-accl      z-accl      x-coor      y-coor      z-coor
    22626  1.88198E-02 3.70603E-02-2.70686E+01 1.20441E-01 4.24672E-02-1.40204E+00 1.68596E-01-8.32895E-03 8.22924E-01 4.79830E+01-2.19927E+01-1.97301E+01



 n o d a l   p r i n t   o u t   f o r   t i m e  s t e p   18602                              ( at time 9.2995693E+00 )

 nodal point  x-rot      y-rot       z-rot       x-rot vel   y-rot vel   z-rot vel   x-rot acc   y-rot acc   z-rot acc
    22626  8.69832E-03 1.81630E-02 2.33875E-04 7.91475E-03 8.20548E-03 3.94306E-04 3.94682E-03 4.18011E-04 8.82378E-04



 n o d a l   p r i n t   o u t   f o r   t i m e  s t e p   18802                              ( at time 9.3995593E+00 )

 nodal point  x-disp     y-disp      z-disp      x-vel       y-vel       z-vel      x-accl      y-accl      z-accl      x-coor      y-coor      z-coor
    22626  3.15111E-02 4.13910E-02-2.72044E+01 1.31744E-01 4.27767E-02-1.31420E+00 1.13033E-01 3.09603E-03 8.78478E-01 4.79957E+01-2.19884E+01-1.98659E+01



 n o d a l   p r i n t   o u t   f o r   t i m e  s t e p   18802                              ( at time 9.3995593E+00 )

 nodal point  x-rot      y-rot       z-rot       x-rot vel   y-rot vel   z-rot vel   x-rot acc   y-rot acc   z-rot acc
    22626  9.51043E-03 1.89928E-02 2.74271E-04 8.32779E-03 8.36397E-03 4.03462E-04 4.13078E-03 1.58502E-03 9.15699E-05



 n o d a l   p r i n t   o u t   f o r   t i m e  s t e p   19002                              ( at time 9.4995493E+00 )

 nodal point  x-disp     y-disp      z-disp      x-vel       y-vel       z-vel      x-accl      y-accl      z-accl      x-coor      y-coor      z-coor
    22626  4.54227E-02 4.57426E-02-2.73318E+01 1.44922E-01 4.59040E-02-1.23017E+00 1.31801E-01 3.12757E-02 8.40359E-01 4.80096E+01-2.19840E+01-1.99933E+01



 n o d a l   p r i n t   o u t   f o r   t i m e  s t e p   19002                              ( at time 9.4995493E+00 )

 nodal point  x-rot      y-rot       z-rot       x-rot vel   y-rot vel   z-rot vel   x-rot acc   y-rot acc   z-rot acc
    22626  1.03636E-02 1.98285E-02 3.16420E-04 8.74132E-03 8.41739E-03 4.29882E-04 4.13578E-03 5.34279E-04 2.64223E-04



 n o d a l   p r i n t   o u t   f o r   t i m e  s t e p   19202                              ( at time 9.5995393E+00 )

 nodal point  x-disp     y-disp      z-disp      x-vel       y-vel       z-vel      x-accl      y-accl      z-accl      x-coor      y-coor      z-coor
    22626  6.06946E-02 5.01469E-02-2.74509E+01 1.59535E-01 4.24445E-02-1.14958E+00 1.46138E-01-3.45979E-02 8.06019E-01 4.80249E+01-2.19796E+01-2.01124E+01



 n o d a l   p r i n t   o u t   f o r   t i m e  s t e p   19202                              ( at time 9.5995393E+00 )

 nodal point  x-rot      y-rot       z-rot       x-rot vel   y-rot vel   z-rot vel   x-rot acc   y-rot acc   z-rot acc
    22626  1.12522E-02 2.06735E-02 3.59894E-04 9.10196E-03 8.47410E-03 4.21798E-04 3.60674E-03 5.67171E-04-8.08482E-05



 n o d a l   p r i n t   o u t   f o r   t i m e  s t e p   19402                              ( at time 9.6995293E+00 )

 nodal point  x-disp     y-disp      z-disp      x-vel       y-vel       z-vel      x-accl      y-accl      z-accl      x-coor      y-coor      z-coor
    22626  7.71177E-02 5.45373E-02-2.75613E+01 1.72094E-01 4.45030E-02-1.06531E+00 1.25601E-01 2.05866E-02 8.42774E-01 4.80413E+01-2.19753E+01-2.02228E+01



 n o d a l   p r i n t   o u t   f o r   t i m e  s t e p   19402                              ( at time 9.6995293E+00 )

 nodal point  x-rot      y-rot       z-rot       x-rot vel   y-rot vel   z-rot vel   x-rot acc   y-rot acc   z-rot acc
    22626  1.21794E-02 2.15280E-02 4.03171E-04 9.47777E-03 8.54813E-03 3.91622E-04 3.75842E-03 7.40346E-04-3.01784E-04



 n o d a l   p r i n t   o u t   f o r   t i m e  s t e p   19602                              ( at time 9.7995193E+00 )

 nodal point  x-disp     y-disp      z-disp      x-vel       y-vel       z-vel      x-accl      y-accl      z-accl      x-coor      y-coor      z-coor
    22626  9.47843E-02 5.89162E-02-2.76633E+01 1.82420E-01 4.38519E-02-9.77881E-01 1.03269E-01-6.51101E-03 8.74367E-01 4.80590E+01-2.19709E+01-2.03248E+01



 n o d a l   p r i n t   o u t   f o r   t i m e  s t e p   19602                              ( at time 9.7995193E+00 )

 nodal point  x-rot      y-rot       z-rot       x-rot vel   y-rot vel   z-rot vel   x-rot acc   y-rot acc   z-rot acc
    22626  1.31459E-02 2.23898E-02 4.47730E-04 9.81069E-03 8.63835E-03 4.15555E-04 3.32956E-03 9.02301E-04 2.39353E-04



 n o d a l   p r i n t   o u t   f o r   t i m e  s t e p   19802                              ( at time 9.8995093E+00 )

 nodal point  x-disp     y-disp      z-disp      x-vel       y-vel       z-vel      x-accl      y-accl      z-accl      x-coor      y-coor      z-coor
    22626  1.13577E-01 6.31204E-02-2.77568E+01 1.94172E-01 4.05805E-02-8.92246E-01 1.17535E-01-3.27180E-02 8.56440E-01 4.80778E+01-2.19667E+01-2.04183E+01



 n o d a l   p r i n t   o u t   f o r   t i m e  s t e p   19802                              ( at time 9.8995093E+00 )

 nodal point  x-rot      y-rot       z-rot       x-rot vel   y-rot vel   z-rot vel   x-rot acc   y-rot acc   z-rot acc
    22626  1.41458E-02 2.32597E-02 4.89481E-04 1.01970E-02 8.76465E-03 4.20429E-04 3.86347E-03 1.26315E-03 4.87428E-05



 n o d a l   p r i n t   o u t   f o r   t i m e  s t e p   20003                              ( at time 9.9999992E+00 )

 nodal point  x-disp     y-disp      z-disp      x-vel       y-vel       z-vel      x-accl      y-accl      z-accl      x-coor      y-coor      z-coor
[...]
    22626  2.07181E-01 1.31503E-01-2.58477E-02 1.74896E-02 7.21822E-03-4.50978E-03-4.99328E-04 1.11629E-04 2.29392E-04



 n o d a l   p r i n t   o u t   f o r   t i m e  s t e p   45205                              ( at time 2.2599738E+01 )

 nodal point  x-disp     y-disp      z-disp      x-vel       y-vel       z-vel      x-accl      y-accl      z-accl      x-coor      y-coor      z-coor
    22626  4.33050E+00-1.69282E+00-2.21971E+01 2.53239E-01-2.16660E-01 5.23497E-01 3.96973E-03 1.34212E-03 2.91255E-02 5.22947E+01-2.37226E+01-1.48586E+01



 n o d a l   p r i n t   o u t   f o r   t i m e  s t e p   45205                              ( at time 2.2599738E+01 )

 nodal point  x-rot      y-rot       z-rot       x-rot vel   y-rot vel   z-rot vel   x-rot acc   y-rot acc   z-rot acc
    22626  2.08932E-01 1.32224E-01-2.62956E-02 1.75163E-02 7.24938E-03-4.48233E-03 2.66774E-04 3.11658E-04 2.74556E-04



 n o d a l   p r i n t   o u t   f o r   t i m e  s t e p   45405                              ( at time 2.2699728E+01 )

 nodal point  x-disp     y-disp      z-disp      x-vel       y-vel       z-vel      x-accl      y-accl      z-accl      x-coor      y-coor      z-coor
    22626  4.35578E+00-1.71458E+00-2.21450E+01 2.52066E-01-2.17684E-01 5.20748E-01-1.17285E-02-1.02426E-02-2.74891E-02 5.23200E+01-2.37444E+01-1.48065E+01



 n o d a l   p r i n t   o u t   f o r   t i m e  s t e p   45405                              ( at time 2.2699728E+01 )

 nodal point  x-rot      y-rot       z-rot       x-rot vel   y-rot vel   z-rot vel   x-rot acc   y-rot acc   z-rot acc
    22626  2.10683E-01 1.32947E-01-2.67415E-02 1.75158E-02 7.20754E-03-4.44967E-03-4.58261E-06-4.18471E-04 3.26586E-04



 n o d a l   p r i n t   o u t   f o r   t i m e  s t e p   45605                              ( at time 2.2799718E+01 )

 nodal point  x-disp     y-disp      z-disp      x-vel       y-vel       z-vel      x-accl      y-accl      z-accl      x-coor      y-coor      z-coor
    22626  4.38110E+00-1.73629E+00-2.20929E+01 2.53096E-01-2.17972E-01 5.18537E-01 1.02941E-02-2.87991E-03-2.21070E-02 5.23453E+01-2.37661E+01-1.47544E+01



 n o d a l   p r i n t   o u t   f o r   t i m e  s t e p   45605                              ( at time 2.2799718E+01 )

 nodal point  x-rot      y-rot       z-rot       x-rot vel   y-rot vel   z-rot vel   x-rot acc   y-rot acc   z-rot acc
    22626  2.12431E-01 1.33669E-01-2.71851E-02 1.74782E-02 7.20595E-03-4.41608E-03-3.76047E-04-1.58526E-05 3.35959E-04



 n o d a l   p r i n t   o u t   f o r   t i m e  s t e p   45805                              ( at time 2.2899708E+01 )

 nodal point  x-disp     y-disp      z-disp      x-vel       y-vel       z-vel      x-accl      y-accl      z-accl      x-coor      y-coor      z-coor
    22626  4.40649E+00-1.75800E+00-2.20408E+01 2.55101E-01-2.17422E-01 5.21267E-01 2.00562E-02 5.49824E-03 2.72960E-02 5.23707E+01-2.37878E+01-1.47023E+01



 n o d a l   p r i n t   o u t   f o r   t i m e  s t e p   45805                              ( at time 2.2899708E+01 )

 nodal point  x-rot      y-rot       z-rot       x-rot vel   y-rot vel   z-rot vel   x-rot acc   y-rot acc   z-rot acc
    22626  2.14179E-01 1.34392E-01-2.76258E-02 1.74648E-02 7.22821E-03-4.38100E-03-1.34218E-04 2.22555E-04 3.50859E-04



 n o d a l   p r i n t   o u t   f o r   t i m e  s t e p   46005                              ( at time 2.2999698E+01 )

 nodal point  x-disp     y-disp      z-disp      x-vel       y-vel       z-vel      x-accl      y-accl      z-accl      x-coor      y-coor      z-coor
    22626  4.43193E+00-1.77967E+00-2.19888E+01 2.54933E-01-2.16172E-01 5.22660E-01-1.67862E-03 1.25090E-02 1.39380E-02 5.23961E+01-2.38095E+01-1.46503E+01



 n o d a l   p r i n t   o u t   f o r   t i m e  s t e p   46005                              ( at time 2.2999698E+01 )

 nodal point  x-rot      y-rot       z-rot       x-rot vel   y-rot vel   z-rot vel   x-rot acc   y-rot acc   z-rot acc
    22626  2.15926E-01 1.35113E-01-2.80643E-02 1.74521E-02 7.23805E-03-4.36895E-03-1.26895E-04 9.83893E-05 1.20454E-04



 n o d a l   p r i n t   o u t   f o r   t i m e  s t e p   46205                              ( at time 2.3099688E+01 )

 nodal point  x-disp     y-disp      z-disp      x-vel       y-vel       z-vel      x-accl      y-accl      z-accl      x-coor      y-coor      z-coor
    22626  4.45747E+00-1.80130E+00-2.19367E+01 2.56251E-01-2.15920E-01 5.21222E-01 1.31774E-02 2.52066E-03-1.43836E-02 5.24216E+01-2.38311E+01-1.45982E+01



 n o d a l   p r i n t   o u t   f o r   t i m e  s t e p   46205                              ( at time 2.3099688E+01 )

 nodal point  x-rot      y-rot       z-rot       x-rot vel   y-rot vel   z-rot vel   x-rot acc   y-rot acc   z-rot acc
    22626  2.17670E-01 1.35834E-01-2.85008E-02 1.74297E-02 7.21715E-03-4.34840E-03-2.24455E-04-2.09026E-04 2.05561E-04



 n o d a l   p r i n t   o u t   f o r   t i m e  s t e p   46405                              ( at time 2.3199678E+01 )

 nodal point  x-disp     y-disp      z-disp      x-vel       y-vel       z-vel      x-accl      y-accl      z-accl      x-coor      y-coor      z-coor
    22626  4.48313E+00-1.82287E+00-2.18845E+01 2.56861E-01-2.15183E-01 5.21368E-01 6.10258E-03 7.36602E-03 1.45627E-03 5.24473E+01-2.38527E+01-1.45460E+01



 n o d a l   p r i n t   o u t   f o r   t i m e  s t e p   46405                              ( at time 2.3199678E+01 )

 nodal point  x-rot      y-rot       z-rot       x-rot vel   y-rot vel   z-rot vel   x-rot acc   y-rot acc   z-rot acc
    22626  2.19412E-01 1.36556E-01-2.89352E-02 1.74404E-02 7.20000E-03-4.33499E-03 1.07224E-04-1.71444E-04 1.34137E-04



 n o d a l   p r i n t   o u t   f o r   t i m e  s t e p   46605                              ( at time 2.3299668E+01 )

 nodal point  x-disp     y-disp      z-disp      x-vel       y-vel       z-vel      x-accl      y-accl      z-accl      x-coor      y-coor      z-coor
    22626  4.50892E+00-1.84433E+00-2.18323E+01 2.58442E-01-2.14112E-01 5.23519E-01 1.58095E-02 1.07077E-02 2.15125E-02 5.24731E+01-2.38741E+01-1.44938E+01



 n o d a l   p r i n t   o u t   f o r   t i m e  s t e p   46605                              ( at time 2.3299668E+01 )

 nodal point  x-rot      y-rot       z-rot       x-rot vel   y-rot vel   z-rot vel   x-rot acc   y-rot acc   z-rot acc
    22626  2.21153E-01 1.37277E-01-2.93685E-02 1.73971E-02 7.22530E-03-4.32702E-03-4.33281E-04 2.52998E-04 7.96881E-05



 n o d a l   p r i n t   o u t   f o r   t i m e  s t e p   46805                              ( at time 2.3399658E+01 )

 nodal point  x-disp     y-disp      z-disp      x-vel       y-vel       z-vel      x-accl      y-accl      z-accl      x-coor      y-coor      z-coor
    22626  4.53481E+00-1.86573E+00-2.17801E+01 2.59386E-01-2.13673E-01 5.22175E-01 9.43926E-03 4.39103E-03-1.34397E-02 5.24990E+01-2.38955E+01-1.44416E+01



 n o d a l   p r i n t   o u t   f o r   t i m e  s t e p   46805                              ( at time 2.3399658E+01 )

 nodal point  x-rot      y-rot       z-rot       x-rot vel   y-rot vel   z-rot vel   x-rot acc   y-rot acc   z-rot acc
    22626  2.22891E-01 1.37998E-01-2.98002E-02 1.73732E-02 7.20510E-03-4.30606E-03-2.38608E-04-2.01980E-04 2.09585E-04



 n o d a l   p r i n t   o u t   f o r   t i m e  s t e p   47005                              ( at time 2.3499648E+01 )

 nodal point  x-disp     y-disp      z-disp      x-vel       y-vel       z-vel      x-accl      y-accl      z-accl      x-coor      y-coor      z-coor
    22626  4.56082E+00-1.88695E+00-2.17278E+01 2.59615E-01-2.11942E-01 5.23135E-01 2.29052E-03 1.73200E-02 9.60080E-03 5.25250E+01-2.39167E+01-1.43893E+01



 n o d a l   p r i n t   o u t   f o r   t i m e  s t e p   47005                              ( at time 2.3499648E+01 )

 nodal point  x-rot      y-rot       z-rot       x-rot vel   y-rot vel   z-rot vel   x-rot acc   y-rot acc   z-rot acc
    22626  2.24627E-01 1.38719E-01-3.02314E-02 1.73499E-02 7.21207E-03-4.30929E-03-2.33113E-04 6.96460E-05-3.23292E-05



 n o d a l   p r i n t   o u t   f o r   t i m e  s t e p   47205                              ( at time 2.3599638E+01 )

 nodal point  x-disp     y-disp      z-disp      x-vel       y-vel       z-vel      x-accl      y-accl      z-accl      x-coor      y-coor      z-coor
    22626  4.58693E+00-1.90809E+00-2.16754E+01 2.61669E-01-2.10576E-01 5.24244E-01 2.05450E-02 1.36577E-02 1.10937E-02 5.25511E+01-2.39379E+01-1.43369E+01



 n o d a l   p r i n t   o u t   f o r   t i m e  s t e p   47205                              ( at time 2.3599638E+01 )

 nodal point  x-rot      y-rot       z-rot       x-rot vel   y-rot vel   z-rot vel   x-rot acc   y-rot acc   z-rot acc
    22626  2.26360E-01 1.39440E-01-3.06614E-02 1.73157E-02 7.20883E-03-4.28857E-03-3.42113E-04-3.23531E-05 2.07252E-04



 n o d a l   p r i n t   o u t   f o r   t i m e  s t e p   47405                              ( at time 2.3699628E+01 )

 nodal point  x-disp     y-disp      z-disp      x-vel       y-vel       z-vel      x-accl      y-accl      z-accl      x-coor      y-coor      z-coor
    22626  4.61310E+00-1.92912E+00-2.16229E+01 2.62488E-01-2.09223E-01 5.24704E-01 8.19699E-03 1.35318E-02 4.59713E-03 5.25773E+01-2.39589E+01-1.42844E+01



 n o d a l   p r i n t   o u t   f o r   t i m e  s t e p   47405                              ( at time 2.3699628E+01 )

 nodal point  x-rot      y-rot       z-rot       x-rot vel   y-rot vel   z-rot vel   x-rot acc   y-rot acc   z-rot acc
    22626  2.28091E-01 1.40159E-01-3.10906E-02 1.72968E-02 7.18680E-03-4.28876E-03-1.89150E-04-2.20343E-04-1.90007E-06



 n o d a l   p r i n t   o u t   f o r   t i m e  s t e p   47605                              ( at time 2.3799618E+01 )

 nodal point  x-disp     y-disp      z-disp      x-vel       y-vel       z-vel      x-accl      y-accl      z-accl      x-coor      y-coor      z-coor
    22626  4.63934E+00-1.94997E+00-2.15704E+01 2.62735E-01-2.08027E-01 5.25886E-01 2.46552E-03 1.19583E-02 1.18269E-02 5.26035E+01-2.39798E+01-1.42319E+01



 n o d a l   p r i n t   o u t   f o r   t i m e  s t e p   47605                              ( at time 2.3799618E+01 )

 nodal point  x-rot      y-rot       z-rot       x-rot vel   y-rot vel   z-rot vel   x-rot acc   y-rot acc   z-rot acc
    22626  2.29820E-01 1.40877E-01-3.15204E-02 1.72693E-02 7.17312E-03-4.28956E-03-2.74547E-04-1.36826E-04-8.01957E-06



 n o d a l   p r i n t   o u t   f o r   t i m e  s t e p   47805                              ( at time 2.3899608E+01 )

 nodal point  x-disp     y-disp      z-disp      x-vel       y-vel       z-vel      x-accl      y-accl      z-accl      x-coor      y-coor      z-coor
    22626  4.66562E+00-1.97072E+00-2.15178E+01 2.62115E-01-2.07610E-01 5.26420E-01-6.19617E-03 4.16973E-03 5.33451E-03 5.26298E+01-2.40005E+01-1.41793E+01



 n o d a l   p r i n t   o u t   f o r   t i m e  s t e p   47805                              ( at time 2.3899608E+01 )

 nodal point  x-rot      y-rot       z-rot       x-rot vel   y-rot vel   z-rot vel   x-rot acc   y-rot acc   z-rot acc
    22626  2.31547E-01 1.41594E-01-3.19483E-02 1.72647E-02 7.17244E-03-4.26962E-03-4.66635E-05-6.78996E-06 1.99424E-04



 n o d a l   p r i n t   o u t   f o r   t i m e  s t e p   48005                              ( at time 2.3999598E+01 )

 nodal point  x-disp     y-disp      z-disp      x-vel       y-vel       z-vel      x-accl      y-accl      z-accl      x-coor      y-coor      z-coor
    22626  4.69191E+00-1.99134E+00-2.14652E+01 2.62798E-01-2.05752E-01 5.26615E-01 6.82966E-03 1.85884E-02 1.94869E-03 5.26561E+01-2.40211E+01-1.41267E+01



 n o d a l   p r i n t   o u t   f o r   t i m e  s t e p   48005                              ( at time 2.3999598E+01 )

 nodal point  x-rot      y-rot       z-rot       x-rot vel   y-rot vel   z-rot vel   x-rot acc   y-rot acc   z-rot acc
    22626  2.33272E-01 1.42309E-01-3.23767E-02 1.72449E-02 7.14129E-03-4.27832E-03-1.97816E-04-3.11576E-04-8.69439E-05



 n o d a l   p r i n t   o u t   f o r   t i m e  s t e p   48205                              ( at time 2.4099588E+01 )

 nodal point  x-disp     y-disp      z-disp      x-vel       y-vel       z-vel      x-accl      y-accl      z-accl      x-coor      y-coor      z-coor
    22626  4.71816E+00-2.01183E+00-2.14124E+01 2.62763E-01-2.04840E-01 5.26869E-01-3.49017E-04 9.11632E-03 2.54118E-03 5.26823E+01-2.40416E+01-1.40739E+01



 n o d a l   p r i n t   o u t   f o r   t i m e  s t e p   48205                              ( at time 2.4099588E+01 )

 nodal point  x-rot      y-rot       z-rot       x-rot vel   y-rot vel   z-rot vel   x-rot acc   y-rot acc   z-rot acc
    22626  2.34995E-01 1.43023E-01-3.28047E-02 1.72183E-02 7.13213E-03-4.27358E-03-2.66010E-04-9.16179E-05 4.73947E-05



 n o d a l   p r i n t   o u t   f o r   t i m e  s t e p   48405                              ( at time 2.4199578E+01 )

 nodal point  x-disp     y-disp      z-disp      x-vel       y-vel       z-vel      x-accl      y-accl      z-accl      x-coor      y-coor      z-coor
    22626  4.74441E+00-2.03224E+00-2.13597E+01 2.62041E-01-2.03209E-01 5.28783E-01-7.22429E-03 1.63150E-02 1.91477E-02 5.27086E+01-2.40620E+01-1.40212E+01



 n o d a l   p r i n t   o u t   f o r   t i m e  s t e p   48405                              ( at time 2.4199578E+01 )

 nodal point  x-rot      y-rot       z-rot       x-rot vel   y-rot vel   z-rot vel   x-rot acc   y-rot acc   z-rot acc
    22626  2.36715E-01 1.43735E-01-3.32320E-02 1.72088E-02 7.11843E-03-4.27562E-03-9.43907E-05-1.36989E-04-2.04355E-05



 n o d a l   p r i n t   o u t   f o r   t i m e  s t e p   48605                              ( at time 2.4299568E+01 )

 nodal point  x-disp     y-disp      z-disp      x-vel       y-vel       z-vel      x-accl      y-accl      z-accl      x-coor      y-coor      z-coor
    22626  4.77058E+00-2.05255E+00-2.13069E+01 2.61457E-01-2.02150E-01 5.27249E-01-5.84090E-03 1.05933E-02-1.53424E-02 5.27348E+01-2.40823E+01-1.39684E+01



 n o d a l   p r i n t   o u t   f o r   t i m e  s t e p   48605                              ( at time 2.4299568E+01 )

 nodal point  x-rot      y-rot       z-rot       x-rot vel   y-rot vel   z-rot vel   x-rot acc   y-rot acc   z-rot acc
    22626  2.38435E-01 1.44445E-01-3.36586E-02 1.71944E-02 7.07674E-03-4.27498E-03-1.44182E-04-4.16889E-04 6.37083E-06



 n o d a l   p r i n t   o u t   f o r   t i m e  s t e p   48805                              ( at time 2.4399558E+01 )

 nodal point  x-disp     y-disp      z-disp      x-vel       y-vel       z-vel      x-accl      y-accl      z-accl      x-coor      y-coor      z-coor
    22626  4.79672E+00-2.07274E+00-2.12541E+01 2.60416E-01-2.02342E-01 5.28231E-01-1.04103E-02-1.92600E-03 9.81600E-03 5.27609E+01-2.41025E+01-1.39156E+01



 n o d a l   p r i n t   o u t   f o r   t i m e  s t e p   48805                              ( at time 2.4399558E+01 )

 nodal point  x-rot      y-rot       z-rot       x-rot vel   y-rot vel   z-rot vel   x-rot acc   y-rot acc   z-rot acc
    22626  2.40152E-01 1.45154E-01-3.40851E-02 1.71619E-02 7.07059E-03-4.24411E-03-3.25434E-04-6.15521E-05 3.08729E-04



 n o d a l   p r i n t   o u t   f o r   t i m e  s t e p   49006                              ( at time 2.4500048E+01 )

 nodal point  x-disp     y-disp      z-disp      x-vel       y-vel       z-vel      x-accl      y-accl      z-accl      x-coor      y-coor      z-coor
    22626  4.82290E+00-2.09294E+00-2.12010E+01 2.60706E-01-2.00536E-01 5.29775E-01 2.88863E-03 1.79780E-02 1.53720E-02 5.27871E+01-2.41227E+01-1.38625E+01



 n o d a l   p r i n t   o u t   f o r   t i m e  s t e p   49006                              ( at time 2.4500048E+01 )

 nodal point  x-rot      y-rot       z-rot       x-rot vel   y-rot vel   z-rot vel   x-rot acc   y-rot acc   z-rot acc
    22626  2.41877E-01 1.45863E-01-3.45134E-02 1.71502E-02 7.06613E-03-4.25489E-03-1.15997E-04-4.43563E-05-1.07276E-04



 n o d a l   p r i n t   o u t   f o r   t i m e  s t e p   49206                              ( at time 2.4600038E+01 )

 nodal point  x-disp     y-disp      z-disp      x-vel       y-vel       z-vel      x-accl      y-accl      z-accl      x-coor      y-coor      z-coor
    22626  4.84885E+00-2.11299E+00-2.11481E+01 2.59823E-01-1.99837E-01 5.28647E-01-8.83839E-03 6.98392E-03-1.12818E-02 5.28130E+01-2.41428E+01-1.38096E+01



 n o d a l   p r i n t   o u t   f o r   t i m e  s t e p   49206                              ( at time 2.4600038E+01 )

 nodal point  x-rot      y-rot       z-rot       x-rot vel   y-rot vel   z-rot vel   x-rot acc   y-rot acc   z-rot acc
    22626  2.43591E-01 1.46566E-01-3.49388E-02 1.71348E-02 7.01612E-03-4.25441E-03-1.54111E-04-5.00171E-04 4.80141E-06



 n o d a l   p r i n t   o u t   f o r   t i m e  s t e p   49406                              ( at time 2.4700028E+01 )

 nodal point  x-disp     y-disp      z-disp      x-vel       y-vel       z-vel      x-accl      y-accl      z-accl      x-coor      y-coor      z-coor
    22626  4.87475E+00-2.13288E+00-2.10952E+01 2.58006E-01-1.98952E-01 5.28204E-01-1.81701E-02 8.85748E-03-4.43746E-03 5.28389E+01-2.41627E+01-1.37567E+01



 n o d a l   p r i n t   o u t   f o r   t i m e  s t e p   49406                              ( at time 2.4700028E+01 )

 nodal point  x-rot      y-rot       z-rot       x-rot vel   y-rot vel   z-rot vel   x-rot acc   y-rot acc   z-rot acc
    22626  2.45304E-01 1.47268E-01-3.53643E-02 1.71363E-02 6.99702E-03-4.24353E-03 1.48842E-05-1.90980E-04 1.08888E-04



 n o d a l   p r i n t   o u t   f o r   t i m e  s t e p   49606                              ( at time 2.4800018E+01 )

 nodal point  x-disp     y-disp      z-disp      x-vel       y-vel       z-vel      x-accl      y-accl      z-accl      x-coor      y-coor      z-coor
    22626  4.90049E+00-2.15270E+00-2.10424E+01 2.57522E-01-1.97324E-01 5.28856E-01-4.84004E-03 1.62750E-02 6.51956E-03 5.28647E+01-2.41825E+01-1.37039E+01



 n o d a l   p r i n t   o u t   f o r   t i m e  s t e p   49606                              ( at time 2.4800018E+01 )

 nodal point  x-rot      y-rot       z-rot       x-rot vel   y-rot vel   z-rot vel   x-rot acc   y-rot acc   z-rot acc
    22626  2.47017E-01 1.47966E-01-3.57889E-02 1.71111E-02 6.97183E-03-4.24427E-03-2.51760E-04-2.51918E-04-7.49318E-06



 n o d a l   p r i n t   o u t   f o r   t i m e  s t e p   49806                              ( at time 2.4900008E+01 )

 nodal point  x-disp     y-disp      z-disp      x-vel       y-vel       z-vel      x-accl      y-accl      z-accl      x-coor      y-coor      z-coor
    22626  4.92620E+00-2.17242E+00-2.09896E+01 2.56109E-01-1.96905E-01 5.28721E-01-1.41270E-02 4.18843E-03-1.34125E-03 5.28904E+01-2.42022E+01-1.36511E+01



 n o d a l   p r i n t   o u t   f o r   t i m e  s t e p   49806                              ( at time 2.4900008E+01 )

 nodal point  x-rot      y-rot       z-rot       x-rot vel   y-rot vel   z-rot vel   x-rot acc   y-rot acc   z-rot acc
    22626  2.48728E-01 1.48661E-01-3.62131E-02 1.71165E-02 6.95180E-03-4.24568E-03 5.36687E-05-2.00331E-04-1.40832E-05



 n o d a l   p r i n t   o u t   f o r   t i m e  s t e p   50006                              ( at time 2.4999998E+01 )

 nodal point  x-disp     y-disp      z-disp      x-vel       y-vel       z-vel      x-accl      y-accl      z-accl      x-coor      y-coor      z-coor
    22626  4.95175E+00-2.19204E+00-2.09367E+01 2.55751E-01-1.95349E-01 5.28309E-01-3.58614E-03 1.55672E-02-4.12263E-03 5.29159E+01-2.42218E+01-1.35982E+01



 n o d a l   p r i n t   o u t   f o r   t i m e  s t e p   50006                              ( at time 2.4999998E+01 )

 nodal point  x-rot      y-rot       z-rot       x-rot vel   y-rot vel   z-rot vel   x-rot acc   y-rot acc   z-rot acc
    22626  2.50439E-01 1.49355E-01-3.66373E-02 1.71163E-02 6.91936E-03-4.24537E-03-1.93733E-06-3.24405E-04 3.09227E-06
