 LSTC 50th% Full_FE H-III Dummy (Beta Version, February 17, 2019)        
                    ls-dyna smp s R16 R16.0_619_d222963 date 03/18/2025

{BEGIN LEGEND}
 Entity #        Title
    22626                                                                                     
{END LEGEND}




 n o d a l   p r i n t   o u t   f o r   t i m e  s t e p       1                              ( at time 0.0000000E+00 )

 nodal point  x-disp     y-disp      z-disp      x-vel       y-vel       z-vel      x-accl      y-accl      z-accl      x-coor      y-coor      z-coor
    22626  0.00000E+00 0.00000E+00 0.00000E+00 0.00000E+00 0.00000E+00 0.00000E+00 0.00000E+00 0.00000E+00 0.00000E+00 4.65938E+00-2.81908E+01-4.49817E+01



 n o d a l   p r i n t   o u t   f o r   t i m e  s t e p       1                              ( at time 0.0000000E+00 )

 nodal point  x-rot      y-rot       z-rot       x-rot vel   y-rot vel   z-rot vel   x-rot acc   y-rot acc   z-rot acc
    22626  0.00000E+00 0.00000E+00 0.00000E+00 0.00000E+00 0.00000E+00 0.00000E+00 0.00000E+00 0.00000E+00 0.00000E+00



 n o d a l   p r i n t   o u t   f o r   t i m e  s t e p     201                              ( at time 9.9989993E-02 )

 nodal point  x-disp     y-disp      z-disp      x-vel       y-vel       z-vel      x-accl      y-accl      z-accl      x-coor      y-coor      z-coor
    22626  2.73651E-07 1.73563E-06-5.34266E-05 4.19774E-05 2.55501E-04-1.46807E-03 4.19816E-04 2.55527E-03-1.46822E-02 4.65938E+00-2.81908E+01-4.49818E+01



 n o d a l   p r i n t   o u t   f o r   t i m e  s t e p     201                              ( at time 9.9989993E-02 )

 nodal point  x-rot      y-rot       z-rot       x-rot vel   y-rot vel   z-rot vel   x-rot acc   y-rot acc   z-rot acc
    22626 -5.99207E-08-8.39305E-09-5.46704E-09-5.87057E-06-9.70450E-07-9.27754E-07-5.87115E-05-9.70547E-06-9.27847E-06



 n o d a l   p r i n t   o u t   f o r   t i m e  s t e p     401                              ( at time 1.9997999E-01 )

 nodal point  x-disp     y-disp      z-disp      x-vel       y-vel       z-vel      x-accl      y-accl      z-accl      x-coor      y-coor      z-coor
    22626  1.73156E-05 3.61711E-04-6.67550E-04 3.11285E-05 7.80971E-03-1.21512E-02-1.08499E-04 7.55497E-02-1.06842E-01 4.65939E+00-2.81905E+01-4.49824E+01



 n o d a l   p r i n t   o u t   f o r   t i m e  s t e p     401                              ( at time 1.9997999E-01 )

 nodal point  x-rot      y-rot       z-rot       x-rot vel   y-rot vel   z-rot vel   x-rot acc   y-rot acc   z-rot acc
    22626 -2.82101E-06-3.37420E-07-3.34841E-07-3.93884E-05-1.76345E-06-2.29523E-06-3.35212E-04-7.93079E-06-1.36761E-05



 n o d a l   p r i n t   o u t   f o r   t i m e  s t e p     601                              ( at time 2.9996998E-01 )

 nodal point  x-disp     y-disp      z-disp      x-vel       y-vel       z-vel      x-accl      y-accl      z-accl      x-coor      y-coor      z-coor
    22626  2.73918E-05 1.23953E-03-2.33769E-03 4.22324E-04 8.44000E-03-1.92390E-02 3.91234E-03 6.30350E-03-7.08859E-02 4.65940E+00-2.81896E+01-4.49841E+01



 n o d a l   p r i n t   o u t   f o r   t i m e  s t e p     601                              ( at time 2.9996998E-01 )

 nodal point  x-rot      y-rot       z-rot       x-rot vel   y-rot vel   z-rot vel   x-rot acc   y-rot acc   z-rot acc
    22626 -5.39361E-06-3.91152E-07-6.42509E-07-1.55180E-05-5.52149E-06-6.70622E-06 2.38729E-04-3.75842E-05-4.41144E-05



 n o d a l   p r i n t   o u t   f o r   t i m e  s t e p     801                              ( at time 3.9995997E-01 )

 nodal point  x-disp     y-disp      z-disp      x-vel       y-vel       z-vel      x-accl      y-accl      z-accl      x-coor      y-coor      z-coor
    22626  2.60647E-05 2.16093E-03-4.28053E-03-3.14860E-04 1.07336E-02-2.10695E-02-7.37257E-03 2.29384E-02-1.83068E-02 4.65940E+00-2.81887E+01-4.49860E+01



 n o d a l   p r i n t   o u t   f o r   t i m e  s t e p     801                              ( at time 3.9995997E-01 )

 nodal point  x-rot      y-rot       z-rot       x-rot vel   y-rot vel   z-rot vel   x-rot acc   y-rot acc   z-rot acc
    22626 -7.63605E-06-1.25202E-06-9.83972E-07-4.51056E-05-6.19782E-06-1.50783E-06-2.95906E-04-6.76393E-06 5.19891E-05



 n o d a l   p r i n t   o u t   f o r   t i m e  s t e p    1001                              ( at time 4.9994997E-01 )

 nodal point  x-disp     y-disp      z-disp      x-vel       y-vel       z-vel      x-accl      y-accl      z-accl      x-coor      y-coor      z-coor
    22626  4.07109E-06 3.43383E-03-6.73876E-03-2.38691E-04 1.41227E-02-2.86426E-02 7.61769E-04 3.38941E-02-7.57379E-02 4.65938E+00-2.81874E+01-4.49885E+01



 n o d a l   p r i n t   o u t   f o r   t i m e  s t e p    1001                              ( at time 4.9994997E-01 )

 nodal point  x-rot      y-rot       z-rot       x-rot vel   y-rot vel   z-rot vel   x-rot acc   y-rot acc   z-rot acc
    22626 -1.35985E-05-1.17132E-06-9.55237E-07-8.46027E-05 3.22812E-06 4.10033E-06-3.95011E-04 9.42689E-05 5.60872E-05



 n o d a l   p r i n t   o u t   f o r   t i m e  s t e p    1201                              ( at time 5.9993996E-01 )

 nodal point  x-disp     y-disp      z-disp      x-vel       y-vel       z-vel      x-accl      y-accl      z-accl      x-coor      y-coor      z-coor
    22626 -1.02651E-06 5.00213E-03-9.69982E-03 4.16598E-05 1.65794E-02-3.08528E-02 2.80378E-03 2.45700E-02-2.21050E-02 4.65937E+00-2.81858E+01-4.49914E+01



 n o d a l   p r i n t   o u t   f o r   t i m e  s t e p    1201                              ( at time 5.9993996E-01 )

 nodal point  x-rot      y-rot       z-rot       x-rot vel   y-rot vel   z-rot vel   x-rot acc   y-rot acc   z-rot acc
    22626 -2.04370E-05-8.94664E-07-9.72310E-07-6.06878E-05 3.66701E-06-2.26093E-06 2.39173E-04 4.38928E-06-6.36189E-05



 n o d a l   p r i n t   o u t   f o r   t i m e  s t e p    1401                              ( at time 6.9992995E-01 )

 nodal point  x-disp     y-disp      z-disp      x-vel       y-vel       z-vel      x-accl      y-accl      z-accl      x-coor      y-coor      z-coor
    22626 -5.00396E-05 6.82621E-03-1.31347E-02-4.70598E-04 1.94929E-02-3.86860E-02-5.12309E-03 2.91375E-02-7.83392E-02 4.65933E+00-2.81840E+01-4.49949E+01



 n o d a l   p r i n t   o u t   f o r   t i m e  s t e p    1401                              ( at time 6.9992995E-01 )

 nodal point  x-rot      y-rot       z-rot       x-rot vel   y-rot vel   z-rot vel   x-rot acc   y-rot acc   z-rot acc
    22626 -2.65471E-05-9.42633E-07-6.90260E-07-7.28166E-05-1.23860E-07 3.19266E-06-1.21300E-04-3.79125E-05 5.45414E-05



 n o d a l   p r i n t   o u t   f o r   t i m e  s t e p    1601                              ( at time 7.9991994E-01 )

 nodal point  x-disp     y-disp      z-disp      x-vel       y-vel       z-vel      x-accl      y-accl      z-accl      x-coor      y-coor      z-coor
    22626 -7.81897E-05 8.94196E-03-1.73904E-02-4.92483E-04 2.19230E-02-4.46425E-02-2.18875E-04 2.43034E-02-5.95710E-02 4.65930E+00-2.81819E+01-4.49991E+01



 n o d a l   p r i n t   o u t   f o r   t i m e  s t e p    1601                              ( at time 7.9991994E-01 )

 nodal point  x-rot      y-rot       z-rot       x-rot vel   y-rot vel   z-rot vel   x-rot acc   y-rot acc   z-rot acc
    22626 -3.49793E-05-9.61177E-07-6.48331E-07-9.50023E-05-5.37530E-06 5.82777E-07-2.21879E-04-5.25196E-05-2.61015E-05



 n o d a l   p r i n t   o u t   f o r   t i m e  s t e p    1801                              ( at time 8.9990994E-01 )

 nodal point  x-disp     y-disp      z-disp      x-vel       y-vel       z-vel      x-accl      y-accl      z-accl      x-coor      y-coor      z-coor
    22626 -1.13727E-04 1.11794E-02-2.18574E-02-2.62738E-04 2.36690E-02-4.48650E-02 2.29768E-03 1.74615E-02-2.22515E-03 4.65926E+00-2.81797E+01-4.50036E+01



 n o d a l   p r i n t   o u t   f o r   t i m e  s t e p    1801                              ( at time 8.9990994E-01 )

 nodal point  x-rot      y-rot       z-rot       x-rot vel   y-rot vel   z-rot vel   x-rot acc   y-rot acc   z-rot acc
    22626 -4.37885E-05-1.13555E-06-7.90156E-07-8.75290E-05 5.58252E-07-2.75054E-06 7.47400E-05 5.93415E-05-3.33365E-05



 n o d a l   p r i n t   o u t   f o r   t i m e  s t e p    2001                              ( at time 9.9989993E-01 )

 nodal point  x-disp     y-disp      z-disp      x-vel       y-vel       z-vel      x-accl      y-accl      z-accl      x-coor      y-coor      z-coor
    22626 -1.44938E-04 1.36688E-02-2.65055E-02 2.39361E-05 2.59032E-02-4.89054E-02 2.86703E-03 2.23449E-02-4.04078E-02 4.65923E+00-2.81772E+01-4.50082E+01



 n o d a l   p r i n t   o u t   f o r   t i m e  s t e p    2001                              ( at time 9.9989993E-01 )

 nodal point  x-rot      y-rot       z-rot       x-rot vel   y-rot vel   z-rot vel   x-rot acc   y-rot acc   z-rot acc
    22626 -5.34362E-05-1.25891E-06-9.68888E-07-1.13261E-04-8.62903E-07-6.05086E-06-2.57342E-04-1.42130E-05-3.30065E-05



 n o d a l   p r i n t   o u t   f o r   t i m e  s t e p    2201                              ( at time 1.0998899E+00 )

 nodal point  x-disp     y-disp      z-disp      x-vel       y-vel       z-vel      x-accl      y-accl      z-accl      x-coor      y-coor      z-coor
    22626 -1.45815E-04 1.63427E-02-3.16974E-02-2.60199E-04 2.81556E-02-5.45352E-02-2.84163E-03 2.25258E-02-5.63042E-02 4.65923E+00-2.81745E+01-4.50134E+01



 n o d a l   p r i n t   o u t   f o r   t i m e  s t e p    2201                              ( at time 1.0998899E+00 )

 nodal point  x-rot      y-rot       z-rot       x-rot vel   y-rot vel   z-rot vel   x-rot acc   y-rot acc   z-rot acc
    22626 -6.53212E-05-1.62631E-06-1.65866E-06-1.11939E-04-1.10282E-05-6.70673E-06 1.32168E-05-1.01663E-04-6.55937E-06



 n o d a l   p r i n t   o u t   f o r   t i m e  s t e p    2401                              ( at time 1.1998799E+00 )

 nodal point  x-disp     y-disp      z-disp      x-vel       y-vel       z-vel      x-accl      y-accl      z-accl      x-coor      y-coor      z-coor
    22626 -1.65127E-04 1.92003E-02-3.73941E-02-6.90455E-05 2.91838E-02-5.90697E-02 1.91172E-03 1.02832E-02-4.53494E-02 4.65921E+00-2.81716E+01-4.50191E+01



 n o d a l   p r i n t   o u t   f o r   t i m e  s t e p    2401                              ( at time 1.1998799E+00 )

 nodal point  x-rot      y-rot       z-rot       x-rot vel   y-rot vel   z-rot vel   x-rot acc   y-rot acc   z-rot acc
    22626 -7.63736E-05-2.64823E-06-2.43752E-06-1.14604E-04-1.21922E-05-9.18350E-06-2.66499E-05-1.16418E-05-2.47702E-05



 n o d a l   p r i n t   o u t   f o r   t i m e  s t e p    2601                              ( at time 1.2998699E+00 )

 nodal point  x-disp     y-disp      z-disp      x-vel       y-vel       z-vel      x-accl      y-accl      z-accl      x-coor      y-coor      z-coor
    22626 -1.83173E-04 2.22230E-02-4.34170E-02-1.79043E-05 3.11418E-02-6.11729E-02 5.11463E-04 1.95822E-02-2.10346E-02 4.65919E+00-2.81686E+01-4.50251E+01



 n o d a l   p r i n t   o u t   f o r   t i m e  s t e p    2601                              ( at time 1.2998699E+00 )

 nodal point  x-rot      y-rot       z-rot       x-rot vel   y-rot vel   z-rot vel   x-rot acc   y-rot acc   z-rot acc
    22626 -8.89849E-05-3.84912E-06-3.43714E-06-1.46313E-04-8.32756E-06-1.09256E-05-3.17122E-04 3.86507E-05-1.74226E-05



 n o d a l   p r i n t   o u t   f o r   t i m e  s t e p    2801                              ( at time 1.3998599E+00 )

 nodal point  x-disp     y-disp      z-disp      x-vel       y-vel       z-vel      x-accl      y-accl      z-accl      x-coor      y-coor      z-coor
    22626 -1.78524E-04 2.54259E-02-4.95882E-02-9.23752E-05 3.25650E-02-6.28212E-02-7.44783E-04 1.42329E-02-1.64845E-02 4.65920E+00-2.81654E+01-4.50313E+01



 n o d a l   p r i n t   o u t   f o r   t i m e  s t e p    2801                              ( at time 1.3998599E+00 )

 nodal point  x-rot      y-rot       z-rot       x-rot vel   y-rot vel   z-rot vel   x-rot acc   y-rot acc   z-rot acc
    22626 -1.04433E-04-4.67197E-06-4.60688E-06-1.60351E-04-1.09120E-05-9.97124E-06-1.40399E-04-2.58467E-05 9.54445E-06



 n o d a l   p r i n t   o u t   f o r   t i m e  s t e p    3001                              ( at time 1.4998499E+00 )

 nodal point  x-disp     y-disp      z-disp      x-vel       y-vel       z-vel      x-accl      y-accl      z-accl      x-coor      y-coor      z-coor
    22626 -1.88694E-04 2.88072E-02-5.61690E-02-1.18405E-04 3.48638E-02-6.93354E-02-2.60324E-04 2.29908E-02-6.51480E-02 4.65919E+00-2.81620E+01-4.50379E+01



 n o d a l   p r i n t   o u t   f o r   t i m e  s t e p    3001                              ( at time 1.4998499E+00 )

 nodal point  x-rot      y-rot       z-rot       x-rot vel   y-rot vel   z-rot vel   x-rot acc   y-rot acc   z-rot acc
    22626 -1.20424E-04-5.87689E-06-5.79965E-06-1.55667E-04-1.44623E-05-1.62509E-05 4.68492E-05-3.55067E-05-6.28032E-05



 n o d a l   p r i n t   o u t   f o r   t i m e  s t e p    3201                              ( at time 1.5998399E+00 )

 nodal point  x-disp     y-disp      z-disp      x-vel       y-vel       z-vel      x-accl      y-accl      z-accl      x-coor      y-coor      z-coor
    22626 -2.17823E-04 3.24642E-02-6.33890E-02-1.72523E-04 3.81181E-02-7.43318E-02-5.41232E-04 3.25463E-02-4.99698E-02 4.65916E+00-2.81584E+01-4.50451E+01



 n o d a l   p r i n t   o u t   f o r   t i m e  s t e p    3201                              ( at time 1.5998399E+00 )

 nodal point  x-rot      y-rot       z-rot       x-rot vel   y-rot vel   z-rot vel   x-rot acc   y-rot acc   z-rot acc
    22626 -1.35800E-04-7.36633E-06-7.22591E-06-1.61615E-04-1.93232E-05-1.65561E-05-5.94837E-05-4.86143E-05-3.05230E-06



 n o d a l   p r i n t   o u t   f o r   t i m e  s t e p    3401                              ( at time 1.6998299E+00 )

 nodal point  x-disp     y-disp      z-disp      x-vel       y-vel       z-vel      x-accl      y-accl      z-accl      x-coor      y-coor      z-coor
    22626 -2.20713E-04 3.63646E-02-7.09663E-02 9.47848E-05 3.96935E-02-7.68455E-02 2.67334E-03 1.57554E-02-2.51389E-02 4.65915E+00-2.81545E+01-4.50527E+01



 n o d a l   p r i n t   o u t   f o r   t i m e  s t e p    3401                              ( at time 1.6998299E+00 )

 nodal point  x-rot      y-rot       z-rot       x-rot vel   y-rot vel   z-rot vel   x-rot acc   y-rot acc   z-rot acc
    22626 -1.53122E-04-9.44625E-06-9.03839E-06-1.75979E-04-2.17120E-05-1.67662E-05-1.43661E-04-2.38904E-05-2.10056E-06



 n o d a l   p r i n t   o u t   f o r   t i m e  s t e p    3601                              ( at time 1.7998199E+00 )

 nodal point  x-disp     y-disp      z-disp      x-vel       y-vel       z-vel      x-accl      y-accl      z-accl      x-coor      y-coor      z-coor
    22626 -2.07378E-04 4.03688E-02-7.87732E-02 1.20802E-04 4.06574E-02-7.91185E-02 2.60197E-04 9.64020E-03-2.27325E-02 4.65917E+00-2.81505E+01-4.50605E+01



 n o d a l   p r i n t   o u t   f o r   t i m e  s t e p    3601                              ( at time 1.7998199E+00 )

 nodal point  x-rot      y-rot       z-rot       x-rot vel   y-rot vel   z-rot vel   x-rot acc   y-rot acc   z-rot acc
    22626 -1.71479E-04-1.16330E-05-1.09498E-05-1.81984E-04-2.04258E-05-2.19406E-05-6.00538E-05 1.28633E-05-5.17493E-05



 n o d a l   p r i n t   o u t   f o r   t i m e  s t e p    3801                              ( at time 1.8998099E+00 )

 nodal point  x-disp     y-disp      z-disp      x-vel       y-vel       z-vel      x-accl      y-accl      z-accl      x-coor      y-coor      z-coor
    22626 -1.96003E-04 4.45524E-02-8.68875E-02 2.94962E-04 4.28220E-02-8.34716E-02 1.74178E-03 2.16474E-02-4.35355E-02 4.65918E+00-2.81463E+01-4.50686E+01



 n o d a l   p r i n t   o u t   f o r   t i m e  s t e p    3801                              ( at time 1.8998099E+00 )

 nodal point  x-rot      y-rot       z-rot       x-rot vel   y-rot vel   z-rot vel   x-rot acc   y-rot acc   z-rot acc
    22626 -1.90018E-04-1.37012E-05-1.30945E-05-1.86402E-04-2.61184E-05-2.61235E-05-4.41820E-05-5.69314E-05-4.18331E-05



 n o d a l   p r i n t   o u t   f o r   t i m e  s t e p    4001                              ( at time 1.9997999E+00 )

 nodal point  x-disp     y-disp      z-disp      x-vel       y-vel       z-vel      x-accl      y-accl      z-accl      x-coor      y-coor      z-coor
    22626 -1.79287E-04 4.88844E-02-9.54741E-02 1.29814E-04 4.38743E-02-8.79270E-02-1.65164E-03 1.05242E-02-4.45577E-02 4.65920E+00-2.81419E+01-4.50772E+01



 n o d a l   p r i n t   o u t   f o r   t i m e  s t e p    4001                              ( at time 1.9997999E+00 )

 nodal point  x-rot      y-rot       z-rot       x-rot vel   y-rot vel   z-rot vel   x-rot acc   y-rot acc   z-rot acc
    22626 -2.09007E-04-1.64305E-05-1.53742E-05-1.96572E-04-3.30184E-05-2.04066E-05-1.01712E-04-6.90070E-05 5.71741E-05



 n o d a l   p r i n t   o u t   f o r   t i m e  s t e p    4201                              ( at time 2.0997899E+00 )

 nodal point  x-disp     y-disp      z-disp      x-vel       y-vel       z-vel      x-accl      y-accl      z-accl      x-coor      y-coor      z-coor
    22626 -1.39938E-04 5.33173E-02-1.04374E-01 5.37975E-04 4.51322E-02-9.02997E-02 4.08201E-03 1.25801E-02-2.37298E-02 4.65924E+00-2.81375E+01-4.50861E+01



 n o d a l   p r i n t   o u t   f o r   t i m e  s t e p    4201                              ( at time 2.0997899E+00 )

 nodal point  x-rot      y-rot       z-rot       x-rot vel   y-rot vel   z-rot vel   x-rot acc   y-rot acc   z-rot acc
    22626 -2.28159E-04-1.97525E-05-1.75453E-05-1.87977E-04-3.40874E-05-1.94277E-05 8.59541E-05-1.06909E-05 9.79052E-06



 n o d a l   p r i n t   o u t   f o r   t i m e  s t e p    4401                              ( at time 2.1997798E+00 )

 nodal point  x-disp     y-disp      z-disp      x-vel       y-vel       z-vel      x-accl      y-accl      z-accl      x-coor      y-coor      z-coor
    22626 -8.59377E-05 5.79078E-02-1.13488E-01 7.42841E-04 4.63002E-02-9.18631E-02 2.04887E-03 1.16810E-02-1.56357E-02 4.65929E+00-2.81329E+01-4.50952E+01



 n o d a l   p r i n t   o u t   f o r   t i m e  s t e p    4401                              ( at time 2.1997798E+00 )

 nodal point  x-rot      y-rot       z-rot       x-rot vel   y-rot vel   z-rot vel   x-rot acc   y-rot acc   z-rot acc
    22626 -2.47355E-04-2.29521E-05-1.94415E-05-1.94901E-04-2.79407E-05-1.75327E-05-6.92417E-05 6.14728E-05 1.89516E-05



 n o d a l   p r i n t   o u t   f o r   t i m e  s t e p    4601                              ( at time 2.2997698E+00 )

 nodal point  x-disp     y-disp      z-disp      x-vel       y-vel       z-vel      x-accl      y-accl      z-accl      x-coor      y-coor      z-coor
    22626 -4.92035E-05 6.25698E-02-1.22756E-01-1.07243E-04 4.74854E-02-9.40058E-02-8.50168E-03 1.18540E-02-2.14288E-02 4.65933E+00-2.81283E+01-4.51045E+01



 n o d a l   p r i n t   o u t   f o r   t i m e  s t e p    4601                              ( at time 2.2997698E+00 )

 nodal point  x-rot      y-rot       z-rot       x-rot vel   y-rot vel   z-rot vel   x-rot acc   y-rot acc   z-rot acc
    22626 -2.67554E-04-2.49366E-05-2.11411E-05-1.95689E-04-1.60435E-05-1.95779E-05-7.88559E-06 1.18984E-04-2.04543E-05



 n o d a l   p r i n t   o u t   f o r   t i m e  s t e p    4801                              ( at time 2.3997598E+00 )

 nodal point  x-disp     y-disp      z-disp      x-vel       y-vel       z-vel      x-accl      y-accl      z-accl      x-coor      y-coor      z-coor
    22626 -1.02272E-04 6.74228E-02-1.32401E-01-9.08052E-04 4.91628E-02-9.89787E-02-8.00890E-03 1.67756E-02-4.97347E-02 4.65927E+00-2.81234E+01-4.51141E+01



 n o d a l   p r i n t   o u t   f o r   t i m e  s t e p    4801                              ( at time 2.3997598E+00 )

 nodal point  x-rot      y-rot       z-rot       x-rot vel   y-rot vel   z-rot vel   x-rot acc   y-rot acc   z-rot acc
    22626 -2.87038E-04-2.64352E-05-2.27639E-05-1.97359E-04-1.52685E-05-1.23154E-05-1.67013E-05 7.75061E-06 7.26324E-05



 n o d a l   p r i n t   o u t   f o r   t i m e  s t e p    5001                              ( at time 2.4997498E+00 )

 nodal point  x-disp     y-disp      z-disp      x-vel       y-vel       z-vel      x-accl      y-accl      z-accl      x-coor      y-coor      z-coor
    22626 -1.98448E-04 7.24314E-02-1.42471E-01-7.65760E-04 5.05572E-02-1.01567E-01 1.42306E-03 1.39450E-02-2.58839E-02 4.65918E+00-2.81184E+01-4.51242E+01



 n o d a l   p r i n t   o u t   f o r   t i m e  s t e p    5001                              ( at time 2.4997498E+00 )

 nodal point  x-rot      y-rot       z-rot       x-rot vel   y-rot vel   z-rot vel   x-rot acc   y-rot acc   z-rot acc
    22626 -3.07274E-04-2.76739E-05-2.39436E-05-1.98997E-04-1.28178E-05-1.12414E-05-1.63815E-05 2.45098E-05 1.07416E-05



 n o d a l   p r i n t   o u t   f o r   t i m e  s t e p    5201                              ( at time 2.5997398E+00 )

 nodal point  x-disp     y-disp      z-disp      x-vel       y-vel       z-vel      x-accl      y-accl      z-accl      x-coor      y-coor      z-coor
    22626 -2.26334E-04 7.75146E-02-1.52636E-01 4.80032E-05 5.08224E-02-1.01605E-01 8.13846E-03 2.65267E-03-3.84712E-04 4.65915E+00-2.81133E+01-4.51344E+01



 n o d a l   p r i n t   o u t   f o r   t i m e  s t e p    5201                              ( at time 2.5997398E+00 )

 nodal point  x-rot      y-rot       z-rot       x-rot vel   y-rot vel   z-rot vel   x-rot acc   y-rot acc   z-rot acc
    22626 -3.27754E-04-2.95809E-05-2.57177E-05-2.03179E-04-2.13089E-05-1.78912E-05-4.18244E-05-8.49191E-05-6.65048E-05



 n o d a l   p r i n t   o u t   f o r   t i m e  s t e p    5401                              ( at time 2.6997298E+00 )

 nodal point  x-disp     y-disp      z-disp      x-vel       y-vel       z-vel      x-accl      y-accl      z-accl      x-coor      y-coor      z-coor
    22626 -2.03149E-04 8.26354E-02-1.62787E-01 5.29202E-04 5.19458E-02-1.01567E-01 4.81246E-03 1.12352E-02 3.78527E-04 4.65917E+00-2.81082E+01-4.51445E+01



 n o d a l   p r i n t   o u t   f o r   t i m e  s t e p    5401                              ( at time 2.6997298E+00 )

 nodal point  x-rot      y-rot       z-rot       x-rot vel   y-rot vel   z-rot vel   x-rot acc   y-rot acc   z-rot acc
    22626 -3.49570E-04-3.19809E-05-2.76480E-05-2.31852E-04-2.60510E-05-2.22909E-05-2.86754E-04-4.74257E-05-4.40016E-05



 n o d a l   p r i n t   o u t   f o r   t i m e  s t e p    5601                              ( at time 2.7997198E+00 )

 nodal point  x-disp     y-disp      z-disp      x-vel       y-vel       z-vel      x-accl      y-accl      z-accl      x-coor      y-coor      z-coor
    22626 -1.76671E-04 8.79064E-02-1.72993E-01 1.45636E-05 5.33992E-02-1.02555E-01-5.14690E-03 1.45351E-02-9.87540E-03 4.65920E+00-2.81029E+01-4.51547E+01



 n o d a l   p r i n t   o u t   f o r   t i m e  s t e p    5601                              ( at time 2.7997198E+00 )

 nodal point  x-rot      y-rot       z-rot       x-rot vel   y-rot vel   z-rot vel   x-rot acc   y-rot acc   z-rot acc
    22626 -3.72781E-04-3.51654E-05-3.02773E-05-2.26876E-04-3.87594E-05-3.00648E-05 4.97640E-05-1.27097E-04-7.77468E-05



 n o d a l   p r i n t   o u t   f o r   t i m e  s t e p    5801                              ( at time 2.8997098E+00 )

 nodal point  x-disp     y-disp      z-disp      x-vel       y-vel       z-vel      x-accl      y-accl      z-accl      x-coor      y-coor      z-coor
    22626 -1.58411E-04 9.33182E-02-1.83322E-01 4.11125E-04 5.54322E-02-1.04390E-01 3.96602E-03 2.03320E-02-1.83526E-02 4.65922E+00-2.80975E+01-4.51650E+01



 n o d a l   p r i n t   o u t   f o r   t i m e  s t e p    5801                              ( at time 2.8997098E+00 )

 nodal point  x-rot      y-rot       z-rot       x-rot vel   y-rot vel   z-rot vel   x-rot acc   y-rot acc   z-rot acc
    22626 -3.95719E-04-3.88058E-05-3.32189E-05-2.45931E-04-3.46783E-05-2.70244E-05-1.90566E-04 4.08145E-05 3.04071E-05



 n o d a l   p r i n t   o u t   f o r   t i m e  s t e p    6001                              ( at time 2.9996998E+00 )

 nodal point  x-disp     y-disp      z-disp      x-vel       y-vel       z-vel      x-accl      y-accl      z-accl      x-coor      y-coor      z-coor
    22626 -1.35808E-04 9.89478E-02-1.93769E-01 2.09616E-04 5.73827E-02-1.03965E-01-2.01529E-03 1.95073E-02 4.24956E-03 4.65924E+00-2.80919E+01-4.51755E+01



 n o d a l   p r i n t   o u t   f o r   t i m e  s t e p    6001                              ( at time 2.9996998E+00 )

 nodal point  x-rot      y-rot       z-rot       x-rot vel   y-rot vel   z-rot vel   x-rot acc   y-rot acc   z-rot acc
    22626 -4.22165E-04-4.21451E-05-3.61741E-05-2.83940E-04-3.22473E-05-2.90394E-05-3.80129E-04 2.43125E-05-2.01524E-05



 n o d a l   p r i n t   o u t   f o r   t i m e  s t e p    6201                              ( at time 3.0996898E+00 )

 nodal point  x-disp     y-disp      z-disp      x-vel       y-vel       z-vel      x-accl      y-accl      z-accl      x-coor      y-coor      z-coor
    22626 -1.35450E-04 1.04858E-01-2.04104E-01-2.42196E-05 6.09907E-02-1.03009E-01-2.33859E-03 3.60829E-02 9.55954E-03 4.65924E+00-2.80860E+01-4.51858E+01



 n o d a l   p r i n t   o u t   f o r   t i m e  s t e p    6201                              ( at time 3.0996898E+00 )

 nodal point  x-rot      y-rot       z-rot       x-rot vel   y-rot vel   z-rot vel   x-rot acc   y-rot acc   z-rot acc
    22626 -4.52202E-04-4.54515E-05-3.92225E-05-3.17372E-04-3.65877E-05-2.88701E-05-3.34354E-04-4.34084E-05 1.69381E-06



 n o d a l   p r i n t   o u t   f o r   t i m e  s t e p    6401                              ( at time 3.1996798E+00 )

 nodal point  x-disp     y-disp      z-disp      x-vel       y-vel       z-vel      x-accl      y-accl      z-accl      x-coor      y-coor      z-coor
    22626 -1.08559E-04 1.11184E-01-2.14493E-01 2.97422E-04 6.61349E-02-1.04854E-01 3.21673E-03 5.14471E-02-1.84455E-02 4.65927E+00-2.80796E+01-4.51962E+01



 n o d a l   p r i n t   o u t   f o r   t i m e  s t e p    6401                              ( at time 3.1996798E+00 )

 nodal point  x-rot      y-rot       z-rot       x-rot vel   y-rot vel   z-rot vel   x-rot acc   y-rot acc   z-rot acc
    22626 -4.85848E-04-4.91007E-05-4.29786E-05-3.56996E-04-3.34841E-05-4.08938E-05-3.96283E-04 3.10399E-05-1.20249E-04



 n o d a l   p r i n t   o u t   f o r   t i m e  s t e p    6601                              ( at time 3.2996698E+00 )

 nodal point  x-disp     y-disp      z-disp      x-vel       y-vel       z-vel      x-accl      y-accl      z-accl      x-coor      y-coor      z-coor
    22626 -9.24001E-05 1.18100E-01-2.25112E-01-1.02499E-04 7.24170E-02-1.07218E-01-3.99961E-03 6.28277E-02-2.36473E-02 4.65928E+00-2.80727E+01-4.52068E+01



 n o d a l   p r i n t   o u t   f o r   t i m e  s t e p    6601                              ( at time 3.2996698E+00 )

 nodal point  x-rot      y-rot       z-rot       x-rot vel   y-rot vel   z-rot vel   x-rot acc   y-rot acc   z-rot acc
    22626 -5.23831E-04-5.28534E-05-4.71611E-05-4.01921E-04-3.40782E-05-4.35750E-05-4.49290E-04-5.94189E-06-2.68146E-05



 n o d a l   p r i n t   o u t   f o r   t i m e  s t e p    6801                              ( at time 3.3996598E+00 )

 nodal point  x-disp     y-disp      z-disp      x-vel       y-vel       z-vel      x-accl      y-accl      z-accl      x-coor      y-coor      z-coor
    22626 -9.99432E-05 1.25681E-01-2.35870E-01-3.57158E-04 7.93310E-02-1.07404E-01-2.54684E-03 6.91466E-02-1.85910E-03 4.65928E+00-2.80651E+01-4.52176E+01



 n o d a l   p r i n t   o u t   f o r   t i m e  s t e p    6801                              ( at time 3.3996598E+00 )

 nodal point  x-rot      y-rot       z-rot       x-rot vel   y-rot vel   z-rot vel   x-rot acc   y-rot acc   z-rot acc
    22626 -5.67426E-04-5.75709E-05-5.22232E-05-4.67630E-04-5.04323E-05-5.82579E-05-6.57155E-04-1.63557E-04-1.46843E-04



 n o d a l   p r i n t   o u t   f o r   t i m e  s t e p    7001                              ( at time 3.4996498E+00 )

 nodal point  x-disp     y-disp      z-disp      x-vel       y-vel       z-vel      x-accl      y-accl      z-accl      x-coor      y-coor      z-coor
    22626 -7.55606E-05 1.33992E-01-2.46559E-01 4.70466E-04 8.69108E-02-1.06434E-01 8.27708E-03 7.58062E-02 9.70119E-03 4.65930E+00-2.80568E+01-4.52283E+01



 n o d a l   p r i n t   o u t   f o r   t i m e  s t e p    7001                              ( at time 3.4996498E+00 )

 nodal point  x-rot      y-rot       z-rot       x-rot vel   y-rot vel   z-rot vel   x-rot acc   y-rot acc   z-rot acc
    22626 -6.18101E-04-6.31385E-05-5.79181E-05-5.45716E-04-5.81939E-05-5.72508E-05-7.80942E-04-7.76240E-05 1.00714E-05



 n o d a l   p r i n t   o u t   f o r   t i m e  s t e p    7201                              ( at time 3.5996397E+00 )

 nodal point  x-disp     y-disp      z-disp      x-vel       y-vel       z-vel      x-accl      y-accl      z-accl      x-coor      y-coor      z-coor
    22626  4.10630E-08 1.43121E-01-2.57168E-01 8.77309E-04 9.58613E-02-1.06216E-01 4.06884E-03 8.95135E-02 2.18332E-03 4.65938E+00-2.80477E+01-4.52389E+01



 n o d a l   p r i n t   o u t   f o r   t i m e  s t e p    7201                              ( at time 3.5996397E+00 )

 nodal point  x-rot      y-rot       z-rot       x-rot vel   y-rot vel   z-rot vel   x-rot acc   y-rot acc   z-rot acc
    22626 -6.75886E-04-6.86102E-05-6.32228E-05-6.22590E-04-5.83599E-05-6.11274E-05-7.68813E-04-1.66040E-06-3.87697E-05



 n o d a l   p r i n t   o u t   f o r   t i m e  s t e p    7401                              ( at time 3.6996297E+00 )

 nodal point  x-disp     y-disp      z-disp      x-vel       y-vel       z-vel      x-accl      y-accl      z-accl      x-coor      y-coor      z-coor
    22626  4.13909E-05 1.53203E-01-2.67837E-01 1.44539E-04 1.05792E-01-1.07474E-01-7.32842E-03 9.93191E-02-1.25854E-02 4.65942E+00-2.80376E+01-4.52496E+01



 n o d a l   p r i n t   o u t   f o r   t i m e  s t e p    7401                              ( at time 3.6996297E+00 )

 nodal point  x-rot      y-rot       z-rot       x-rot vel   y-rot vel   z-rot vel   x-rot acc   y-rot acc   z-rot acc
    22626 -7.41247E-04-7.49299E-05-7.01542E-05-7.01632E-04-6.57748E-05-7.49000E-05-7.90502E-04-7.41560E-05-1.37740E-04



 n o d a l   p r i n t   o u t   f o r   t i m e  s t e p    7601                              ( at time 3.7996197E+00 )

 nodal point  x-disp     y-disp      z-disp      x-vel       y-vel       z-vel      x-accl      y-accl      z-accl      x-coor      y-coor      z-coor
    22626  4.32169E-05 1.64353E-01-2.78587E-01 4.62967E-05 1.17439E-01-1.07628E-01-9.82524E-04 1.16477E-01-1.53989E-03 4.65942E+00-2.80265E+01-4.52603E+01



 n o d a l   p r i n t   o u t   f o r   t i m e  s t e p    7601                              ( at time 3.7996197E+00 )

 nodal point  x-rot      y-rot       z-rot       x-rot vel   y-rot vel   z-rot vel   x-rot acc   y-rot acc   z-rot acc
    22626 -8.14727E-04-8.17064E-05-7.80062E-05-7.87142E-04-7.02578E-05-7.72119E-05-8.55189E-04-4.48348E-05-2.31210E-05



 n o d a l   p r i n t   o u t   f o r   t i m e  s t e p    7801                              ( at time 3.8996097E+00 )

 nodal point  x-disp     y-disp      z-disp      x-vel       y-vel       z-vel      x-accl      y-accl      z-accl      x-coor      y-coor      z-coor
    22626  6.80457E-05 1.76687E-01-2.89328E-01 4.18534E-04 1.29519E-01-1.06833E-01 3.72274E-03 1.20815E-01 7.95495E-03 4.65944E+00-2.80141E+01-4.52710E+01



 n o d a l   p r i n t   o u t   f o r   t i m e  s t e p    7801                              ( at time 3.8996097E+00 )

 nodal point  x-rot      y-rot       z-rot       x-rot vel   y-rot vel   z-rot vel   x-rot acc   y-rot acc   z-rot acc
    22626 -8.98338E-04-8.88048E-05-8.57357E-05-8.99334E-04-7.35823E-05-8.08276E-05-1.12203E-03-3.32479E-05-3.61606E-05



 n o d a l   p r i n t   o u t   f o r   t i m e  s t e p    8001                              ( at time 3.9995997E+00 )

 nodal point  x-disp     y-disp      z-disp      x-vel       y-vel       z-vel      x-accl      y-accl      z-accl      x-coor      y-coor      z-coor
    22626  8.41535E-05 1.90247E-01-2.99928E-01-1.66123E-04 1.41971E-01-1.05148E-01-5.84716E-03 1.24527E-01 1.68496E-02 4.65946E+00-2.80006E+01-4.52816E+01



 n o d a l   p r i n t   o u t   f o r   t i m e  s t e p    8001                              ( at time 3.9995997E+00 )

 nodal point  x-rot      y-rot       z-rot       x-rot vel   y-rot vel   z-rot vel   x-rot acc   y-rot acc   z-rot acc
    22626 -9.93084E-04-9.60944E-05-9.44128E-05-9.93794E-04-7.32598E-05-9.24465E-05-9.44695E-04 3.22503E-06-1.16200E-04



 n o d a l   p r i n t   o u t   f o r   t i m e  s t e p    8201                              ( at time 4.0995897E+00 )

 nodal point  x-disp     y-disp      z-disp      x-vel       y-vel       z-vel      x-accl      y-accl      z-accl      x-coor      y-coor      z-coor
    22626  2.31490E-05 2.05151E-01-3.10499E-01-5.83424E-04 1.56070E-01-1.06370E-01-4.17342E-03 1.41005E-01-1.22249E-02 4.65940E+00-2.79857E+01-4.52922E+01



 n o d a l   p r i n t   o u t   f o r   t i m e  s t e p    8201                              ( at time 4.0995897E+00 )

 nodal point  x-rot      y-rot       z-rot       x-rot vel   y-rot vel   z-rot vel   x-rot acc   y-rot acc   z-rot acc
    22626 -1.09673E-03-1.03661E-04-1.04515E-04-1.08748E-03-7.75240E-05-1.07532E-04-9.36989E-04-4.26461E-05-1.50871E-04



 n o d a l   p r i n t   o u t   f o r   t i m e  s t e p    8401                              ( at time 4.1995797E+00 )

 nodal point  x-disp     y-disp      z-disp      x-vel       y-vel       z-vel      x-accl      y-accl      z-accl      x-coor      y-coor      z-coor
    22626 -4.96403E-05 2.21513E-01-3.21136E-01-6.69374E-04 1.70972E-01-1.06235E-01-8.59593E-04 1.49042E-01 1.35055E-03 4.65933E+00-2.79693E+01-4.53029E+01



 n o d a l   p r i n t   o u t   f o r   t i m e  s t e p    8401                              ( at time 4.1995797E+00 )

 nodal point  x-rot      y-rot       z-rot       x-rot vel   y-rot vel   z-rot vel   x-rot acc   y-rot acc   z-rot acc
    22626 -1.21207E-03-1.11775E-04-1.15327E-04-1.21428E-03-7.66019E-05-1.02753E-04-1.26809E-03 9.22226E-06 4.77956E-05



 n o d a l   p r i n t   o u t   f o r   t i m e  s t e p    8601                              ( at time 4.2995697E+00 )

 nodal point  x-disp     y-disp      z-disp      x-vel       y-vel       z-vel      x-accl      y-accl      z-accl      x-coor      y-coor      z-coor
    22626 -1.13302E-04 2.39380E-01-3.31721E-01-8.23492E-04 1.86196E-01-1.05499E-01-1.54134E-03 1.52255E-01 7.36326E-03 4.65926E+00-2.79515E+01-4.53134E+01



 n o d a l   p r i n t   o u t   f o r   t i m e  s t e p    8601                              ( at time 4.2995697E+00 )

 nodal point  x-rot      y-rot       z-rot       x-rot vel   y-rot vel   z-rot vel   x-rot acc   y-rot acc   z-rot acc
    22626 -1.33849E-03-1.20006E-04-1.25537E-04-1.31809E-03-8.51476E-05-1.07043E-04-1.03823E-03-8.54656E-05-4.29091E-05



 n o d a l   p r i n t   o u t   f o r   t i m e  s t e p    8801                              ( at time 4.3995597E+00 )

 nodal point  x-disp     y-disp      z-disp      x-vel       y-vel       z-vel      x-accl      y-accl      z-accl      x-coor      y-coor      z-coor
    22626 -2.36833E-04 2.58721E-01-3.42124E-01-1.65645E-03 2.00663E-01-1.02916E-01-8.33046E-03 1.44681E-01 2.58347E-02 4.65914E+00-2.79321E+01-4.53238E+01



 n o d a l   p r i n t   o u t   f o r   t i m e  s t e p    8801                              ( at time 4.3995597E+00 )

 nodal point  x-rot      y-rot       z-rot       x-rot vel   y-rot vel   z-rot vel   x-rot acc   y-rot acc   z-rot acc
    22626 -1.47611E-03-1.28748E-04-1.37799E-04-1.44663E-03-9.06611E-05-1.37576E-04-1.28554E-03-5.51410E-05-3.05352E-04



 n o d a l   p r i n t   o u t   f o r   t i m e  s t e p    9001                              ( at time 4.4995497E+00 )

 nodal point  x-disp     y-disp      z-disp      x-vel       y-vel       z-vel      x-accl      y-accl      z-accl      x-coor      y-coor      z-coor
    22626 -4.39986E-04 2.79619E-01-3.52332E-01-2.10715E-03 2.17351E-01-1.02190E-01-4.50739E-03 1.66900E-01 7.25771E-03 4.65894E+00-2.79112E+01-4.53341E+01



 n o d a l   p r i n t   o u t   f o r   t i m e  s t e p    9001                              ( at time 4.4995497E+00 )

 nodal point  x-rot      y-rot       z-rot       x-rot vel   y-rot vel   z-rot vel   x-rot acc   y-rot acc   z-rot acc
    22626 -1.62688E-03-1.37309E-04-1.50954E-04-1.57577E-03-7.93542E-05-1.26585E-04-1.29152E-03 1.13080E-04 1.09919E-04



 n o d a l   p r i n t   o u t   f o r   t i m e  s t e p    9201                              ( at time 4.5995397E+00 )

 nodal point  x-disp     y-disp      z-disp      x-vel       y-vel       z-vel      x-accl      y-accl      z-accl      x-coor      y-coor      z-coor
    22626 -6.25635E-04 3.02205E-01-3.62517E-01-1.77321E-03 2.34305E-01-1.01624E-01 3.33979E-03 1.69553E-01 5.65862E-03 4.65875E+00-2.78886E+01-4.53442E+01



 n o d a l   p r i n t   o u t   f o r   t i m e  s t e p    9201                              ( at time 4.5995397E+00 )

 nodal point  x-rot      y-rot       z-rot       x-rot vel   y-rot vel   z-rot vel   x-rot acc   y-rot acc   z-rot acc
    22626 -1.78994E-03-1.44539E-04-1.62979E-04-1.69459E-03-7.71858E-05-1.24582E-04-1.18825E-03 2.16866E-05 2.00278E-05



 n o d a l   p r i n t   o u t   f o r   t i m e  s t e p    9401                              ( at time 4.6995297E+00 )

 nodal point  x-disp     y-disp      z-disp      x-vel       y-vel       z-vel      x-accl      y-accl      z-accl      x-coor      y-coor      z-coor
    22626 -8.60614E-04 3.26477E-01-3.72620E-01-3.15955E-03 2.51014E-01-9.99826E-02-1.38648E-02 1.67103E-01 1.64175E-02 4.65851E+00-2.78644E+01-4.53543E+01



 n o d a l   p r i n t   o u t   f o r   t i m e  s t e p    9401                              ( at time 4.6995297E+00 )

 nodal point  x-rot      y-rot       z-rot       x-rot vel   y-rot vel   z-rot vel   x-rot acc   y-rot acc   z-rot acc
    22626 -1.96651E-03-1.52502E-04-1.76271E-04-1.83767E-03-8.06779E-05-1.37197E-04-1.43096E-03-3.49245E-05-1.26162E-04



 n o d a l   p r i n t   o u t   f o r   t i m e  s t e p    9601                              ( at time 4.7995197E+00 )

 nodal point  x-disp     y-disp      z-disp      x-vel       y-vel       z-vel      x-accl      y-accl      z-accl      x-coor      y-coor      z-coor
    22626 -1.17338E-03 3.52438E-01-3.82511E-01-3.00707E-03 2.68795E-01-9.72969E-02 1.52495E-03 1.77831E-01 2.68601E-02 4.65820E+00-2.78384E+01-4.53642E+01



 n o d a l   p r i n t   o u t   f o r   t i m e  s t e p    9601                              ( at time 4.7995197E+00 )

 nodal point  x-rot      y-rot       z-rot       x-rot vel   y-rot vel   z-rot vel   x-rot acc   y-rot acc   z-rot acc
    22626 -2.15688E-03-1.60028E-04-1.90381E-04-1.98160E-03-6.70159E-05-1.41643E-04-1.43948E-03 1.36634E-04-4.44600E-05



 n o d a l   p r i n t   o u t   f o r   t i m e  s t e p    9801                              ( at time 4.8995097E+00 )

 nodal point  x-disp     y-disp      z-disp      x-vel       y-vel       z-vel      x-accl      y-accl      z-accl      x-coor      y-coor      z-coor
    22626 -1.45940E-03 3.80236E-01-3.92109E-01-2.73128E-03 2.87194E-01-9.46313E-02 2.75817E-03 1.84010E-01 2.66589E-02 4.65792E+00-2.78106E+01-4.53738E+01



 n o d a l   p r i n t   o u t   f o r   t i m e  s t e p    9801                              ( at time 4.8995097E+00 )

 nodal point  x-rot      y-rot       z-rot       x-rot vel   y-rot vel   z-rot vel   x-rot acc   y-rot acc   z-rot acc
    22626 -2.36201E-03-1.66827E-04-2.04859E-04-2.11976E-03-6.57898E-05-1.50177E-04-1.38167E-03 1.22619E-05-8.53496E-05



 n o d a l   p r i n t   o u t   f o r   t i m e  s t e p   10001                              ( at time 4.9994997E+00 )

 nodal point  x-disp     y-disp      z-disp      x-vel       y-vel       z-vel      x-accl      y-accl      z-accl      x-coor      y-coor      z-coor
    22626 -1.71867E-03 4.09854E-01-4.01516E-01-2.95295E-03 3.05917E-01-9.41806E-02-2.21684E-03 1.87254E-01 4.50677E-03 4.65766E+00-2.77810E+01-4.53832E+01



 n o d a l   p r i n t   o u t   f o r   t i m e  s t e p   10001                              ( at time 4.9994997E+00 )

 nodal point  x-rot      y-rot       z-rot       x-rot vel   y-rot vel   z-rot vel   x-rot acc   y-rot acc   z-rot acc
    22626 -2.58052E-03-1.74567E-04-2.20523E-04-2.25574E-03-8.32725E-05-1.57574E-04-1.36002E-03-1.74844E-04-7.39754E-05



 n o d a l   p r i n t   o u t   f o r   t i m e  s t e p   10202                              ( at time 5.0999896E+00 )

 nodal point  x-disp     y-disp      z-disp      x-vel       y-vel       z-vel      x-accl      y-accl      z-accl      x-coor      y-coor      z-coor
    22626 -2.05045E-03 4.41636E-01-4.10928E-01-3.62951E-03 3.25786E-01-9.23840E-02-6.73273E-03 1.97722E-01 1.78788E-02 4.65732E+00-2.77492E+01-4.53926E+01



 n o d a l   p r i n t   o u t   f o r   t i m e  s t e p   10202                              ( at time 5.0999896E+00 )

 nodal point  x-rot      y-rot       z-rot       x-rot vel   y-rot vel   z-rot vel   x-rot acc   y-rot acc   z-rot acc
    22626 -2.81452E-03-1.83701E-04-2.37852E-04-2.40578E-03-8.80482E-05-1.85090E-04-1.49305E-03-4.75241E-05-2.73822E-04



 n o d a l   p r i n t   o u t   f o r   t i m e  s t e p   10402                              ( at time 5.1999796E+00 )

 nodal point  x-disp     y-disp      z-disp      x-vel       y-vel       z-vel      x-accl      y-accl      z-accl      x-coor      y-coor      z-coor
    22626 -2.41479E-03 4.75168E-01-4.19940E-01-3.74436E-03 3.45666E-01-8.82459E-02-1.14858E-03 1.98813E-01 4.13853E-02 4.65696E+00-2.77157E+01-4.54017E+01



 n o d a l   p r i n t   o u t   f o r   t i m e  s t e p   10402                              ( at time 5.1999796E+00 )

 nodal point  x-rot      y-rot       z-rot       x-rot vel   y-rot vel   z-rot vel   x-rot acc   y-rot acc   z-rot acc
    22626 -3.06303E-03-1.92753E-04-2.56554E-04-2.56744E-03-8.32443E-05-1.79285E-04-1.61679E-03 4.80438E-05 5.80500E-05



 n o d a l   p r i n t   o u t   f o r   t i m e  s t e p   10602                              ( at time 5.2999696E+00 )

 nodal point  x-disp     y-disp      z-disp      x-vel       y-vel       z-vel      x-accl      y-accl      z-accl      x-coor      y-coor      z-coor
    22626 -2.75634E-03 5.10782E-01-4.28629E-01-3.21357E-03 3.66350E-01-8.58812E-02 5.30849E-03 2.06865E-01 2.36496E-02 4.65662E+00-2.76800E+01-4.54104E+01



 n o d a l   p r i n t   o u t   f o r   t i m e  s t e p   10602                              ( at time 5.2999696E+00 )

 nodal point  x-rot      y-rot       z-rot       x-rot vel   y-rot vel   z-rot vel   x-rot acc   y-rot acc   z-rot acc
    22626 -3.32683E-03-2.01055E-04-2.74676E-04-2.71507E-03-8.39356E-05-1.80725E-04-1.47646E-03-6.91410E-06-1.43932E-05



 n o d a l   p r i n t   o u t   f o r   t i m e  s t e p   10802                              ( at time 5.3999596E+00 )

 nodal point  x-disp     y-disp      z-disp      x-vel       y-vel       z-vel      x-accl      y-accl      z-accl      x-coor      y-coor      z-coor
    22626 -3.13882E-03 5.48431E-01-4.37020E-01-4.33427E-03 3.86335E-01-8.26733E-02-1.12082E-02 1.99866E-01 3.20813E-02 4.65624E+00-2.76424E+01-4.54187E+01



 n o d a l   p r i n t   o u t   f o r   t i m e  s t e p   10802                              ( at time 5.3999596E+00 )

 nodal point  x-rot      y-rot       z-rot       x-rot vel   y-rot vel   z-rot vel   x-rot acc   y-rot acc   z-rot acc
    22626 -3.60546E-03-2.10345E-04-2.93960E-04-2.86266E-03-9.93780E-05-1.97088E-04-1.47600E-03-1.54440E-04-1.63646E-04



 n o d a l   p r i n t   o u t   f o r   t i m e  s t e p   11002                              ( at time 5.4999496E+00 )

 nodal point  x-disp     y-disp      z-disp      x-vel       y-vel       z-vel      x-accl      y-accl      z-accl      x-coor      y-coor      z-coor
    22626 -3.57461E-03 5.88095E-01-4.45123E-01-4.01834E-03 4.06501E-01-7.91707E-02 3.15965E-03 2.01684E-01 3.50298E-02 4.65580E+00-2.76027E+01-4.54268E+01



 n o d a l   p r i n t   o u t   f o r   t i m e  s t e p   11002                              ( at time 5.4999496E+00 )

 nodal point  x-rot      y-rot       z-rot       x-rot vel   y-rot vel   z-rot vel   x-rot acc   y-rot acc   z-rot acc
    22626 -3.89930E-03-2.20183E-04-3.13927E-04-3.01543E-03-1.00947E-04-1.98446E-04-1.52781E-03-1.56878E-05-1.35853E-05



 n o d a l   p r i n t   o u t   f o r   t i m e  s t e p   11202                              ( at time 5.5999396E+00 )

 nodal point  x-disp     y-disp      z-disp      x-vel       y-vel       z-vel      x-accl      y-accl      z-accl      x-coor      y-coor      z-coor
    22626 -3.94541E-03 6.29820E-01-4.52805E-01-3.77090E-03 4.28236E-01-7.42981E-02 2.47460E-03 2.17371E-01 4.87310E-02 4.65543E+00-2.75610E+01-4.54345E+01



 n o d a l   p r i n t   o u t   f o r   t i m e  s t e p   11202                              ( at time 5.5999396E+00 )

 nodal point  x-rot      y-rot       z-rot       x-rot vel   y-rot vel   z-rot vel   x-rot acc   y-rot acc   z-rot acc
    22626 -4.20827E-03-2.29759E-04-3.33731E-04-3.16489E-03-9.43930E-05-2.00658E-04-1.49479E-03 6.55433E-05-2.21258E-05



 n o d a l   p r i n t   o u t   f o r   t i m e  s t e p   11402                              ( at time 5.6999296E+00 )

 nodal point  x-disp     y-disp      z-disp      x-vel       y-vel       z-vel      x-accl      y-accl      z-accl      x-coor      y-coor      z-coor
    22626 -4.33400E-03 6.73543E-01-4.59954E-01-4.01380E-03 4.46454E-01-6.80038E-02-2.42922E-03 1.82194E-01 6.29492E-02 4.65504E+00-2.75173E+01-4.54417E+01



 n o d a l   p r i n t   o u t   f o r   t i m e  s t e p   11402                              ( at time 5.6999296E+00 )

 nodal point  x-rot      y-rot       z-rot       x-rot vel   y-rot vel   z-rot vel   x-rot acc   y-rot acc   z-rot acc
    22626 -4.53168E-03-2.39972E-04-3.54244E-04-3.31130E-03-1.07111E-04-2.09325E-04-1.46421E-03-1.27188E-04-8.66743E-05



 n o d a l   p r i n t   o u t   f o r   t i m e  s t e p   11602                              ( at time 5.7999195E+00 )

 nodal point  x-disp     y-disp      z-disp      x-vel       y-vel       z-vel      x-accl      y-accl      z-accl      x-coor      y-coor      z-coor
    22626 -4.80665E-03 7.19211E-01-4.66358E-01-4.91564E-03 4.66880E-01-6.14482E-02-9.01926E-03 2.04285E-01 6.55624E-02 4.65457E+00-2.74716E+01-4.54481E+01



 n o d a l   p r i n t   o u t   f o r   t i m e  s t e p   11602                              ( at time 5.7999195E+00 )

 nodal point  x-rot      y-rot       z-rot       x-rot vel   y-rot vel   z-rot vel   x-rot acc   y-rot acc   z-rot acc
    22626 -4.86927E-03-2.50473E-04-3.75166E-04-3.45573E-03-9.41354E-05-2.10986E-04-1.44450E-03 1.29765E-04-1.66082E-05



 n o d a l   p r i n t   o u t   f o r   t i m e  s t e p   11802                              ( at time 5.8999095E+00 )

 nodal point  x-disp     y-disp      z-disp      x-vel       y-vel       z-vel      x-accl      y-accl      z-accl      x-coor      y-coor      z-coor
    22626 -5.26766E-03 7.66956E-01-4.72261E-01-4.55879E-03 4.87391E-01-5.63002E-02 3.56885E-03 2.05129E-01 5.14853E-02 4.65411E+00-2.74239E+01-4.54540E+01



 n o d a l   p r i n t   o u t   f o r   t i m e  s t e p   11802                              ( at time 5.8999095E+00 )

 nodal point  x-rot      y-rot       z-rot       x-rot vel   y-rot vel   z-rot vel   x-rot acc   y-rot acc   z-rot acc
    22626 -5.22200E-03-2.59600E-04-3.95703E-04-3.61359E-03-9.50814E-05-2.08731E-04-1.57874E-03-9.46167E-06 2.25484E-05



 n o d a l   p r i n t   o u t   f o r   t i m e  s t e p   12002                              ( at time 5.9998995E+00 )

 nodal point  x-disp     y-disp      z-disp      x-vel       y-vel       z-vel      x-accl      y-accl      z-accl      x-coor      y-coor      z-coor
    22626 -5.73799E-03 8.16658E-01-4.77467E-01-5.12693E-03 5.07072E-01-4.73012E-02-5.68199E-03 1.96826E-01 8.99988E-02 4.65364E+00-2.73742E+01-4.54592E+01



 n o d a l   p r i n t   o u t   f o r   t i m e  s t e p   12002                              ( at time 5.9998995E+00 )

 nodal point  x-rot      y-rot       z-rot       x-rot vel   y-rot vel   z-rot vel   x-rot acc   y-rot acc   z-rot acc
    22626 -5.59083E-03-2.69450E-04-4.16671E-04-3.75988E-03-1.07310E-04-2.21564E-04-1.46306E-03-1.22295E-04-1.28345E-04



 n o d a l   p r i n t   o u t   f o r   t i m e  s t e p   12202                              ( at time 6.0998895E+00 )

 nodal point  x-disp     y-disp      z-disp      x-vel       y-vel       z-vel      x-accl      y-accl      z-accl      x-coor      y-coor      z-coor
    22626 -6.31386E-03 8.68321E-01-4.81851E-01-6.33612E-03 5.26984E-01-3.99190E-02-1.20931E-02 1.99142E-01 7.38293E-02 4.65306E+00-2.73225E+01-4.54636E+01



 n o d a l   p r i n t   o u t   f o r   t i m e  s t e p   12202                              ( at time 6.0998895E+00 )

 nodal point  x-rot      y-rot       z-rot       x-rot vel   y-rot vel   z-rot vel   x-rot acc   y-rot acc   z-rot acc
    22626 -5.97476E-03-2.80175E-04-4.38753E-04-3.91161E-03-9.53939E-05-2.14503E-04-1.51743E-03 1.19170E-04 7.06146E-05



 n o d a l   p r i n t   o u t   f o r   t i m e  s t e p   12402                              ( at time 6.1998795E+00 )

 nodal point  x-disp     y-disp      z-disp      x-vel       y-vel       z-vel      x-accl      y-accl      z-accl      x-coor      y-coor      z-coor
    22626 -6.92165E-03 9.22048E-01-4.85466E-01-5.54928E-03 5.46913E-01-3.20098E-02 7.86924E-03 1.99311E-01 7.91006E-02 4.65245E+00-2.72688E+01-4.54672E+01



 n o d a l   p r i n t   o u t   f o r   t i m e  s t e p   12402                              ( at time 6.1998795E+00 )

 nodal point  x-rot      y-rot       z-rot       x-rot vel   y-rot vel   z-rot vel   x-rot acc   y-rot acc   z-rot acc
    22626 -6.37438E-03-2.88736E-04-4.60347E-04-4.08175E-03-7.93105E-05-2.15389E-04-1.70157E-03 1.60850E-04-8.85588E-06



 n o d a l   p r i n t   o u t   f o r   t i m e  s t e p   12602                              ( at time 6.2998695E+00 )

 nodal point  x-disp     y-disp      z-disp      x-vel       y-vel       z-vel      x-accl      y-accl      z-accl      x-coor      y-coor      z-coor
    22626 -7.52632E-03 9.77741E-01-4.88199E-01-6.84722E-03 5.67176E-01-2.36406E-02-1.29807E-02 2.02650E-01 8.37003E-02 4.65185E+00-2.72131E+01-4.54699E+01



 n o d a l   p r i n t   o u t   f o r   t i m e  s t e p   12602                              ( at time 6.2998695E+00 )

 nodal point  x-rot      y-rot       z-rot       x-rot vel   y-rot vel   z-rot vel   x-rot acc   y-rot acc   z-rot acc
    22626 -6.78962E-03-2.97140E-04-4.80916E-04-4.23097E-03-9.15405E-05-2.07377E-04-1.49231E-03-1.22313E-04 8.01253E-05



 n o d a l   p r i n t   o u t   f o r   t i m e  s t e p   12802                              ( at time 6.3998595E+00 )

 nodal point  x-disp     y-disp      z-disp      x-vel       y-vel       z-vel      x-accl      y-accl      z-accl      x-coor      y-coor      z-coor
    22626 -8.24403E-03 1.03546E+00-4.90136E-01-7.35892E-03 5.86765E-01-1.48336E-02-5.11752E-03 1.95913E-01 8.80783E-02 4.65113E+00-2.71554E+01-4.54719E+01



 n o d a l   p r i n t   o u t   f o r   t i m e  s t e p   12802                              ( at time 6.3998595E+00 )

 nodal point  x-rot      y-rot       z-rot       x-rot vel   y-rot vel   z-rot vel   x-rot acc   y-rot acc   z-rot acc
    22626 -7.21961E-03-3.06259E-04-5.02033E-04-4.37727E-03-9.43561E-05-2.16000E-04-1.46319E-03-2.81584E-05-8.62351E-05



 n o d a l   p r i n t   o u t   f o r   t i m e  s t e p   13002                              ( at time 6.4998495E+00 )

 nodal point  x-disp     y-disp      z-disp      x-vel       y-vel       z-vel      x-accl      y-accl      z-accl      x-coor      y-coor      z-coor
    22626 -8.97411E-03 1.09510E+00-4.91075E-01-7.05988E-03 6.06141E-01-3.12248E-03 2.99071E-03 1.93779E-01 1.17123E-01 4.65040E+00-2.70957E+01-4.54728E+01



 n o d a l   p r i n t   o u t   f o r   t i m e  s t e p   13002                              ( at time 6.4998495E+00 )

 nodal point  x-rot      y-rot       z-rot       x-rot vel   y-rot vel   z-rot vel   x-rot acc   y-rot acc   z-rot acc
    22626 -7.66600E-03-3.14962E-04-5.23731E-04-4.54522E-03-7.88556E-05-2.06110E-04-1.67965E-03 1.55021E-04 9.89099E-05



 n o d a l   p r i n t   o u t   f o r   t i m e  s t e p   13202                              ( at time 6.5998395E+00 )

 nodal point  x-disp     y-disp      z-disp      x-vel       y-vel       z-vel      x-accl      y-accl      z-accl      x-coor      y-coor      z-coor
    22626 -9.67885E-03 1.15661E+00-4.90773E-01-6.84603E-03 6.24045E-01 9.13417E-03 2.13863E-03 1.79052E-01 1.22578E-01 4.64970E+00-2.70342E+01-4.54725E+01



 n o d a l   p r i n t   o u t   f o r   t i m e  s t e p   13202                              ( at time 6.5998395E+00 )

 nodal point  x-rot      y-rot       z-rot       x-rot vel   y-rot vel   z-rot vel   x-rot acc   y-rot acc   z-rot acc
    22626 -8.12829E-03-3.23099E-04-5.44164E-04-4.70110E-03-8.67258E-05-2.02103E-04-1.55901E-03-7.87100E-05 4.00743E-05



 n o d a l   p r i n t   o u t   f o r   t i m e  s t e p   13402                              ( at time 6.6998295E+00 )

 nodal point  x-disp     y-disp      z-disp      x-vel       y-vel       z-vel      x-accl      y-accl      z-accl      x-coor      y-coor      z-coor
    22626 -1.03930E-02 1.21991E+00-4.89282E-01-7.62194E-03 6.42245E-01 1.98446E-02-7.75989E-03 1.82027E-01 1.07115E-01 4.64898E+00-2.69709E+01-4.54710E+01



 n o d a l   p r i n t   o u t   f o r   t i m e  s t e p   13402                              ( at time 6.6998295E+00 )

 nodal point  x-rot      y-rot       z-rot       x-rot vel   y-rot vel   z-rot vel   x-rot acc   y-rot acc   z-rot acc
    22626 -8.60407E-03-3.32286E-04-5.65690E-04-4.83927E-03-9.30665E-05-2.22329E-04-1.38185E-03-6.34138E-05-2.02284E-04



 n o d a l   p r i n t   o u t   f o r   t i m e  s t e p   13602                              ( at time 6.7998195E+00 )

 nodal point  x-disp     y-disp      z-disp      x-vel       y-vel       z-vel      x-accl      y-accl      z-accl      x-coor      y-coor      z-coor
    22626 -1.11470E-02 1.28506E+00-4.86721E-01-7.20157E-03 6.60180E-01 3.23886E-02 4.20414E-03 1.79365E-01 1.25453E-01 4.64823E+00-2.69058E+01-4.54684E+01



 n o d a l   p r i n t   o u t   f o r   t i m e  s t e p   13602                              ( at time 6.7998195E+00 )

 nodal point  x-rot      y-rot       z-rot       x-rot vel   y-rot vel   z-rot vel   x-rot acc   y-rot acc   z-rot acc
    22626 -9.09564E-03-3.41313E-04-5.86506E-04-5.00821E-03-8.75827E-05-2.04806E-04-1.68956E-03 5.48441E-05 1.75249E-04



 n o d a l   p r i n t   o u t   f o r   t i m e  s t e p   13802                              ( at time 6.8998095E+00 )

 nodal point  x-disp     y-disp      z-disp      x-vel       y-vel       z-vel      x-accl      y-accl      z-accl      x-coor      y-coor      z-coor
    22626 -1.18884E-02 1.35198E+00-4.82733E-01-7.64955E-03 6.78632E-01 4.70939E-02-4.48018E-03 1.84533E-01 1.47068E-01 4.64749E+00-2.68389E+01-4.54645E+01



 n o d a l   p r i n t   o u t   f o r   t i m e  s t e p   13802                              ( at time 6.8998095E+00 )

 nodal point  x-rot      y-rot       z-rot       x-rot vel   y-rot vel   z-rot vel   x-rot acc   y-rot acc   z-rot acc
    22626 -9.60371E-03-3.50089E-04-6.06916E-04-5.15465E-03-8.88674E-05-2.10628E-04-1.46448E-03-1.28482E-05-5.82224E-05



 n o d a l   p r i n t   o u t   f o r   t i m e  s t e p   14002                              ( at time 6.9997995E+00 )

 nodal point  x-disp     y-disp      z-disp      x-vel       y-vel       z-vel      x-accl      y-accl      z-accl      x-coor      y-coor      z-coor
    22626 -1.25629E-02 1.42067E+00-4.77347E-01-6.45558E-03 6.95948E-01 6.09092E-02 1.19409E-02 1.73183E-01 1.38167E-01 4.64681E+00-2.67702E+01-4.54591E+01



 n o d a l   p r i n t   o u t   f o r   t i m e  s t e p   14002                              ( at time 6.9997995E+00 )

 nodal point  x-rot      y-rot       z-rot       x-rot vel   y-rot vel   z-rot vel   x-rot acc   y-rot acc   z-rot acc
    22626 -1.01267E-02-3.59043E-04-6.27265E-04-5.30598E-03-8.62813E-05-1.85090E-04-1.51345E-03 2.58635E-05 2.55403E-04



 n o d a l   p r i n t   o u t   f o r   t i m e  s t e p   14202                              ( at time 7.0997895E+00 )

 nodal point  x-disp     y-disp      z-disp      x-vel       y-vel       z-vel      x-accl      y-accl      z-accl      x-coor      y-coor      z-coor
    22626 -1.32691E-02 1.49116E+00-4.70533E-01-6.91337E-03 7.13791E-01 7.53836E-02-4.57830E-03 1.78450E-01 1.44758E-01 4.64611E+00-2.66997E+01-4.54523E+01



 n o d a l   p r i n t   o u t   f o r   t i m e  s t e p   14202                              ( at time 7.0997895E+00 )

 nodal point  x-rot      y-rot       z-rot       x-rot vel   y-rot vel   z-rot vel   x-rot acc   y-rot acc   z-rot acc
    22626 -1.06643E-02-3.67611E-04-6.45659E-04-5.45936E-03-8.76889E-05-1.93519E-04-1.53397E-03-1.40775E-05-8.42965E-05



 n o d a l   p r i n t   o u t   f o r   t i m e  s t e p   14402                              ( at time 7.1997794E+00 )

 nodal point  x-disp     y-disp      z-disp      x-vel       y-vel       z-vel      x-accl      y-accl      z-accl      x-coor      y-coor      z-coor
    22626 -1.39501E-02 1.56338E+00-4.62214E-01-7.24194E-03 7.30918E-01 9.07427E-02-3.28602E-03 1.71288E-01 1.53607E-01 4.64542E+00-2.66274E+01-4.54439E+01



 n o d a l   p r i n t   o u t   f o r   t i m e  s t e p   14402                              ( at time 7.1997794E+00 )

 nodal point  x-rot      y-rot       z-rot       x-rot vel   y-rot vel   z-rot vel   x-rot acc   y-rot acc   z-rot acc
    22626 -1.12162E-02-3.75954E-04-6.64388E-04-5.60357E-03-8.20690E-05-1.75825E-04-1.44228E-03 5.62048E-05 1.76952E-04



 n o d a l   p r i n t   o u t   f o r   t i m e  s t e p   14602                              ( at time 7.2997694E+00 )

 nodal point  x-disp     y-disp      z-disp      x-vel       y-vel       z-vel      x-accl      y-accl      z-accl      x-coor      y-coor      z-coor
    22626 -1.46137E-02 1.63734E+00-4.52299E-01-6.33457E-03 7.48047E-01 1.07597E-01 9.07458E-03 1.71301E-01 1.68559E-01 4.64476E+00-2.65535E+01-4.54340E+01



 n o d a l   p r i n t   o u t   f o r   t i m e  s t e p   14602                              ( at time 7.2997694E+00 )

 nodal point  x-rot      y-rot       z-rot       x-rot vel   y-rot vel   z-rot vel   x-rot acc   y-rot acc   z-rot acc
    22626 -1.17839E-02-3.83390E-04-6.80375E-04-5.75561E-03-7.41678E-05-1.58207E-04-1.52052E-03 7.90203E-05 1.76202E-04



 n o d a l   p r i n t   o u t   f o r   t i m e  s t e p   14802                              ( at time 7.3997594E+00 )

 nodal point  x-disp     y-disp      z-disp      x-vel       y-vel       z-vel      x-accl      y-accl      z-accl      x-coor      y-coor      z-coor
    22626 -1.52615E-02 1.71294E+00-4.40654E-01-6.47607E-03 7.63566E-01 1.26264E-01-1.41518E-03 1.55204E-01 1.86688E-01 4.64411E+00-2.64779E+01-4.54224E+01



 n o d a l   p r i n t   o u t   f o r   t i m e  s t e p   14802                              ( at time 7.3997594E+00 )

 nodal point  x-rot      y-rot       z-rot       x-rot vel   y-rot vel   z-rot vel   x-rot acc   y-rot acc   z-rot acc
    22626 -1.23655E-02-3.90923E-04-6.96646E-04-5.87274E-03-6.53047E-05-1.66736E-04-1.17141E-03 8.86399E-05-8.53003E-05



 n o d a l   p r i n t   o u t   f o r   t i m e  s t e p   15002                              ( at time 7.4997494E+00 )

 nodal point  x-disp     y-disp      z-disp      x-vel       y-vel       z-vel      x-accl      y-accl      z-accl      x-coor      y-coor      z-coor
    22626 -1.59131E-02 1.79000E+00-4.27106E-01-6.55563E-03 7.78903E-01 1.43646E-01-7.95612E-04 1.53385E-01 1.73836E-01 4.64346E+00-2.64008E+01-4.54088E+01



 n o d a l   p r i n t   o u t   f o r   t i m e  s t e p   15002                              ( at time 7.4997494E+00 )

 nodal point  x-rot      y-rot       z-rot       x-rot vel   y-rot vel   z-rot vel   x-rot acc   y-rot acc   z-rot acc
    22626 -1.29586E-02-3.97402E-04-7.11734E-04-6.00020E-03-5.74681E-05-1.35914E-04-1.27478E-03 7.83727E-05 3.08252E-04



 n o d a l   p r i n t   o u t   f o r   t i m e  s t e p   15202                              ( at time 7.5997394E+00 )

 nodal point  x-disp     y-disp      z-disp      x-vel       y-vel       z-vel      x-accl      y-accl      z-accl      x-coor      y-coor      z-coor
    22626 -1.65602E-02 1.86876E+00-4.11943E-01-6.29232E-03 7.95269E-01 1.60827E-01 2.63330E-03 1.63678E-01 1.71829E-01 4.64281E+00-2.63221E+01-4.53937E+01



 n o d a l   p r i n t   o u t   f o r   t i m e  s t e p   15202                              ( at time 7.5997394E+00 )

 nodal point  x-rot      y-rot       z-rot       x-rot vel   y-rot vel   z-rot vel   x-rot acc   y-rot acc   z-rot acc
    22626 -1.35655E-02-4.03040E-04-7.25917E-04-6.13765E-03-5.42614E-05-1.44157E-04-1.37459E-03 3.20705E-05-8.24433E-05



 n o d a l   p r i n t   o u t   f o r   t i m e  s t e p   15402                              ( at time 7.6997294E+00 )

 nodal point  x-disp     y-disp      z-disp      x-vel       y-vel       z-vel      x-accl      y-accl      z-accl      x-coor      y-coor      z-coor
    22626 -1.71808E-02 1.94905E+00-3.94925E-01-6.70397E-03 8.11708E-01 1.79148E-01-4.11689E-03 1.64404E-01 1.83229E-01 4.64219E+00-2.62418E+01-4.53766E+01



 n o d a l   p r i n t   o u t   f o r   t i m e  s t e p   15402                              ( at time 7.6997294E+00 )

 nodal point  x-rot      y-rot       z-rot       x-rot vel   y-rot vel   z-rot vel   x-rot acc   y-rot acc   z-rot acc
    22626 -1.41856E-02-4.08576E-04-7.39375E-04-6.26878E-03-5.35844E-05-1.21078E-04-1.31144E-03 6.77104E-06 2.30823E-04



 n o d a l   p r i n t   o u t   f o r   t i m e  s t e p   15602                              ( at time 7.7997194E+00 )

 nodal point  x-disp     y-disp      z-disp      x-vel       y-vel       z-vel      x-accl      y-accl      z-accl      x-coor      y-coor      z-coor
    22626 -1.78587E-02 2.03096E+00-3.76163E-01-6.50916E-03 8.26907E-01 1.96925E-01 1.94831E-03 1.52006E-01 1.77790E-01 4.64152E+00-2.61599E+01-4.53579E+01



 n o d a l   p r i n t   o u t   f o r   t i m e  s t e p   15602                              ( at time 7.7997194E+00 )

 nodal point  x-rot      y-rot       z-rot       x-rot vel   y-rot vel   z-rot vel   x-rot acc   y-rot acc   z-rot acc
    22626 -1.48171E-02-4.13137E-04-7.51817E-04-6.36126E-03-4.04348E-05-1.27961E-04-9.24934E-04 1.31509E-04-6.88375E-05



 n o d a l   p r i n t   o u t   f o r   t i m e  s t e p   15802                              ( at time 7.8997094E+00 )

 nodal point  x-disp     y-disp      z-disp      x-vel       y-vel       z-vel      x-accl      y-accl      z-accl      x-coor      y-coor      z-coor
    22626 -1.85012E-02 2.11453E+00-3.55551E-01-6.25751E-03 8.44022E-01 2.15255E-01 2.51671E-03 1.71167E-01 1.83318E-01 4.64087E+00-2.60763E+01-4.53373E+01



 n o d a l   p r i n t   o u t   f o r   t i m e  s t e p   15802                              ( at time 7.8997094E+00 )

 nodal point  x-rot      y-rot       z-rot       x-rot vel   y-rot vel   z-rot vel   x-rot acc   y-rot acc   z-rot acc
    22626 -1.54600E-02-4.17308E-04-7.64509E-04-6.48064E-03-3.55137E-05-1.18602E-04-1.19392E-03 4.92159E-05 9.35995E-05



 n o d a l   p r i n t   o u t   f o r   t i m e  s t e p   16002                              ( at time 7.9996994E+00 )

 nodal point  x-disp     y-disp      z-disp      x-vel       y-vel       z-vel      x-accl      y-accl      z-accl      x-coor      y-coor      z-coor
    22626 -1.91595E-02 2.19969E+00-3.33160E-01-6.58265E-03 8.59510E-01 2.32403E-01-3.25172E-03 1.54901E-01 1.71495E-01 4.64022E+00-2.59911E+01-4.53149E+01



 n o d a l   p r i n t   o u t   f o r   t i m e  s t e p   16002                              ( at time 7.9996994E+00 )

 nodal point  x-rot      y-rot       z-rot       x-rot vel   y-rot vel   z-rot vel   x-rot acc   y-rot acc   z-rot acc
    22626 -1.61129E-02-4.20568E-04-7.75722E-04-6.59190E-03-3.57587E-05-1.08095E-04-1.11268E-03-2.45023E-06 1.05075E-04



 n o d a l   p r i n t   o u t   f o r   t i m e  s t e p   16202                              ( at time 8.0996894E+00 )

 nodal point  x-disp     y-disp      z-disp      x-vel       y-vel       z-vel      x-accl      y-accl      z-accl      x-coor      y-coor      z-coor
    22626 -1.98085E-02 2.28647E+00-3.09007E-01-6.78207E-03 8.76407E-01 2.50342E-01-1.99441E-03 1.68982E-01 1.79405E-01 4.63957E+00-2.59044E+01-4.52907E+01



 n o d a l   p r i n t   o u t   f o r   t i m e  s t e p   16202                              ( at time 8.0996894E+00 )

 nodal point  x-rot      y-rot       z-rot       x-rot vel   y-rot vel   z-rot vel   x-rot acc   y-rot acc   z-rot acc
    22626 -1.67773E-02-4.23698E-04-7.87105E-04-6.70480E-03-3.14189E-05-1.07897E-04-1.12914E-03 4.34029E-05 1.97795E-06



 n o d a l   p r i n t   o u t   f o r   t i m e  s t e p   16402                              ( at time 8.1996794E+00 )

 nodal point  x-disp     y-disp      z-disp      x-vel       y-vel       z-vel      x-accl      y-accl      z-accl      x-coor      y-coor      z-coor
    22626 -2.05186E-02 2.37483E+00-2.83021E-01-7.13018E-03 8.90987E-01 2.69786E-01-3.48139E-03 1.45814E-01 1.94462E-01 4.63886E+00-2.58160E+01-4.52647E+01



 n o d a l   p r i n t   o u t   f o r   t i m e  s t e p   16402                              ( at time 8.1996794E+00 )

 nodal point  x-rot      y-rot       z-rot       x-rot vel   y-rot vel   z-rot vel   x-rot acc   y-rot acc   z-rot acc
    22626 -1.74506E-02-4.26768E-04-7.97580E-04-6.77675E-03-2.93127E-05-1.05378E-04-7.19543E-04 2.10643E-05 2.51965E-05



 n o d a l   p r i n t   o u t   f o r   t i m e  s t e p   16602                              ( at time 8.2996694E+00 )

 nodal point  x-disp     y-disp      z-disp      x-vel       y-vel       z-vel      x-accl      y-accl      z-accl      x-coor      y-coor      z-coor
    22626 -2.12366E-02 2.46468E+00-2.55006E-01-7.37395E-03 9.06355E-01 2.90213E-01-2.43792E-03 1.53696E-01 2.04293E-01 4.63814E+00-2.57262E+01-4.52367E+01



 n o d a l   p r i n t   o u t   f o r   t i m e  s t e p   16602                              ( at time 8.2996694E+00 )

 nodal point  x-rot      y-rot       z-rot       x-rot vel   y-rot vel   z-rot vel   x-rot acc   y-rot acc   z-rot acc
    22626 -1.81332E-02-4.29090E-04-8.08349E-04-6.87670E-03-1.77916E-05-1.16296E-04-9.99634E-04 1.15222E-04-1.09194E-04



 n o d a l   p r i n t   o u t   f o r   t i m e  s t e p   16802                              ( at time 8.3996594E+00 )

 nodal point  x-disp     y-disp      z-disp      x-vel       y-vel       z-vel      x-accl      y-accl      z-accl      x-coor      y-coor      z-coor
    22626 -2.19455E-02 2.55608E+00-2.25086E-01-7.06214E-03 9.21448E-01 3.09193E-01 3.11836E-03 1.50946E-01 1.89820E-01 4.63743E+00-2.56348E+01-4.52068E+01



 n o d a l   p r i n t   o u t   f o r   t i m e  s t e p   16802                              ( at time 8.3996594E+00 )

 nodal point  x-rot      y-rot       z-rot       x-rot vel   y-rot vel   z-rot vel   x-rot acc   y-rot acc   z-rot acc
    22626 -1.88266E-02-4.31227E-04-8.18986E-04-6.97678E-03-2.83730E-05-1.03189E-04-1.00085E-03-1.05825E-04 1.31085E-04



 n o d a l   p r i n t   o u t   f o r   t i m e  s t e p   17002                              ( at time 8.4996494E+00 )

 nodal point  x-disp     y-disp      z-disp      x-vel       y-vel       z-vel      x-accl      y-accl      z-accl      x-coor      y-coor      z-coor
    22626 -2.26947E-02 2.64898E+00-1.93188E-01-7.65066E-03 9.36913E-01 3.28579E-01-5.88578E-03 1.54666E-01 1.93876E-01 4.63668E+00-2.55418E+01-4.51749E+01



 n o d a l   p r i n t   o u t   f o r   t i m e  s t e p   17002                              ( at time 8.4996494E+00 )

 nodal point  x-rot      y-rot       z-rot       x-rot vel   y-rot vel   z-rot vel   x-rot acc   y-rot acc   z-rot acc
    22626 -1.95279E-02-4.34860E-04-8.29780E-04-7.06019E-03-4.11441E-05-1.22304E-04-8.34237E-04-1.27723E-04-1.91165E-04



 n o d a l   p r i n t   o u t   f o r   t i m e  s t e p   17202                              ( at time 8.5996394E+00 )

 nodal point  x-disp     y-disp      z-disp      x-vel       y-vel       z-vel      x-accl      y-accl      z-accl      x-coor      y-coor      z-coor
    22626 -2.34139E-02 2.74336E+00-1.59279E-01-7.24096E-03 9.50244E-01 3.50395E-01 4.09740E-03 1.33330E-01 2.18187E-01 4.63596E+00-2.54475E+01-4.51410E+01



 n o d a l   p r i n t   o u t   f o r   t i m e  s t e p   17202                              ( at time 8.5996394E+00 )

 nodal point  x-rot      y-rot       z-rot       x-rot vel   y-rot vel   z-rot vel   x-rot acc   y-rot acc   z-rot acc
    22626 -2.02395E-02-4.38867E-04-8.41615E-04-7.15969E-03-3.99984E-05-1.10122E-04-9.95074E-04 1.14574E-05 1.21835E-04



 n o d a l   p r i n t   o u t   f o r   t i m e  s t e p   17402                              ( at time 8.6996293E+00 )

 nodal point  x-disp     y-disp      z-disp      x-vel       y-vel       z-vel      x-accl      y-accl      z-accl      x-coor      y-coor      z-coor
    22626 -2.41674E-02 2.83908E+00-1.23109E-01-7.62550E-03 9.65087E-01 3.73282E-01-3.84578E-03 1.48440E-01 2.28888E-01 4.63521E+00-2.53517E+01-4.51048E+01



 n o d a l   p r i n t   o u t   f o r   t i m e  s t e p   17402                              ( at time 8.6996293E+00 )

 nodal point  x-rot      y-rot       z-rot       x-rot vel   y-rot vel   z-rot vel   x-rot acc   y-rot acc   z-rot acc
    22626 -2.09616E-02-4.42873E-04-8.53227E-04-7.26267E-03-4.40767E-05-1.20522E-04-1.02989E-03-4.07863E-05-1.04010E-04



 n o d a l   p r i n t   o u t   f o r   t i m e  s t e p   17602                              ( at time 8.7996193E+00 )

 nodal point  x-disp     y-disp      z-disp      x-vel       y-vel       z-vel      x-accl      y-accl      z-accl      x-coor      y-coor      z-coor
    22626 -2.49396E-02 2.93626E+00-8.45858E-02-8.02170E-03 9.78453E-01 3.97695E-01-3.96238E-03 1.33667E-01 2.44152E-01 4.63444E+00-2.52546E+01-4.50663E+01



 n o d a l   p r i n t   o u t   f o r   t i m e  s t e p   17602                              ( at time 8.7996193E+00 )

 nodal point  x-rot      y-rot       z-rot       x-rot vel   y-rot vel   z-rot vel   x-rot acc   y-rot acc   z-rot acc
    22626 -2.16941E-02-4.48535E-04-8.65999E-04-7.37020E-03-6.38102E-05-1.31167E-04-1.07544E-03-1.97355E-04-1.06468E-04



 n o d a l   p r i n t   o u t   f o r   t i m e  s t e p   17802                              ( at time 8.8996093E+00 )

 nodal point  x-disp     y-disp      z-disp      x-vel       y-vel       z-vel      x-accl      y-accl      z-accl      x-coor      y-coor      z-coor
    22626 -2.58014E-02 3.03469E+00-4.36587E-02-9.03398E-03 9.90944E-01 4.21527E-01-1.01238E-02 1.24929E-01 2.38342E-01 4.63357E+00-2.51561E+01-4.50254E+01



 n o d a l   p r i n t   o u t   f o r   t i m e  s t e p   17802                              ( at time 8.8996093E+00 )

 nodal point  x-rot      y-rot       z-rot       x-rot vel   y-rot vel   z-rot vel   x-rot acc   y-rot acc   z-rot acc
    22626 -2.24383E-02-4.54757E-04-8.78883E-04-7.49353E-03-6.26704E-05-1.36398E-04-1.23335E-03 1.13994E-05-5.23140E-05



 n o d a l   p r i n t   o u t   f o r   t i m e  s t e p   18002                              ( at time 8.9995993E+00 )

 nodal point  x-disp     y-disp      z-disp      x-vel       y-vel       z-vel      x-accl      y-accl      z-accl      x-coor      y-coor      z-coor
    22626 -2.66770E-02 3.13445E+00-2.18000E-04-9.04918E-03 1.00381E+00 4.48346E-01-1.52063E-04 1.28673E-01 2.68216E-01 4.63270E+00-2.50564E+01-4.49819E+01



 n o d a l   p r i n t   o u t   f o r   t i m e  s t e p   18002                              ( at time 8.9995993E+00 )

 nodal point  x-rot      y-rot       z-rot       x-rot vel   y-rot vel   z-rot vel   x-rot acc   y-rot acc   z-rot acc
    22626 -2.31958E-02-4.60637E-04-8.92380E-04-7.64339E-03-5.45725E-05-1.30898E-04-1.49880E-03 8.09868E-05 5.50087E-05



 n o d a l   p r i n t   o u t   f o r   t i m e  s t e p   18202                              ( at time 9.0995893E+00 )

 nodal point  x-disp     y-disp      z-disp      x-vel       y-vel       z-vel      x-accl      y-accl      z-accl      x-coor      y-coor      z-coor
    22626 -2.76340E-02 3.23539E+00 4.60207E-02-9.71955E-03 1.01560E+00 4.75454E-01-6.70435E-03 1.17948E-01 2.71116E-01 4.63174E+00-2.49554E+01-4.49357E+01



 n o d a l   p r i n t   o u t   f o r   t i m e  s t e p   18202                              ( at time 9.0995893E+00 )

 nodal point  x-rot      y-rot       z-rot       x-rot vel   y-rot vel   z-rot vel   x-rot acc   y-rot acc   z-rot acc
    22626 -2.39672E-02-4.66231E-04-9.04925E-04-7.78622E-03-5.72416E-05-1.27693E-04-1.42846E-03-2.66938E-05 3.20474E-05



 n o d a l   p r i n t   o u t   f o r   t i m e  s t e p   18402                              ( at time 9.1995793E+00 )

 nodal point  x-disp     y-disp      z-disp      x-vel       y-vel       z-vel      x-accl      y-accl      z-accl      x-coor      y-coor      z-coor
    22626 -2.86379E-02 3.33754E+00 9.49627E-02-1.03570E-02 1.02755E+00 5.04072E-01-6.37558E-03 1.19436E-01 2.86201E-01 4.63074E+00-2.48533E+01-4.48868E+01



 n o d a l   p r i n t   o u t   f o r   t i m e  s t e p   18402                              ( at time 9.1995793E+00 )

 nodal point  x-rot      y-rot       z-rot       x-rot vel   y-rot vel   z-rot vel   x-rot acc   y-rot acc   z-rot acc
    22626 -2.47524E-02-4.72769E-04-9.18217E-04-7.92026E-03-6.66990E-05-1.31297E-04-1.34052E-03-9.45834E-05-3.60352E-05



 n o d a l   p r i n t   o u t   f o r   t i m e  s t e p   18602                              ( at time 9.2995693E+00 )

 nodal point  x-disp     y-disp      z-disp      x-vel       y-vel       z-vel      x-accl      y-accl      z-accl      x-coor      y-coor      z-coor
    22626 -2.96911E-02 3.44079E+00 1.46811E-01-1.06737E-02 1.03797E+00 5.32673E-01-3.16721E-03 1.04213E-01 2.86044E-01 4.62968E+00-2.47500E+01-4.48349E+01



 n o d a l   p r i n t   o u t   f o r   t i m e  s t e p   18602                              ( at time 9.2995693E+00 )

 nodal point  x-rot      y-rot       z-rot       x-rot vel   y-rot vel   z-rot vel   x-rot acc   y-rot acc   z-rot acc
    22626 -2.55524E-02-4.78800E-04-9.31050E-04-8.06732E-03-5.51780E-05-1.29771E-04-1.47075E-03 1.15222E-04 1.52530E-05



 n o d a l   p r i n t   o u t   f o r   t i m e  s t e p   18802                              ( at time 9.3995593E+00 )

 nodal point  x-disp     y-disp      z-disp      x-vel       y-vel       z-vel      x-accl      y-accl      z-accl      x-coor      y-coor      z-coor
    22626 -3.07167E-02 3.54516E+00 2.01420E-01-9.86594E-03 1.04974E+00 5.60768E-01 8.07878E-03 1.17770E-01 2.80978E-01 4.62866E+00-2.46457E+01-4.47803E+01



 n o d a l   p r i n t   o u t   f o r   t i m e  s t e p   18802                              ( at time 9.3995593E+00 )

 nodal point  x-rot      y-rot       z-rot       x-rot vel   y-rot vel   z-rot vel   x-rot acc   y-rot acc   z-rot acc
    22626 -2.63675E-02-4.84657E-04-9.43401E-04-8.22122E-03-6.56953E-05-1.21061E-04-1.53918E-03-1.05184E-04 8.71083E-05



 n o d a l   p r i n t   o u t   f o r   t i m e  s t e p   19002                              ( at time 9.4995493E+00 )

 nodal point  x-disp     y-disp      z-disp      x-vel       y-vel       z-vel      x-accl      y-accl      z-accl      x-coor      y-coor      z-coor
    22626 -3.17237E-02 3.65067E+00 2.58987E-01-1.05365E-02 1.06015E+00 5.90402E-01-6.70596E-03 1.04105E-01 2.96369E-01 4.62765E+00-2.45402E+01-4.47227E+01



 n o d a l   p r i n t   o u t   f o r   t i m e  s t e p   19002                              ( at time 9.4995493E+00 )

 nodal point  x-rot      y-rot       z-rot       x-rot vel   y-rot vel   z-rot vel   x-rot acc   y-rot acc   z-rot acc
    22626 -2.71971E-02-4.91355E-04-9.55221E-04-8.36084E-03-6.83528E-05-1.14072E-04-1.39633E-03-2.65771E-05 6.98990E-05



 n o d a l   p r i n t   o u t   f o r   t i m e  s t e p   19202                              ( at time 9.5995393E+00 )

 nodal point  x-disp     y-disp      z-disp      x-vel       y-vel       z-vel      x-accl      y-accl      z-accl      x-coor      y-coor      z-coor
    22626 -3.27604E-02 3.75727E+00 3.19496E-01-9.98106E-03 1.07154E+00 6.19755E-01 5.55458E-03 1.13907E-01 2.93559E-01 4.62661E+00-2.44336E+01-4.46622E+01



 n o d a l   p r i n t   o u t   f o r   t i m e  s t e p   19202                              ( at time 9.5995393E+00 )

 nodal point  x-rot      y-rot       z-rot       x-rot vel   y-rot vel   z-rot vel   x-rot acc   y-rot acc   z-rot acc
    22626 -2.80408E-02-4.98108E-04-9.67474E-04-8.51291E-03-6.73840E-05-1.23881E-04-1.52082E-03 9.68890E-06-9.81000E-05



 n o d a l   p r i n t   o u t   f o r   t i m e  s t e p   19402                              ( at time 9.6995293E+00 )

 nodal point  x-disp     y-disp      z-disp      x-vel       y-vel       z-vel      x-accl      y-accl      z-accl      x-coor      y-coor      z-coor
    22626 -3.38017E-02 3.86505E+00 3.82890E-01-1.06820E-02 1.08412E+00 6.47511E-01-7.00981E-03 1.25807E-01 2.77584E-01 4.62557E+00-2.43258E+01-4.45988E+01



 n o d a l   p r i n t   o u t   f o r   t i m e  s t e p   19402                              ( at time 9.6995293E+00 )

 nodal point  x-rot      y-rot       z-rot       x-rot vel   y-rot vel   z-rot vel   x-rot acc   y-rot acc   z-rot acc
    22626 -2.88988E-02-5.04200E-04-9.79532E-04-8.64218E-03-6.24500E-05-1.16688E-04-1.29276E-03 4.93443E-05 7.19422E-05



 n o d a l   p r i n t   o u t   f o r   t i m e  s t e p   19602                              ( at time 9.7995193E+00 )

 nodal point  x-disp     y-disp      z-disp      x-vel       y-vel       z-vel      x-accl      y-accl      z-accl      x-coor      y-coor      z-coor
    22626 -3.49038E-02 3.97410E+00 4.48958E-01-1.12733E-02 1.09664E+00 6.74599E-01-5.91370E-03 1.25181E-01 2.70907E-01 4.62447E+00-2.42167E+01-4.45328E+01



 n o d a l   p r i n t   o u t   f o r   t i m e  s t e p   19602                              ( at time 9.7995193E+00 )

 nodal point  x-rot      y-rot       z-rot       x-rot vel   y-rot vel   z-rot vel   x-rot acc   y-rot acc   z-rot acc
    22626 -2.97707E-02-5.11055E-04-9.91832E-04-8.78829E-03-7.55083E-05-1.32337E-04-1.46131E-03-1.30595E-04-1.56506E-04



 n o d a l   p r i n t   o u t   f o r   t i m e  s t e p   19802                              ( at time 9.8995093E+00 )

 nodal point  x-disp     y-disp      z-disp      x-vel       y-vel       z-vel      x-accl      y-accl      z-accl      x-coor      y-coor      z-coor
    22626 -3.60667E-02 4.08436E+00 5.17875E-01-1.18281E-02 1.10895E+00 7.03117E-01-5.54879E-03 1.23123E-01 2.85211E-01 4.62331E+00-2.41065E+01-4.44638E+01



 n o d a l   p r i n t   o u t   f o r   t i m e  s t e p   19802                              ( at time 9.8995093E+00 )

 nodal point  x-rot      y-rot       z-rot       x-rot vel   y-rot vel   z-rot vel   x-rot acc   y-rot acc   z-rot acc
    22626 -3.06564E-02-5.19187E-04-1.00542E-03-8.91842E-03-7.83924E-05-1.35924E-04-1.30141E-03-2.88439E-05-3.58792E-05



 n o d a l   p r i n t   o u t   f o r   t i m e  s t e p   20003                              ( at time 9.9999992E+00 )

 nodal point  x-disp     y-disp      z-disp      x-vel       y-vel       z-vel      x-accl      y-accl      z-accl      x-coor      y-coor      z-coor
[...]
    22626 -2.25517E-01-2.00879E-03-3.04412E-03-1.89498E-02 4.51414E-05 3.07445E-06 2.53157E-05-5.66705E-05-2.48098E-05



 n o d a l   p r i n t   o u t   f o r   t i m e  s t e p   45205                              ( at time 2.2599738E+01 )

 nodal point  x-disp     y-disp      z-disp      x-vel       y-vel       z-vel      x-accl      y-accl      z-accl      x-coor      y-coor      z-coor
    22626 -3.92760E-01 2.31654E+01 1.92307E+01-3.96244E-02 1.82197E+00 9.63672E-01-4.01847E-03 1.17658E-02-6.89731E-02 4.26662E+00-5.02543E+00-2.57510E+01



 n o d a l   p r i n t   o u t   f o r   t i m e  s t e p   45205                              ( at time 2.2599738E+01 )

 nodal point  x-rot      y-rot       z-rot       x-rot vel   y-rot vel   z-rot vel   x-rot acc   y-rot acc   z-rot acc
    22626 -2.27411E-01-2.00381E-03-3.04412E-03-1.89288E-02 6.28826E-05-3.46280E-06 2.10759E-04 1.77428E-04-6.53785E-05



 n o d a l   p r i n t   o u t   f o r   t i m e  s t e p   45405                              ( at time 2.2699728E+01 )

 nodal point  x-disp     y-disp      z-disp      x-vel       y-vel       z-vel      x-accl      y-accl      z-accl      x-coor      y-coor      z-coor
    22626 -3.96755E-01 2.33477E+01 1.93268E+01-3.95955E-02 1.82366E+00 9.59109E-01 2.89003E-04 1.68604E-02-4.56437E-02 4.26262E+00-4.84316E+00-2.56549E+01



 n o d a l   p r i n t   o u t   f o r   t i m e  s t e p   45405                              ( at time 2.2699728E+01 )

 nodal point  x-rot      y-rot       z-rot       x-rot vel   y-rot vel   z-rot vel   x-rot acc   y-rot acc   z-rot acc
    22626 -2.29303E-01-1.99786E-03-3.04459E-03-1.89173E-02 5.34891E-05-3.93471E-06 1.14156E-04-9.39450E-05-4.71966E-06



 n o d a l   p r i n t   o u t   f o r   t i m e  s t e p   45605                              ( at time 2.2799718E+01 )

 nodal point  x-disp     y-disp      z-disp      x-vel       y-vel       z-vel      x-accl      y-accl      z-accl      x-coor      y-coor      z-coor
    22626 -4.00734E-01 2.35300E+01 1.94225E+01-4.01801E-02 1.82394E+00 9.54434E-01-5.84563E-03 2.79452E-03-4.67528E-02 4.25864E+00-4.66081E+00-2.55592E+01



 n o d a l   p r i n t   o u t   f o r   t i m e  s t e p   45605                              ( at time 2.2799718E+01 )

 nodal point  x-rot      y-rot       z-rot       x-rot vel   y-rot vel   z-rot vel   x-rot acc   y-rot acc   z-rot acc
    22626 -2.31194E-01-1.99264E-03-3.04470E-03-1.88984E-02 6.59404E-05-1.66772E-06 1.89616E-04 1.24525E-04 2.26720E-05



 n o d a l   p r i n t   o u t   f o r   t i m e  s t e p   45805                              ( at time 2.2899708E+01 )

 nodal point  x-disp     y-disp      z-disp      x-vel       y-vel       z-vel      x-accl      y-accl      z-accl      x-coor      y-coor      z-coor
    22626 -4.04710E-01 2.37125E+01 1.95177E+01-3.89351E-02 1.82558E+00 9.50367E-01 1.24506E-02 1.63609E-02-4.06704E-02 4.25467E+00-4.47835E+00-2.54640E+01



 n o d a l   p r i n t   o u t   f o r   t i m e  s t e p   45805                              ( at time 2.2899708E+01 )

 nodal point  x-rot      y-rot       z-rot       x-rot vel   y-rot vel   z-rot vel   x-rot acc   y-rot acc   z-rot acc
    22626 -2.33082E-01-1.98501E-03-3.04500E-03-1.88699E-02 7.20074E-05-3.82663E-06 2.84718E-04 6.06758E-05-2.15915E-05



 n o d a l   p r i n t   o u t   f o r   t i m e  s t e p   46005                              ( at time 2.2999698E+01 )

 nodal point  x-disp     y-disp      z-disp      x-vel       y-vel       z-vel      x-accl      y-accl      z-accl      x-coor      y-coor      z-coor
    22626 -4.08645E-01 2.38950E+01 1.96126E+01-4.04223E-02 1.82518E+00 9.47491E-01-1.48734E-02-3.93188E-03-2.87625E-02 4.25073E+00-4.29586E+00-2.53691E+01



 n o d a l   p r i n t   o u t   f o r   t i m e  s t e p   46005                              ( at time 2.2999698E+01 )

 nodal point  x-rot      y-rot       z-rot       x-rot vel   y-rot vel   z-rot vel   x-rot acc   y-rot acc   z-rot acc
    22626 -2.34967E-01-1.97789E-03-3.04545E-03-1.88530E-02 6.81471E-05-1.91833E-06 1.69125E-04-3.86061E-05 1.90847E-05



 n o d a l   p r i n t   o u t   f o r   t i m e  s t e p   46205                              ( at time 2.3099688E+01 )

 nodal point  x-disp     y-disp      z-disp      x-vel       y-vel       z-vel      x-accl      y-accl      z-accl      x-coor      y-coor      z-coor
    22626 -4.12660E-01 2.40775E+01 1.97073E+01-3.93328E-02 1.82487E+00 9.45905E-01 1.08970E-02-3.15463E-03-1.58661E-02 4.24671E+00-4.11334E+00-2.52745E+01



 n o d a l   p r i n t   o u t   f o r   t i m e  s t e p   46205                              ( at time 2.3099688E+01 )

 nodal point  x-rot      y-rot       z-rot       x-rot vel   y-rot vel   z-rot vel   x-rot acc   y-rot acc   z-rot acc
    22626 -2.36851E-01-1.97062E-03-3.04600E-03-1.88135E-02 8.18639E-05-7.81596E-06 3.95502E-04 1.37183E-04-5.89828E-05



 n o d a l   p r i n t   o u t   f o r   t i m e  s t e p   46405                              ( at time 2.3199678E+01 )

 nodal point  x-disp     y-disp      z-disp      x-vel       y-vel       z-vel      x-accl      y-accl      z-accl      x-coor      y-coor      z-coor
    22626 -4.16658E-01 2.42600E+01 1.98017E+01-4.05713E-02 1.82509E+00 9.44172E-01-1.23862E-02 2.20915E-03-1.73298E-02 4.24272E+00-3.93086E+00-2.51800E+01



 n o d a l   p r i n t   o u t   f o r   t i m e  s t e p   46405                              ( at time 2.3199678E+01 )

 nodal point  x-rot      y-rot       z-rot       x-rot vel   y-rot vel   z-rot vel   x-rot acc   y-rot acc   z-rot acc
    22626 -2.38731E-01-1.96152E-03-3.04661E-03-1.87909E-02 1.00781E-04-2.52075E-06 2.25866E-04 1.89187E-04 5.29569E-05



 n o d a l   p r i n t   o u t   f o r   t i m e  s t e p   46605                              ( at time 2.3299668E+01 )

 nodal point  x-disp     y-disp      z-disp      x-vel       y-vel       z-vel      x-accl      y-accl      z-accl      x-coor      y-coor      z-coor
    22626 -4.20675E-01 2.44424E+01 1.98961E+01-4.01941E-02 1.82371E+00 9.43742E-01 3.77253E-03-1.38012E-02-4.29559E-03 4.23870E+00-3.74840E+00-2.50856E+01



 n o d a l   p r i n t   o u t   f o r   t i m e  s t e p   46605                              ( at time 2.3299668E+01 )

 nodal point  x-rot      y-rot       z-rot       x-rot vel   y-rot vel   z-rot vel   x-rot acc   y-rot acc   z-rot acc
    22626 -2.40609E-01-1.95158E-03-3.04722E-03-1.87641E-02 9.10463E-05-1.14439E-05 2.67450E-04-9.73571E-05-8.92414E-05



 n o d a l   p r i n t   o u t   f o r   t i m e  s t e p   46805                              ( at time 2.3399658E+01 )

 nodal point  x-disp     y-disp      z-disp      x-vel       y-vel       z-vel      x-accl      y-accl      z-accl      x-coor      y-coor      z-coor
    22626 -4.24696E-01 2.46248E+01 1.99905E+01-4.04082E-02 1.82349E+00 9.44450E-01-2.14127E-03-2.18650E-03 7.08049E-03 4.23468E+00-3.56606E+00-2.49912E+01



 n o d a l   p r i n t   o u t   f o r   t i m e  s t e p   46805                              ( at time 2.3399658E+01 )

 nodal point  x-rot      y-rot       z-rot       x-rot vel   y-rot vel   z-rot vel   x-rot acc   y-rot acc   z-rot acc
    22626 -2.42483E-01-1.94200E-03-3.04836E-03-1.87307E-02 9.75639E-05-7.72724E-06 3.34226E-04 6.51828E-05 3.71701E-05



 n o d a l   p r i n t   o u t   f o r   t i m e  s t e p   47005                              ( at time 2.3499648E+01 )

 nodal point  x-disp     y-disp      z-disp      x-vel       y-vel       z-vel      x-accl      y-accl      z-accl      x-coor      y-coor      z-coor
    22626 -4.28700E-01 2.48070E+01 2.00850E+01-3.95559E-02 1.82199E+00 9.45254E-01 8.52398E-03-1.49514E-02 8.03544E-03 4.23067E+00-3.38380E+00-2.48967E+01



 n o d a l   p r i n t   o u t   f o r   t i m e  s t e p   47005                              ( at time 2.3499648E+01 )

 nodal point  x-rot      y-rot       z-rot       x-rot vel   y-rot vel   z-rot vel   x-rot acc   y-rot acc   z-rot acc
    22626 -2.44355E-01-1.93243E-03-3.04923E-03-1.86986E-02 1.00791E-04-1.29249E-05 3.21168E-04 3.22697E-05-5.19813E-05



 n o d a l   p r i n t   o u t   f o r   t i m e  s t e p   47205                              ( at time 2.3599638E+01 )

 nodal point  x-disp     y-disp      z-disp      x-vel       y-vel       z-vel      x-accl      y-accl      z-accl      x-coor      y-coor      z-coor
    22626 -4.32659E-01 2.49892E+01 2.01796E+01-3.95032E-02 1.82111E+00 9.47169E-01 5.26293E-04-8.87969E-03 1.91567E-02 4.22672E+00-3.20167E+00-2.48022E+01



 n o d a l   p r i n t   o u t   f o r   t i m e  s t e p   47205                              ( at time 2.3599638E+01 )

 nodal point  x-rot      y-rot       z-rot       x-rot vel   y-rot vel   z-rot vel   x-rot acc   y-rot acc   z-rot acc
    22626 -2.46223E-01-1.92208E-03-3.05105E-03-1.86588E-02 1.09318E-04-1.58882E-05 3.97868E-04 8.52874E-05-2.96363E-05



 n o d a l   p r i n t   o u t   f o r   t i m e  s t e p   47405                              ( at time 2.3699628E+01 )

 nodal point  x-disp     y-disp      z-disp      x-vel       y-vel       z-vel      x-accl      y-accl      z-accl      x-coor      y-coor      z-coor
    22626 -4.36630E-01 2.51711E+01 2.02744E+01-4.00918E-02 1.81865E+00 9.49170E-01-5.88635E-03-2.45224E-02 2.00105E-02 4.22275E+00-3.01973E+00-2.47073E+01



 n o d a l   p r i n t   o u t   f o r   t i m e  s t e p   47405                              ( at time 2.3699628E+01 )

 nodal point  x-rot      y-rot       z-rot       x-rot vel   y-rot vel   z-rot vel   x-rot acc   y-rot acc   z-rot acc
    22626 -2.48087E-01-1.91186E-03-3.05243E-03-1.86279E-02 9.17331E-05-1.53671E-05 3.09637E-04-1.75870E-04 5.21128E-06



 n o d a l   p r i n t   o u t   f o r   t i m e  s t e p   47605                              ( at time 2.3799618E+01 )

 nodal point  x-disp     y-disp      z-disp      x-vel       y-vel       z-vel      x-accl      y-accl      z-accl      x-coor      y-coor      z-coor
    22626 -4.40628E-01 2.53529E+01 2.03694E+01-3.95296E-02 1.81731E+00 9.51606E-01 5.62279E-03-1.34471E-02 2.43631E-02 4.21875E+00-2.83795E+00-2.46123E+01



 n o d a l   p r i n t   o u t   f o r   t i m e  s t e p   47605                              ( at time 2.3799618E+01 )

 nodal point  x-rot      y-rot       z-rot       x-rot vel   y-rot vel   z-rot vel   x-rot acc   y-rot acc   z-rot acc
    22626 -2.49948E-01-1.90275E-03-3.05441E-03-1.85932E-02 9.41119E-05-2.12944E-05 3.46826E-04 2.37912E-05-5.92795E-05



 n o d a l   p r i n t   o u t   f o r   t i m e  s t e p   47805                              ( at time 2.3899608E+01 )

 nodal point  x-disp     y-disp      z-disp      x-vel       y-vel       z-vel      x-accl      y-accl      z-accl      x-coor      y-coor      z-coor
    22626 -4.44551E-01 2.55344E+01 2.04647E+01-3.90205E-02 1.81421E+00 9.54731E-01 5.09100E-03-3.10032E-02 3.12524E-02 4.21482E+00-2.65639E+00-2.45170E+01



 n o d a l   p r i n t   o u t   f o r   t i m e  s t e p   47805                              ( at time 2.3899608E+01 )

 nodal point  x-rot      y-rot       z-rot       x-rot vel   y-rot vel   z-rot vel   x-rot acc   y-rot acc   z-rot acc
    22626 -2.51805E-01-1.89255E-03-3.05602E-03-1.85501E-02 1.04264E-04-1.04638E-05 4.30944E-04 1.01533E-04 1.08316E-04



 n o d a l   p r i n t   o u t   f o r   t i m e  s t e p   48005                              ( at time 2.3999598E+01 )

 nodal point  x-disp     y-disp      z-disp      x-vel       y-vel       z-vel      x-accl      y-accl      z-accl      x-coor      y-coor      z-coor
    22626 -4.48478E-01 2.57158E+01 2.05603E+01-3.92854E-02 1.81221E+00 9.57051E-01-2.64883E-03-2.00377E-02 2.32049E-02 4.21090E+00-2.47507E+00-2.44214E+01



 n o d a l   p r i n t   o u t   f o r   t i m e  s t e p   48005                              ( at time 2.3999598E+01 )

 nodal point  x-rot      y-rot       z-rot       x-rot vel   y-rot vel   z-rot vel   x-rot acc   y-rot acc   z-rot acc
    22626 -2.53658E-01-1.88279E-03-3.05775E-03-1.85091E-02 8.82273E-05-2.33122E-05 4.09976E-04-1.60387E-04-1.28498E-04



 n o d a l   p r i n t   o u t   f o r   t i m e  s t e p   48205                              ( at time 2.4099588E+01 )

 nodal point  x-disp     y-disp      z-disp      x-vel       y-vel       z-vel      x-accl      y-accl      z-accl      x-coor      y-coor      z-coor
    22626 -4.52380E-01 2.58968E+01 2.06562E+01-3.90487E-02 1.81010E+00 9.61132E-01 2.36678E-03-2.10447E-02 4.08091E-02 4.20700E+00-2.29400E+00-2.43255E+01



 n o d a l   p r i n t   o u t   f o r   t i m e  s t e p   48205                              ( at time 2.4099588E+01 )

 nodal point  x-rot      y-rot       z-rot       x-rot vel   y-rot vel   z-rot vel   x-rot acc   y-rot acc   z-rot acc
    22626 -2.55506E-01-1.87479E-03-3.06019E-03-1.84682E-02 7.08302E-05-2.72330E-05 4.09167E-04-1.73987E-04-3.92117E-05



 n o d a l   p r i n t   o u t   f o r   t i m e  s t e p   48405                              ( at time 2.4199578E+01 )

 nodal point  x-disp     y-disp      z-disp      x-vel       y-vel       z-vel      x-accl      y-accl      z-accl      x-coor      y-coor      z-coor
    22626 -4.56242E-01 2.60777E+01 2.07525E+01-3.81680E-02 1.80643E+00 9.65284E-01 8.80857E-03-3.66979E-02 4.15210E-02 4.20313E+00-2.11318E+00-2.42292E+01



 n o d a l   p r i n t   o u t   f o r   t i m e  s t e p   48405                              ( at time 2.4199578E+01 )

 nodal point  x-rot      y-rot       z-rot       x-rot vel   y-rot vel   z-rot vel   x-rot acc   y-rot acc   z-rot acc
    22626 -2.57351E-01-1.86758E-03-3.06249E-03-1.84171E-02 7.57423E-05-2.25262E-05 5.10924E-04 4.91266E-05 4.70730E-05



 n o d a l   p r i n t   o u t   f o r   t i m e  s t e p   48605                              ( at time 2.4299568E+01 )

 nodal point  x-disp     y-disp      z-disp      x-vel       y-vel       z-vel      x-accl      y-accl      z-accl      x-coor      y-coor      z-coor
    22626 -4.60036E-01 2.62581E+01 2.08492E+01-3.80937E-02 1.80369E+00 9.69525E-01 7.42407E-04-2.74743E-02 4.24174E-02 4.19934E+00-1.93271E+00-2.41325E+01



 n o d a l   p r i n t   o u t   f o r   t i m e  s t e p   48605                              ( at time 2.4299568E+01 )

 nodal point  x-rot      y-rot       z-rot       x-rot vel   y-rot vel   z-rot vel   x-rot acc   y-rot acc   z-rot acc
    22626 -2.59191E-01-1.85999E-03-3.06481E-03-1.83678E-02 7.48741E-05-2.61678E-05 4.93404E-04-8.68305E-06-3.64196E-05



 n o d a l   p r i n t   o u t   f o r   t i m e  s t e p   48805                              ( at time 2.4399558E+01 )

 nodal point  x-disp     y-disp      z-disp      x-vel       y-vel       z-vel      x-accl      y-accl      z-accl      x-coor      y-coor      z-coor
    22626 -4.63865E-01 2.64383E+01 2.09464E+01-3.83449E-02 1.80007E+00 9.75160E-01-2.51163E-03-3.61380E-02 5.63566E-02 4.19551E+00-1.75253E+00-2.40353E+01



 n o d a l   p r i n t   o u t   f o r   t i m e  s t e p   48805                              ( at time 2.4399558E+01 )

 nodal point  x-rot      y-rot       z-rot       x-rot vel   y-rot vel   z-rot vel   x-rot acc   y-rot acc   z-rot acc
    22626 -2.61027E-01-1.85381E-03-3.06772E-03-1.83340E-02 5.55379E-05-3.34119E-05 3.37281E-04-1.93379E-04-7.24473E-05



 n o d a l   p r i n t   o u t   f o r   t i m e  s t e p   49006                              ( at time 2.4500048E+01 )

 nodal point  x-disp     y-disp      z-disp      x-vel       y-vel       z-vel      x-accl      y-accl      z-accl      x-coor      y-coor      z-coor
    22626 -4.67684E-01 2.66190E+01 2.10447E+01-3.77469E-02 1.79630E+00 9.80637E-01 5.95072E-03-3.74881E-02 5.45044E-02 4.19169E+00-1.57180E+00-2.39370E+01



 n o d a l   p r i n t   o u t   f o r   t i m e  s t e p   49006                              ( at time 2.4500048E+01 )

 nodal point  x-rot      y-rot       z-rot       x-rot vel   y-rot vel   z-rot vel   x-rot acc   y-rot acc   z-rot acc
    22626 -2.62867E-01-1.84752E-03-3.07093E-03-1.82981E-02 6.41530E-05-3.15501E-05 3.57186E-04 8.57316E-05 1.85273E-05



 n o d a l   p r i n t   o u t   f o r   t i m e  s t e p   49206                              ( at time 2.4600038E+01 )

 nodal point  x-disp     y-disp      z-disp      x-vel       y-vel       z-vel      x-accl      y-accl      z-accl      x-coor      y-coor      z-coor
    22626 -4.71460E-01 2.67985E+01 2.11431E+01-3.71556E-02 1.79284E+00 9.86762E-01 5.91392E-03-3.46370E-02 6.12565E-02 4.18791E+00-1.39237E+00-2.38387E+01



 n o d a l   p r i n t   o u t   f o r   t i m e  s t e p   49206                              ( at time 2.4600038E+01 )

 nodal point  x-rot      y-rot       z-rot       x-rot vel   y-rot vel   z-rot vel   x-rot acc   y-rot acc   z-rot acc
    22626 -2.64693E-01-1.84178E-03-3.07392E-03-1.82406E-02 5.14919E-05-3.31208E-05 5.75815E-04-1.26623E-04-1.57081E-05



 n o d a l   p r i n t   o u t   f o r   t i m e  s t e p   49406                              ( at time 2.4700028E+01 )

 nodal point  x-disp     y-disp      z-disp      x-vel       y-vel       z-vel      x-accl      y-accl      z-accl      x-coor      y-coor      z-coor
    22626 -4.75167E-01 2.69775E+01 2.12421E+01-3.79311E-02 1.78850E+00 9.93488E-01-7.75624E-03-4.34506E-02 6.72701E-02 4.18421E+00-1.21330E+00-2.37397E+01



 n o d a l   p r i n t   o u t   f o r   t i m e  s t e p   49406                              ( at time 2.4700028E+01 )

 nodal point  x-rot      y-rot       z-rot       x-rot vel   y-rot vel   z-rot vel   x-rot acc   y-rot acc   z-rot acc
    22626 -2.66515E-01-1.83645E-03-3.07744E-03-1.82061E-02 5.52112E-05-2.94433E-05 3.44329E-04 3.71975E-05 3.67787E-05



 n o d a l   p r i n t   o u t   f o r   t i m e  s t e p   49606                              ( at time 2.4800018E+01 )

 nodal point  x-disp     y-disp      z-disp      x-vel       y-vel       z-vel      x-accl      y-accl      z-accl      x-coor      y-coor      z-coor
    22626 -4.78905E-01 2.71562E+01 2.13418E+01-3.65148E-02 1.78509E+00 1.00049E+00 1.41640E-02-3.40517E-02 6.99942E-02 4.18047E+00-1.03464E+00-2.36399E+01



 n o d a l   p r i n t   o u t   f o r   t i m e  s t e p   49606                              ( at time 2.4800018E+01 )

 nodal point  x-rot      y-rot       z-rot       x-rot vel   y-rot vel   z-rot vel   x-rot acc   y-rot acc   z-rot acc
    22626 -2.68332E-01-1.83137E-03-3.08100E-03-1.81538E-02 4.26654E-05-4.17939E-05 5.23712E-04-1.25469E-04-1.23517E-04



 n o d a l   p r i n t   o u t   f o r   t i m e  s t e p   49806                              ( at time 2.4900008E+01 )

 nodal point  x-disp     y-disp      z-disp      x-vel       y-vel       z-vel      x-accl      y-accl      z-accl      x-coor      y-coor      z-coor
    22626 -4.82624E-01 2.73344E+01 2.14421E+01-3.75245E-02 1.78050E+00 1.00705E+00-1.00978E-02-4.59603E-02 6.56248E-02 4.17675E+00-8.56417E-01-2.35396E+01



 n o d a l   p r i n t   o u t   f o r   t i m e  s t e p   49806                              ( at time 2.4900008E+01 )

 nodal point  x-rot      y-rot       z-rot       x-rot vel   y-rot vel   z-rot vel   x-rot acc   y-rot acc   z-rot acc
    22626 -2.70144E-01-1.82728E-03-3.08460E-03-1.80942E-02 4.91168E-05-3.24855E-05 5.95814E-04 6.45212E-05 9.30941E-05



 n o d a l   p r i n t   o u t   f o r   t i m e  s t e p   50006                              ( at time 2.4999998E+01 )

 nodal point  x-disp     y-disp      z-disp      x-vel       y-vel       z-vel      x-accl      y-accl      z-accl      x-coor      y-coor      z-coor
    22626 -4.86281E-01 2.75122E+01 2.15431E+01-3.63120E-02 1.77613E+00 1.01417E+00 1.21258E-02-4.36871E-02 7.12663E-02 4.17309E+00-6.78583E-01-2.34386E+01



 n o d a l   p r i n t   o u t   f o r   t i m e  s t e p   50006                              ( at time 2.4999998E+01 )

 nodal point  x-rot      y-rot       z-rot       x-rot vel   y-rot vel   z-rot vel   x-rot acc   y-rot acc   z-rot acc
    22626 -2.71951E-01-1.82195E-03-3.08793E-03-1.80391E-02 5.17113E-05-3.76170E-05 5.50592E-04 2.59473E-05-5.13196E-05
