$# LS-DYNA Keyword file created by LS-PrePost(R) V4.10.11-27Mar2024
$# Created on May-11-2026 (12:59:00)
*KEYWORD
*PARAMETER
$#   prmr1      val1     prmr2      val2     prmr3      val3     prmr4      val4
R scale   1.026680  
R rotate  14.010033 
R slack   3.000000  
*END
