 LSTC 50th% Full_FE H-III Dummy (Beta Version, February 17, 2019)        
                    ls-dyna smp s R16 R16.0_619_d222963 date 03/18/2025

{BEGIN LEGEND}
 Entity #        Title
        1     Upper_Neck_Force_INJURY                                              
{END LEGEND}



 line#1  section#     time        x-force     y-force     z-force    magnitude
 line#2  resultant  moments       x-moment    y-moment    z-moment   magnitude
 line#3  centroids                x           y           z            area  
           1    0.00000E+00     0.0000E+00  0.0000E+00  0.0000E+00  0.0000E+00
ac ID =   33377                 0.0000E+00  0.0000E+00  0.0000E+00  0.0000E+00
                               -3.7437E-01  1.0501E+01 -4.6940E+01  0.0000E+00

           1    1.00490E-01     1.3588E-04 -4.9878E-03  2.5982E-01  2.5987E-01
ac ID =   33377                 4.2549E-01 -1.2522E+00 -2.7108E-02  1.3227E+00
                               -3.7387E-01  1.0590E+01 -4.6886E+01  2.5147E+03

           1    2.00480E-01    -4.4364E-02  5.0913E-04  4.4143E-01  4.4366E-01
ac ID =   33377                 3.0776E-01 -1.5985E+00  2.2926E-02  1.6280E+00
                               -3.7386E-01  1.0591E+01 -4.6888E+01  2.5147E+03

           1    3.00470E-01     1.4735E-02 -3.0126E-03  2.1747E-01  2.1798E-01
ac ID =   33377                 2.2346E-02 -3.3881E-01  6.3702E-02  3.4547E-01
                               -3.7382E-01  1.0591E+01 -4.6889E+01  2.5147E+03

           1    4.00460E-01     2.3692E-03  1.0981E-02  8.8044E-02  8.8757E-02
ac ID =   33377                -4.8789E-01 -9.4409E-01  6.4526E-03  1.0627E+00
                               -3.7383E-01  1.0592E+01 -4.6890E+01  2.5147E+03

           1    5.00450E-01    -4.0603E-02  4.3100E-03  1.6211E-01  1.6717E-01
ac ID =   33377                -4.0002E-01 -1.5123E+00 -1.1302E-01  1.5684E+00
                               -3.7385E-01  1.0594E+01 -4.6893E+01  2.5147E+03

           1    6.00440E-01    -1.1550E-02  4.0610E-03  3.4412E-01  3.4434E-01
ac ID =   33377                 9.7989E-02 -1.3365E+00 -3.7370E-02  1.3406E+00
                               -3.7385E-01  1.0595E+01 -4.6897E+01  2.5147E+03

           1    7.00430E-01     1.7267E-03 -5.0101E-03  2.9676E-01  2.9681E-01
ac ID =   33377                 1.2886E-01 -5.3785E-01  8.5971E-02  5.5971E-01
                               -3.7389E-01  1.0597E+01 -4.6901E+01  2.5147E+03

           1    8.00420E-01    -2.9807E-02 -7.4029E-04  1.0244E-01  1.0669E-01
ac ID =   33377                 7.8386E-02 -1.0602E+00  4.2298E-02  1.0639E+00
                               -3.7393E-01  1.0599E+01 -4.6905E+01  2.5147E+03

           1    9.00410E-01    -3.8968E-02  1.2248E-03  6.3608E-02  7.4606E-02
ac ID =   33377                 8.5829E-02 -1.0786E+00 -1.3245E-02  1.0821E+00
                               -3.7397E-01  1.0601E+01 -4.6909E+01  2.5147E+03

           1    1.00040E+00     1.2982E-02 -2.8717E-03  2.2406E-01  2.2446E-01
ac ID =   33377                 3.3188E-01 -3.4261E-01 -6.7023E-02  4.8168E-01
                               -3.7397E-01  1.0604E+01 -4.6915E+01  2.5147E+03

           1    1.10039E+00     1.7793E-04 -1.6825E-03  2.7688E-01  2.7689E-01
ac ID =   33377                 3.0125E-01 -9.2400E-01 -6.0697E-02  9.7376E-01
                               -3.7396E-01  1.0607E+01 -4.6921E+01  2.5147E+03

           1    1.20038E+00    -3.1413E-02  4.5761E-04  1.3480E-01  1.3841E-01
ac ID =   33377                -1.8844E-01 -1.1970E+00  1.6910E-03  1.2118E+00
                               -3.7395E-01  1.0609E+01 -4.6926E+01  2.5147E+03

           1    1.30037E+00    -1.3030E-02  8.5009E-03  8.1187E-02  8.2664E-02
ac ID =   33377                -3.4526E-01 -9.7407E-01  2.9688E-02  1.0339E+00
                               -3.7394E-01  1.0612E+01 -4.6933E+01  2.5147E+03

           1    1.40036E+00     2.6583E-03  7.4545E-03  1.8577E-01  1.8594E-01
ac ID =   33377                -4.5417E-01 -1.0322E+00 -3.2822E-02  1.1282E+00
                               -3.7389E-01  1.0615E+01 -4.6940E+01  2.5147E+03

           1    1.50035E+00    -2.6132E-02  2.3386E-03  3.3898E-01  3.3999E-01
ac ID =   33377                -6.2622E-02 -1.7015E+00 -1.5799E-02  1.7027E+00
                               -3.7384E-01  1.0619E+01 -4.6948E+01  2.5147E+03

           1    1.60034E+00    -1.7269E-02 -2.3647E-03  2.3243E-01  2.3308E-01
ac ID =   33377                -4.3482E-02 -1.4467E+00  1.0442E-02  1.4474E+00
                               -3.7380E-01  1.0623E+01 -4.6955E+01  2.5147E+03

           1    1.70033E+00     3.0780E-04  9.1851E-03  6.0211E-02  6.0909E-02
ac ID =   33377                -3.4784E-01 -6.6292E-01  1.1635E-01  7.5762E-01
                               -3.7375E-01  1.0626E+01 -4.6963E+01  2.5147E+03

           1    1.80032E+00    -2.4207E-02  5.0749E-03  8.2055E-02  8.5702E-02
ac ID =   33377                -5.9883E-02 -1.1620E+00  1.8103E-01  1.1775E+00
                               -3.7365E-01  1.0630E+01 -4.6971E+01  2.5147E+03

           1    1.90031E+00    -1.2347E-02 -1.1767E-02  1.9813E-01  1.9887E-01
ac ID =   33377                 2.9643E-01 -1.0048E+00 -1.0108E-01  1.0525E+00
                               -3.7352E-01  1.0635E+01 -4.6981E+01  2.5147E+03

           1    2.00030E+00    -8.0717E-03  5.7036E-05  1.6483E-01  1.6502E-01
ac ID =   33377                 1.2323E-01 -7.1116E-01 -5.6275E-02  7.2395E-01
                               -3.7343E-01  1.0639E+01 -4.6990E+01  2.5147E+03

           1    2.10029E+00    -2.5676E-02  1.1265E-02  7.5369E-03  2.9034E-02
ac ID =   33377                -3.8109E-01 -1.0017E+00  1.0863E-01  1.0773E+00
                               -3.7333E-01  1.0643E+01 -4.6999E+01  2.5147E+03

           1    2.20028E+00    -1.3748E-02  2.7358E-03  5.1423E-04  1.4027E-02
ac ID =   33377                -2.2511E-01 -7.7677E-01  2.3036E-02  8.0906E-01
                               -3.7318E-01  1.0647E+01 -4.7009E+01  2.5147E+03

           1    2.30027E+00    -5.3988E-04 -1.3598E-02  1.5141E-01  1.5202E-01
ac ID =   33377                 1.9663E-02 -9.2881E-01 -9.6105E-02  9.3398E-01
                               -3.7304E-01  1.0652E+01 -4.7020E+01  2.5147E+03

           1    2.40026E+00    -1.8722E-02 -3.0155E-03  1.9808E-01  1.9898E-01
ac ID =   33377                -1.6256E-01 -1.1440E+00  6.2997E-02  1.1572E+00
                               -3.7306E-01  1.0657E+01 -4.7030E+01  2.5147E+03

           1    2.50025E+00    -2.2909E-02  6.0722E-03  8.6583E-03  2.5232E-02
ac ID =   33377                -2.5459E-01 -1.1567E+00  7.7517E-02  1.1869E+00
                               -3.7312E-01  1.0662E+01 -4.7040E+01  2.5147E+03

           1    2.60024E+00    -6.2215E-03  1.7646E-02 -7.5819E-02  7.8094E-02
ac ID =   33377                -4.6924E-01 -2.5695E-01  7.5254E-02  5.4025E-01
                               -3.7309E-01  1.0667E+01 -4.7051E+01  2.5147E+03

           1    2.70023E+00    -6.0204E-03 -3.9236E-04  7.3291E-03  9.4929E-03
ac ID =   33377                -2.1190E-01 -4.3408E-01  8.2543E-02  4.9004E-01
                               -3.7295E-01  1.0672E+01 -4.7062E+01  2.5147E+03

           1    2.80022E+00    -1.1408E-02 -7.1439E-03  6.0746E-02  6.2220E-02
ac ID =   33377                 1.1523E-01 -4.6725E-01 -9.6941E-02  4.9092E-01
                               -3.7281E-01  1.0677E+01 -4.7074E+01  2.5147E+03

           1    2.90021E+00     3.4197E-03  3.6576E-03 -5.2602E-03  7.2624E-03
ac ID =   33377                -1.8985E-01 -7.0354E-03 -1.3065E-01  2.3057E-01
                               -3.7269E-01  1.0683E+01 -4.7085E+01  2.5147E+03

           1    3.00020E+00     6.5439E-03  8.6130E-03 -9.6609E-02  9.7213E-02
ac ID =   33377                -5.2957E-01 -7.0224E-03 -9.5347E-02  5.3813E-01
                               -3.7256E-01  1.0688E+01 -4.7096E+01  2.5147E+03

           1    3.10019E+00     1.7794E-02 -9.7872E-04 -3.8376E-02  4.2312E-02
ac ID =   33377                 6.2926E-02 -7.7565E-03 -1.3781E-01  1.5169E-01
                               -3.7240E-01  1.0694E+01 -4.7108E+01  2.5147E+03

           1    3.20018E+00     1.0588E-02  4.7220E-03  4.7633E-02  4.9024E-02
ac ID =   33377                -1.6046E-01 -3.3341E-01  1.0560E-02  3.7017E-01
                               -3.7225E-01  1.0700E+01 -4.7120E+01  2.5147E+03

           1    3.30017E+00     2.5053E-02  8.4159E-03 -1.7737E-02  3.1829E-02
ac ID =   33377                -3.9521E-01 -9.4870E-02  1.2262E-01  4.2453E-01
                               -3.7207E-01  1.0707E+01 -4.7132E+01  2.5147E+03

           1    3.40016E+00     2.8239E-02  2.9235E-03 -1.5325E-01  1.5585E-01
ac ID =   33377                -3.6498E-01  1.9059E-01  1.0660E-01  4.2532E-01
                               -3.7186E-01  1.0714E+01 -4.7143E+01  2.5147E+03

           1    3.50015E+00     2.6600E-02  1.0821E-02 -2.0847E-01  2.1044E-01
ac ID =   33377                -4.3095E-01  5.2470E-01  1.8538E-02  6.7924E-01
                               -3.7162E-01  1.0722E+01 -4.7156E+01  2.5147E+03

           1    3.60014E+00     3.1735E-02  6.6208E-03 -1.3318E-01  1.3706E-01
ac ID =   33377                -4.5059E-01  8.2329E-01  2.5536E-02  9.3887E-01
                               -3.7132E-01  1.0732E+01 -4.7169E+01  2.5147E+03

           1    3.70013E+00     5.6144E-02  1.5177E-03 -1.3780E-01  1.4880E-01
ac ID =   33377                -2.3243E-01  1.3682E+00 -1.9995E-01  1.4021E+00
                               -3.7099E-01  1.0742E+01 -4.7182E+01  2.5147E+03

           1    3.80012E+00     6.1264E-02  5.1283E-03 -2.4382E-01  2.5146E-01
ac ID =   33377                -4.3983E-01  1.7144E+00 -2.0857E-02  1.7700E+00
                               -3.7067E-01  1.0752E+01 -4.7196E+01  2.5147E+03

           1    3.90011E+00     6.5496E-02  7.6216E-03 -3.3580E-01  3.4221E-01
ac ID =   33377                -3.9595E-01  1.9175E+00 -2.3451E-02  1.9581E+00
                               -3.7035E-01  1.0764E+01 -4.7209E+01  2.5147E+03

           1    4.00010E+00     5.2108E-02  5.1791E-03 -2.8680E-01  2.9155E-01
ac ID =   33377                -4.4595E-01  1.5392E+00 -1.2972E-01  1.6077E+00
                               -3.6998E-01  1.0778E+01 -4.7224E+01  2.5147E+03

           1    4.10009E+00     7.3899E-02 -1.6360E-03 -2.5979E-01  2.7011E-01
ac ID =   33377                -1.4872E-01  1.6450E+00 -1.5640E-01  1.6591E+00
                               -3.6961E-01  1.0793E+01 -4.7239E+01  2.5147E+03

           1    4.20008E+00     6.7653E-02  1.1454E-02 -3.3652E-01  3.4344E-01
ac ID =   33377                -4.4272E-01  1.5917E+00  3.1385E-02  1.6524E+00
                               -3.6927E-01  1.0809E+01 -4.7254E+01  2.5147E+03

           1    4.30007E+00     6.4521E-02  7.3104E-03 -4.5752E-01  4.6210E-01
ac ID =   33377                -7.3759E-01  1.9576E+00 -2.0030E-02  2.0920E+00
                               -3.6892E-01  1.0826E+01 -4.7269E+01  2.5147E+03

           1    4.40006E+00     8.5723E-02  1.0926E-02 -4.3179E-01  4.4035E-01
ac ID =   33377                -5.3101E-01  2.3937E+00 -1.8550E-02  2.4520E+00
                               -3.6856E-01  1.0845E+01 -4.7285E+01  2.5147E+03

           1    4.50005E+00     8.9622E-02  4.9522E-03 -3.5691E-01  3.6803E-01
ac ID =   33377                -4.5231E-01  2.3162E+00 -8.8651E-02  2.3616E+00
                               -3.6821E-01  1.0866E+01 -4.7301E+01  2.5147E+03

           1    4.60004E+00     9.0252E-02  1.7112E-03 -4.2184E-01  4.3139E-01
ac ID =   33377                -2.4934E-01  2.5229E+00 -1.9162E-01  2.5424E+00
                               -3.6792E-01  1.0888E+01 -4.7317E+01  2.5147E+03

           1    4.70003E+00     9.5901E-02  1.1436E-02 -5.2914E-01  5.3789E-01
ac ID =   33377                -6.6301E-01  2.7079E+00  1.0577E-04  2.7879E+00
                               -3.6765E-01  1.0912E+01 -4.7334E+01  2.5147E+03

           1    4.80002E+00     9.9959E-02  1.0089E-02 -5.6912E-01  5.7792E-01
ac ID =   33377                -4.5794E-01  2.7730E+00  9.9581E-02  2.8123E+00
                               -3.6739E-01  1.0938E+01 -4.7351E+01  2.5147E+03

           1    4.90001E+00     9.6628E-02 -2.4585E-04 -5.2307E-01  5.3192E-01
ac ID =   33377                -1.5914E-01  2.7498E+00  1.3267E-01  2.7576E+00
                               -3.6708E-01  1.0965E+01 -4.7369E+01  2.5147E+03

           1    5.00000E+00     9.5858E-02  9.4772E-03 -5.2911E-01  5.3781E-01
ac ID =   33377                -7.1874E-01  2.7383E+00  3.5059E-02  2.8312E+00
                               -3.6674E-01  1.0995E+01 -4.7387E+01  2.5147E+03

           1    5.10049E+00     1.1666E-01  1.7850E-02 -6.5990E-01  6.7037E-01
ac ID =   33377                -8.8695E-01  3.2228E+00 -3.5803E-02  3.3428E+00
                               -3.6639E-01  1.1026E+01 -4.7405E+01  2.5147E+03

           1    5.20048E+00     1.1119E-01  7.6718E-03 -6.9508E-01  7.0396E-01
ac ID =   33377                -7.9125E-01  3.3754E+00  1.4077E-02  3.4669E+00
                               -3.6602E-01  1.1059E+01 -4.7424E+01  2.5147E+03

           1    5.30047E+00     1.2311E-01  4.8875E-03 -7.0030E-01  7.1106E-01
ac ID =   33377                -7.8654E-01  3.7226E+00  8.3978E-03  3.8048E+00
                               -3.6562E-01  1.1094E+01 -4.7443E+01  2.5147E+03

           1    5.40046E+00     1.3205E-01  1.7345E-02 -7.1921E-01  7.3144E-01
ac ID =   33377                -1.1668E+00  4.1298E+00 -2.9585E-03  4.2915E+00
                               -3.6526E-01  1.1131E+01 -4.7462E+01  2.5147E+03

           1    5.50045E+00     1.3090E-01  9.8953E-03 -8.1100E-01  8.2156E-01
ac ID =   33377                -6.1745E-01  3.9744E+00 -1.5152E-01  4.0250E+00
                               -3.6490E-01  1.1170E+01 -4.7481E+01  2.5147E+03

           1    5.60044E+00     1.3421E-01 -1.6214E-03 -9.2515E-01  9.3484E-01
ac ID =   33377                -6.0934E-01  4.4861E+00 -2.0981E-01  4.5321E+00
                               -3.6445E-01  1.1211E+01 -4.7500E+01  2.5147E+03

           1    5.70043E+00     1.3482E-01  8.0270E-03 -9.5551E-01  9.6501E-01
ac ID =   33377                -8.2115E-01  4.4461E+00  2.5445E-02  4.5213E+00
                               -3.6404E-01  1.1254E+01 -4.7520E+01  2.5147E+03

           1    5.80042E+00     1.4134E-01  4.6637E-04 -9.1839E-01  9.2920E-01
ac ID =   33377                -4.4888E-01  4.4112E+00  6.4130E-02  4.4345E+00
                               -3.6368E-01  1.1299E+01 -4.7540E+01  2.5147E+03

           1    5.90041E+00     1.4594E-01 -5.9864E-04 -9.6964E-01  9.8057E-01
ac ID =   33377                -6.0433E-01  4.7072E+00  9.4368E-02  4.7467E+00
                               -3.6330E-01  1.1346E+01 -4.7559E+01  2.5147E+03

           1    6.00040E+00     1.5799E-01  1.0049E-02 -1.0647E+00  1.0764E+00
ac ID =   33377                -9.3187E-01  5.1194E+00 -2.4527E-02  5.2035E+00
                               -3.6296E-01  1.1395E+01 -4.7579E+01  2.5147E+03

           1    6.10039E+00     1.4563E-01  8.7940E-03 -1.0774E+00  1.0872E+00
ac ID =   33377                -1.0056E+00  4.9155E+00 -3.3973E-02  5.0174E+00
                               -3.6266E-01  1.1446E+01 -4.7598E+01  2.5147E+03

           1    6.20038E+00     1.6198E-01 -7.6425E-04 -1.0798E+00  1.0919E+00
ac ID =   33377                -8.2388E-01  5.1260E+00 -1.0552E-02  5.1918E+00
                               -3.6240E-01  1.1499E+01 -4.7617E+01  2.5147E+03

           1    6.30037E+00     1.4787E-01  4.6201E-03 -1.1065E+00  1.1164E+00
ac ID =   33377                -1.1211E+00  4.9290E+00  6.7327E-02  5.0553E+00
                               -3.6219E-01  1.1554E+01 -4.7636E+01  2.5147E+03

           1    6.40036E+00     1.7177E-01  1.2997E-02 -1.2295E+00  1.2415E+00
ac ID =   33377                -9.8255E-01  5.7678E+00 -5.1084E-02  5.8511E+00
                               -3.6209E-01  1.1611E+01 -4.7654E+01  2.5147E+03

           1    6.50035E+00     1.7140E-01  1.1810E-02 -1.3093E+00  1.3205E+00
ac ID =   33377                -1.0155E+00  6.2568E+00  1.1977E-01  6.3398E+00
                               -3.6196E-01  1.1669E+01 -4.7672E+01  2.5147E+03

           1    6.60034E+00     1.6442E-01 -4.5010E-03 -1.2849E+00  1.2954E+00
ac ID =   33377                -6.1532E-01  6.0902E+00 -2.2375E-01  6.1252E+00
                               -3.6182E-01  1.1730E+01 -4.7690E+01  2.5147E+03

           1    6.70033E+00     1.6608E-01  6.5522E-03 -1.2870E+00  1.2976E+00
ac ID =   33377                -9.3623E-01  6.3581E+00 -2.2460E-01  6.4305E+00
                               -3.6171E-01  1.1792E+01 -4.7707E+01  2.5147E+03

           1    6.80032E+00     1.9990E-01  5.7754E-03 -1.3839E+00  1.3983E+00
ac ID =   33377                -8.8034E-01  7.0213E+00  2.8855E-02  7.0763E+00
                               -3.6162E-01  1.1856E+01 -4.7723E+01  2.5147E+03

           1    6.90031E+00     1.8518E-01  6.2279E-04 -1.4638E+00  1.4755E+00
ac ID =   33377                -7.9755E-01  7.1061E+00  1.1144E-01  7.1516E+00
                               -3.6155E-01  1.1922E+01 -4.7739E+01  2.5147E+03

           1    7.00030E+00     1.7368E-01  1.7036E-02 -1.4813E+00  1.4915E+00
ac ID =   33377                -1.4529E+00  6.8651E+00  2.2261E-02  7.0172E+00
                               -3.6146E-01  1.1990E+01 -4.7754E+01  2.5147E+03

           1    7.10029E+00     1.9307E-01 -5.2782E-04 -1.5073E+00  1.5197E+00
ac ID =   33377                -9.6008E-01  7.2519E+00 -4.5833E-01  7.3296E+00
                               -3.6139E-01  1.2059E+01 -4.7768E+01  2.5147E+03

           1    7.20028E+00     2.1182E-01  8.1417E-03 -1.5927E+00  1.6067E+00
ac ID =   33377                -1.2928E+00  7.5739E+00 -1.8936E-01  7.6858E+00
                               -3.6133E-01  1.2130E+01 -4.7781E+01  2.5147E+03

           1    7.30027E+00     1.9837E-01  5.4285E-03 -1.7112E+00  1.7226E+00
ac ID =   33377                -9.3498E-01  7.9242E+00 -6.6045E-02  7.9794E+00
                               -3.6136E-01  1.2202E+01 -4.7792E+01  2.5147E+03

           1    7.40026E+00     2.0962E-01  6.5163E-03 -1.7619E+00  1.7744E+00
ac ID =   33377                -1.0573E+00  8.5261E+00  3.8364E-01  8.6000E+00
                               -3.6136E-01  1.2277E+01 -4.7803E+01  2.5147E+03

           1    7.50025E+00     2.2116E-01 -3.3983E-03 -1.7269E+00  1.7410E+00
ac ID =   33377                -6.4795E-01  8.9360E+00  9.4797E-02  8.9600E+00
                               -3.6139E-01  1.2352E+01 -4.7813E+01  2.5147E+03

           1    7.60024E+00     2.4644E-01 -1.3551E-02 -1.7727E+00  1.7898E+00
ac ID =   33377                -4.3206E-01  9.1723E+00 -3.6964E-01  9.1899E+00
                               -3.6146E-01  1.2430E+01 -4.7821E+01  2.5147E+03

           1    7.70023E+00     2.1417E-01  1.9859E-03 -1.8422E+00  1.8546E+00
ac ID =   33377                -9.6619E-01  8.8564E+00 -2.6756E-01  8.9130E+00
                               -3.6158E-01  1.2508E+01 -4.7828E+01  2.5147E+03

           1    7.80022E+00     2.3091E-01 -9.3466E-05 -1.9072E+00  1.9212E+00
ac ID =   33377                -6.7568E-01  9.2328E+00 -1.9135E-01  9.2594E+00
                               -3.6176E-01  1.2589E+01 -4.7833E+01  2.5147E+03

           1    7.90021E+00     2.5064E-01  6.8035E-03 -1.8962E+00  1.9127E+00
ac ID =   33377                -1.2586E+00  9.7230E+00  1.6453E-01  9.8055E+00
                               -3.6191E-01  1.2671E+01 -4.7838E+01  2.5147E+03

           1    8.00020E+00     2.4095E-01  9.5503E-04 -1.9203E+00  1.9354E+00
ac ID =   33377                -9.8148E-01  9.7183E+00  3.2473E-02  9.7678E+00
                               -3.6212E-01  1.2754E+01 -4.7841E+01  2.5147E+03

           1    8.10019E+00     2.5514E-01  7.1772E-03 -2.0350E+00  2.0509E+00
ac ID =   33377                -1.4053E+00  1.0707E+01 -1.2257E-01  1.0800E+01
                               -3.6233E-01  1.2839E+01 -4.7842E+01  2.5147E+03

           1    8.20018E+00     2.7334E-01  5.5464E-03 -2.1180E+00  2.1355E+00
ac ID =   33377                -1.1149E+00  1.1213E+01 -4.3353E-01  1.1276E+01
                               -3.6264E-01  1.2926E+01 -4.7842E+01  2.5147E+03

           1    8.30017E+00     2.9234E-01  4.4313E-03 -2.1145E+00  2.1346E+00
ac ID =   33377                -1.0697E+00  1.1968E+01 -2.0402E-01  1.2018E+01
                               -3.6291E-01  1.3014E+01 -4.7841E+01  2.5147E+03

           1    8.40016E+00     2.5649E-01 -2.8686E-03 -2.1017E+00  2.1173E+00
ac ID =   33377                -6.9275E-01  1.1565E+01 -7.6355E-02  1.1586E+01
                               -3.6320E-01  1.3104E+01 -4.7837E+01  2.5147E+03

           1    8.50015E+00     2.8655E-01  7.5187E-04 -2.1819E+00  2.2006E+00
ac ID =   33377                -7.8237E-01  1.2280E+01 -3.6889E-02  1.2305E+01
                               -3.6352E-01  1.3195E+01 -4.7833E+01  2.5147E+03

           1    8.60014E+00     3.0234E-01  1.4327E-02 -2.2651E+00  2.2853E+00
ac ID =   33377                -1.1367E+00  1.2901E+01 -8.2377E-02  1.2951E+01
                               -3.6381E-01  1.3287E+01 -4.7826E+01  2.5147E+03

           1    8.70013E+00     2.7910E-01 -2.0412E-03 -2.2720E+00  2.2891E+00
ac ID =   33377                -1.1148E+00  1.2185E+01 -2.7881E-01  1.2239E+01
                               -3.6406E-01  1.3381E+01 -4.7818E+01  2.5147E+03

           1    8.80012E+00     2.8702E-01  1.2288E-02 -2.2895E+00  2.3074E+00
ac ID =   33377                -1.5369E+00  1.2721E+01 -2.8134E-01  1.2816E+01
                               -3.6436E-01  1.3476E+01 -4.7808E+01  2.5147E+03

           1    8.90011E+00     3.1308E-01  9.8229E-03 -2.3150E+00  2.3361E+00
ac ID =   33377                -1.6106E+00  1.3158E+01 -1.8037E-01  1.3257E+01
                               -3.6469E-01  1.3572E+01 -4.7796E+01  2.5147E+03

           1    9.00010E+00     3.0760E-01  7.8832E-03 -2.4052E+00  2.4248E+00
ac ID =   33377                -1.4662E+00  1.3422E+01  2.0806E-01  1.3503E+01
                               -3.6503E-01  1.3670E+01 -4.7781E+01  2.5147E+03

           1    9.10009E+00     3.0060E-01 -3.9674E-03 -2.4143E+00  2.4329E+00
ac ID =   33377                -1.0478E+00  1.3578E+01  2.9763E-02  1.3619E+01
                               -3.6545E-01  1.3769E+01 -4.7765E+01  2.5147E+03

           1    9.20008E+00     3.2320E-01  8.3127E-03 -2.4129E+00  2.4345E+00
ac ID =   33377                -1.2702E+00  1.3570E+01 -1.5445E-01  1.3631E+01
                               -3.6595E-01  1.3869E+01 -4.7746E+01  2.5147E+03

           1    9.30007E+00     3.1720E-01 -1.6577E-03 -2.4009E+00  2.4218E+00
ac ID =   33377                -7.3356E-01  1.3715E+01 -5.0422E-01  1.3744E+01
                               -3.6648E-01  1.3970E+01 -4.7726E+01  2.5147E+03

           1    9.40006E+00     2.9705E-01 -7.7582E-03 -2.4517E+00  2.4696E+00
ac ID =   33377                -6.9428E-01  1.3236E+01 -1.3583E-01  1.3255E+01
                               -3.6698E-01  1.4072E+01 -4.7702E+01  2.5147E+03

           1    9.50005E+00     3.1227E-01  9.6780E-03 -2.5246E+00  2.5438E+00
ac ID =   33377                -1.0521E+00  1.4234E+01  1.2826E-01  1.4273E+01
                               -3.6756E-01  1.4175E+01 -4.7677E+01  2.5147E+03

           1    9.60004E+00     3.3162E-01  1.2547E-02 -2.4913E+00  2.5133E+00
ac ID =   33377                -1.5461E+00  1.4311E+01  7.1073E-02  1.4394E+01
                               -3.6810E-01  1.4279E+01 -4.7649E+01  2.5147E+03

           1    9.70003E+00     3.3133E-01  2.9753E-03 -2.4788E+00  2.5009E+00
ac ID =   33377                -1.3999E+00  1.4604E+01 -3.6733E-01  1.4676E+01
                               -3.6866E-01  1.4384E+01 -4.7619E+01  2.5147E+03

           1    9.80002E+00     3.3110E-01  5.9501E-03 -2.5181E+00  2.5397E+00
ac ID =   33377                -1.6357E+00  1.4680E+01 -3.6086E-01  1.4775E+01
                               -3.6925E-01  1.4491E+01 -4.7587E+01  2.5147E+03

           1    9.90001E+00     3.4326E-01  2.6206E-02 -2.5722E+00  2.5952E+00
ac ID =   33377                -2.0191E+00  1.5295E+01 -1.7999E-01  1.5428E+01
                               -3.6991E-01  1.4598E+01 -4.7552E+01  2.5147E+03

           1    1.00005E+01     3.5272E-01  7.2969E-03 -2.5975E+00  2.6213E+00
ac ID =   33377                -1.6412E+00  1.5622E+01 -1.3228E-01  1.5708E+01
                               -3.7055E-01  1.4707E+01 -4.7515E+01  2.5147E+03

           1    1.01005E+01     3.4924E-01 -1.4496E-04 -2.5846E+00  2.6081E+00
ac ID =   33377                -1.3281E+00  1.5521E+01 -1.1796E-02  1.5578E+01
                               -3.7114E-01  1.4817E+01 -4.7476E+01  2.5147E+03

           1    1.02005E+01     3.4477E-01  1.3682E-02 -2.6159E+00  2.6385E+00
ac ID =   33377                -1.7905E+00  1.5794E+01 -3.3915E-01  1.5899E+01
                               -3.7175E-01  1.4929E+01 -4.7434E+01  2.5147E+03

           1    1.03005E+01     3.3833E-01  9.6902E-03 -2.6585E+00  2.6799E+00
ac ID =   33377                -1.4147E+00  1.5343E+01 -4.1628E-01  1.5414E+01
                               -3.7239E-01  1.5040E+01 -4.7390E+01  2.5147E+03

           1    1.04005E+01     3.5972E-01  4.7761E-03 -2.6599E+00  2.6841E+00
ac ID =   33377                -1.4244E+00  1.5851E+01 -1.6939E-01  1.5916E+01
                               -3.7294E-01  1.5154E+01 -4.7344E+01  2.5147E+03

           1    1.05004E+01     3.5659E-01 -1.5566E-03 -2.6132E+00  2.6374E+00
ac ID =   33377                -1.5308E+00  1.5560E+01 -4.3789E-02  1.5636E+01
                               -3.7350E-01  1.5268E+01 -4.7295E+01  2.5147E+03

           1    1.06004E+01     3.5151E-01  2.2317E-02 -2.5990E+00  2.6227E+00
ac ID =   33377                -2.0048E+00  1.5460E+01  2.1476E-02  1.5589E+01
                               -3.7417E-01  1.5383E+01 -4.7243E+01  2.5147E+03

           1    1.07004E+01     3.6441E-01  6.5752E-03 -2.5820E+00  2.6076E+00
ac ID =   33377                -1.5757E+00  1.5703E+01 -2.0491E-02  1.5782E+01
                               -3.7486E-01  1.5499E+01 -4.7190E+01  2.5147E+03

           1    1.08004E+01     3.6404E-01  2.3283E-03 -2.5936E+00  2.6190E+00
ac ID =   33377                -1.6338E+00  1.5296E+01 -1.9588E-01  1.5385E+01
                               -3.7555E-01  1.5616E+01 -4.7133E+01  2.5147E+03

           1    1.09004E+01     3.4757E-01  8.4098E-03 -2.5758E+00  2.5991E+00
ac ID =   33377                -1.6882E+00  1.4684E+01 -2.5774E-01  1.4783E+01
                               -3.7633E-01  1.5734E+01 -4.7074E+01  2.5147E+03

           1    1.10004E+01     3.5217E-01  1.8793E-02 -2.5412E+00  2.5656E+00
ac ID =   33377                -1.4226E+00  1.4752E+01 -3.1357E-01  1.4824E+01
                               -3.7716E-01  1.5852E+01 -4.7013E+01  2.5147E+03

           1    1.11004E+01     3.6644E-01  2.5261E-03 -2.5405E+00  2.5668E+00
ac ID =   33377                -1.3772E+00  1.5152E+01  4.0575E-02  1.5214E+01
                               -3.7789E-01  1.5971E+01 -4.6949E+01  2.5147E+03

           1    1.12004E+01     3.4921E-01  1.0898E-02 -2.5051E+00  2.5293E+00
ac ID =   33377                -1.4663E+00  1.4711E+01  2.7858E-01  1.4786E+01
                               -3.7866E-01  1.6091E+01 -4.6882E+01  2.5147E+03

           1    1.13004E+01     3.5175E-01  1.7158E-02 -2.4580E+00  2.4831E+00
ac ID =   33377                -1.5317E+00  1.4995E+01 -1.8077E-01  1.5074E+01
                               -3.7948E-01  1.6211E+01 -4.6812E+01  2.5147E+03

           1    1.14004E+01     3.6932E-01  2.6521E-03 -2.4360E+00  2.4639E+00
ac ID =   33377                -1.6001E+00  1.5184E+01 -3.2140E-01  1.5271E+01
                               -3.8021E-01  1.6332E+01 -4.6741E+01  2.5147E+03

           1    1.15003E+01     3.3541E-01  1.4794E-02 -2.4241E+00  2.4472E+00
ac ID =   33377                -1.8397E+00  1.4562E+01 -3.8299E-02  1.4678E+01
                               -3.8095E-01  1.6454E+01 -4.6666E+01  2.5147E+03

           1    1.16003E+01     3.3586E-01  2.5527E-02 -2.3967E+00  2.4203E+00
ac ID =   33377                -1.8598E+00  1.4563E+01 -1.5241E-01  1.4682E+01
                               -3.8172E-01  1.6576E+01 -4.6589E+01  2.5147E+03

           1    1.17003E+01     3.6792E-01  1.1478E-02 -2.3806E+00  2.4089E+00
ac ID =   33377                -1.6129E+00  1.4795E+01 -2.1807E-02  1.4882E+01
                               -3.8247E-01  1.6698E+01 -4.6510E+01  2.5147E+03

           1    1.18003E+01     3.4440E-01  4.9567E-03 -2.3625E+00  2.3875E+00
ac ID =   33377                -1.8285E+00  1.4140E+01 -9.7113E-02  1.4258E+01
                               -3.8319E-01  1.6821E+01 -4.6428E+01  2.5147E+03

           1    1.19003E+01     3.4868E-01  1.3805E-02 -2.3536E+00  2.3794E+00
ac ID =   33377                -1.5724E+00  1.4243E+01 -2.1519E-01  1.4331E+01
                               -3.8399E-01  1.6945E+01 -4.6343E+01  2.5147E+03

           1    1.20003E+01     3.5866E-01 -7.8541E-03 -2.3219E+00  2.3495E+00
ac ID =   33377                -1.0940E+00  1.4261E+01 -1.5867E-01  1.4304E+01
                               -3.8481E-01  1.7069E+01 -4.6256E+01  2.5147E+03

           1    1.21003E+01     3.5254E-01  6.7496E-03 -2.2670E+00  2.2942E+00
ac ID =   33377                -1.2920E+00  1.4130E+01  9.7701E-02  1.4189E+01
                               -3.8563E-01  1.7193E+01 -4.6167E+01  2.5147E+03

           1    1.22003E+01     3.3157E-01 -2.6149E-04 -2.2081E+00  2.2328E+00
ac ID =   33377                -1.3551E+00  1.3208E+01 -9.4684E-02  1.3278E+01
                               -3.8653E-01  1.7318E+01 -4.6075E+01  2.5147E+03

           1    1.23003E+01     3.5247E-01  3.5851E-03 -2.1610E+00  2.1895E+00
ac ID =   33377                -1.2278E+00  1.3253E+01 -1.0947E-01  1.3310E+01
                               -3.8749E-01  1.7443E+01 -4.5982E+01  2.5147E+03

           1    1.24003E+01     3.4522E-01 -6.0597E-03 -2.0992E+00  2.1274E+00
ac ID =   33377                -1.4383E+00  1.2731E+01 -1.5233E-01  1.2813E+01
                               -3.8841E-01  1.7569E+01 -4.5885E+01  2.5147E+03

           1    1.25002E+01     3.3038E-01  3.9914E-03 -2.0847E+00  2.1108E+00
ac ID =   33377                -1.4721E+00  1.2380E+01 -4.7719E-01  1.2477E+01
                               -3.8952E-01  1.7695E+01 -4.5787E+01  2.5147E+03

           1    1.26002E+01     3.4405E-01  8.5103E-03 -2.0358E+00  2.0647E+00
ac ID =   33377                -1.4708E+00  1.2639E+01 -1.5127E-01  1.2725E+01
                               -3.9068E-01  1.7822E+01 -4.5687E+01  2.5147E+03

           1    1.27002E+01     3.4425E-01 -8.7059E-03 -1.9547E+00  1.9848E+00
ac ID =   33377                -1.1847E+00  1.2282E+01 -2.0013E-01  1.2341E+01
                               -3.9188E-01  1.7950E+01 -4.5585E+01  2.5147E+03

           1    1.28002E+01     3.5583E-01  7.1153E-03 -1.9300E+00  1.9625E+00
ac ID =   33377                -1.1628E+00  1.2732E+01 -2.4327E-01  1.2788E+01
                               -3.9321E-01  1.8078E+01 -4.5481E+01  2.5147E+03

           1    1.29002E+01     3.3942E-01  1.3023E-03 -1.8819E+00  1.9123E+00
ac ID =   33377                -1.1752E+00  1.2146E+01 -2.2674E-01  1.2205E+01
                               -3.9450E-01  1.8207E+01 -4.5375E+01  2.5147E+03

           1    1.30002E+01     3.2406E-01 -3.7832E-03 -1.8106E+00  1.8394E+00
ac ID =   33377                -9.7324E-01  1.1614E+01 -3.3037E-01  1.1659E+01
                               -3.9585E-01  1.8336E+01 -4.5268E+01  2.5147E+03

           1    1.31002E+01     3.3859E-01 -1.4229E-02 -1.7497E+00  1.7822E+00
ac ID =   33377                -1.1073E+00  1.1331E+01 -7.5234E-02  1.1385E+01
                               -3.9715E-01  1.8467E+01 -4.5159E+01  2.5147E+03

           1    1.32002E+01     3.3083E-01  1.6574E-02 -1.7179E+00  1.7496E+00
ac ID =   33377                -1.5400E+00  1.0680E+01  9.6004E-02  1.0791E+01
                               -3.9856E-01  1.8597E+01 -4.5048E+01  2.5147E+03

           1    1.33002E+01     3.1610E-01  5.4284E-03 -1.6741E+00  1.7037E+00
ac ID =   33377                -1.6617E+00  1.0032E+01  1.0282E-01  1.0169E+01
                               -3.9993E-01  1.8729E+01 -4.4936E+01  2.5147E+03

           1    1.34002E+01     2.9751E-01  2.9923E-03 -1.6102E+00  1.6374E+00
ac ID =   33377                -1.4991E+00  9.6644E+00  1.6087E-02  9.7800E+00
                               -4.0135E-01  1.8861E+01 -4.4823E+01  2.5147E+03

           1    1.35001E+01     3.2277E-01  2.9343E-03 -1.5703E+00  1.6031E+00
ac ID =   33377                -1.4609E+00  9.6788E+00 -6.1300E-02  9.7886E+00
                               -4.0278E-01  1.8993E+01 -4.4708E+01  2.5147E+03

           1    1.36001E+01     2.9365E-01  9.2766E-03 -1.5059E+00  1.5343E+00
ac ID =   33377                -1.5125E+00  8.7104E+00  3.3033E-01  8.8469E+00
                               -4.0420E-01  1.9126E+01 -4.4592E+01  2.5147E+03

           1    1.37001E+01     3.0388E-01  5.5912E-03 -1.4859E+00  1.5167E+00
ac ID =   33377                -1.0613E+00  8.7793E+00  2.5644E-01  8.8469E+00
                               -4.0568E-01  1.9260E+01 -4.4474E+01  2.5147E+03

           1    1.38001E+01     2.9461E-01  5.5387E-03 -1.4011E+00  1.4318E+00
ac ID =   33377                -1.0324E+00  8.1696E+00  1.6354E-01  8.2362E+00
                               -4.0712E-01  1.9394E+01 -4.4356E+01  2.5147E+03

           1    1.39001E+01     2.6863E-01  8.8344E-03 -1.3335E+00  1.3603E+00
ac ID =   33377                -1.1212E+00  7.3115E+00 -2.6617E-01  7.4017E+00
                               -4.0850E-01  1.9528E+01 -4.4236E+01  2.5147E+03

           1    1.40001E+01     2.5173E-01  3.0900E-04 -1.2733E+00  1.2980E+00
ac ID =   33377                -1.3619E+00  6.6243E+00 -5.6836E-01  6.7867E+00
                               -4.0993E-01  1.9663E+01 -4.4115E+01  2.5147E+03

           1    1.41001E+01     2.5556E-01  1.2602E-03 -1.1925E+00  1.2195E+00
ac ID =   33377                -9.7715E-01  6.0581E+00 -1.1322E-01  6.1375E+00
                               -4.1133E-01  1.9799E+01 -4.3993E+01  2.5147E+03

           1    1.42001E+01     2.4562E-01  1.3550E-02 -1.1352E+00  1.1616E+00
ac ID =   33377                -1.7140E+00  6.0178E+00 -1.2423E-01  6.2584E+00
                               -4.1272E-01  1.9934E+01 -4.3869E+01  2.5147E+03

           1    1.43001E+01     2.1920E-01  3.2057E-02 -1.0758E+00  1.0984E+00
ac ID =   33377                -2.0434E+00  4.9638E+00 -2.8509E-01  5.3755E+00
                               -4.1415E-01  2.0071E+01 -4.3745E+01  2.5147E+03

           1    1.44001E+01     2.3457E-01 -9.5030E-03 -9.7755E-01  1.0053E+00
ac ID =   33377                -1.1923E+00  4.9626E+00 -6.1794E-01  5.1411E+00
                               -4.1555E-01  2.0207E+01 -4.3620E+01  2.5147E+03

           1    1.45000E+01     2.1866E-01 -2.7049E-03 -9.3310E-01  9.5838E-01
ac ID =   33377                -1.2466E+00  4.1426E+00 -5.9004E-01  4.3662E+00
                               -4.1691E-01  2.0344E+01 -4.3494E+01  2.5147E+03

           1    1.46000E+01     2.0768E-01  9.5677E-03 -9.0887E-01  9.3234E-01
ac ID =   33377                -1.7468E+00  3.8288E+00  7.4083E-02  4.2091E+00
                               -4.1840E-01  2.0481E+01 -4.3367E+01  2.5147E+03

           1    1.47000E+01     1.8470E-01  1.9067E-02 -8.1851E-01  8.3930E-01
ac ID =   33377                -1.1486E+00  3.1134E+00  5.2244E-02  3.3189E+00
                               -4.1989E-01  2.0618E+01 -4.3240E+01  2.5147E+03

           1    1.48005E+01     1.8558E-01  1.4081E-02 -7.5268E-01  7.7535E-01
ac ID =   33377                -1.6673E+00  2.9426E+00 -3.3687E-02  3.3823E+00
                               -4.2110E-01  2.0757E+01 -4.3111E+01  2.5147E+03

           1    1.49005E+01     1.7921E-01  3.3791E-03 -7.2027E-01  7.4224E-01
ac ID =   33377                -1.2278E+00  2.6474E+00 -7.0734E-01  3.0028E+00
                               -4.2236E-01  2.0895E+01 -4.2982E+01  2.5147E+03

           1    1.50005E+01     1.6237E-01  1.4528E-02 -6.5297E-01  6.7301E-01
ac ID =   33377                -2.0596E+00  2.4514E+00 -1.9733E-01  3.2079E+00
                               -4.2358E-01  2.1032E+01 -4.2852E+01  2.5147E+03

           1    1.51005E+01     1.6798E-01  2.9429E-02 -5.8631E-01  6.1061E-01
ac ID =   33377                -2.2721E+00  3.1604E+00  1.6300E-01  3.8958E+00
                               -4.2485E-01  2.1171E+01 -4.2722E+01  2.5147E+03

           1    1.52005E+01     2.0332E-01  9.9443E-04 -5.3041E-01  5.6805E-01
ac ID =   33377                -1.2937E+00  4.1666E+00  2.7926E-01  4.3718E+00
                               -4.2611E-01  2.1309E+01 -4.2592E+01  2.5147E+03

           1    1.53005E+01     1.7963E-01  1.1892E-02 -4.7842E-01  5.1116E-01
ac ID =   33377                -2.1039E+00  3.8541E+00  3.1004E-01  4.4019E+00
                               -4.2741E-01  2.1447E+01 -4.2460E+01  2.5147E+03

           1    1.54005E+01     1.7006E-01  2.3836E-02 -4.1659E-01  4.5060E-01
ac ID =   33377                -1.6023E+00  4.0522E+00 -3.2694E-01  4.3697E+00
                               -4.2882E-01  2.1585E+01 -4.2329E+01  2.5147E+03

           1    1.55004E+01     2.0958E-01 -7.6863E-04 -3.8711E-01  4.4021E-01
ac ID =   33377                -1.5483E+00  4.7901E+00 -5.6162E-01  5.0653E+00
                               -4.3009E-01  2.1723E+01 -4.2197E+01  2.5147E+03

           1    1.56004E+01     1.5587E-01 -2.2026E-02 -2.9740E-01  3.3649E-01
ac ID =   33377                -2.1532E-01  3.9906E+00 -6.6750E-01  4.0518E+00
                               -4.3155E-01  2.1862E+01 -4.2065E+01  2.5147E+03

           1    1.57004E+01     1.7382E-01  1.7349E-02 -2.4568E-01  3.0145E-01
ac ID =   33377                -1.9463E+00  4.3090E+00 -4.1996E-01  4.7468E+00
                               -4.3308E-01  2.2000E+01 -4.1933E+01  2.5147E+03

           1    1.58004E+01     1.9662E-01  9.7766E-03 -2.1027E-01  2.8804E-01
ac ID =   33377                -1.1165E+00  5.5694E+00 -2.9786E-01  5.6880E+00
                               -4.3479E-01  2.2138E+01 -4.1801E+01  2.5147E+03

           1    1.59004E+01     1.7368E-01  2.2504E-03 -1.6344E-01  2.3850E-01
ac ID =   33377                -1.4157E+00  5.1502E+00  2.7592E-01  5.3483E+00
                               -4.3643E-01  2.2276E+01 -4.1669E+01  2.5147E+03

           1    1.60004E+01     1.3211E-01 -3.5149E-03 -6.6665E-02  1.4802E-01
ac ID =   33377                -1.1541E+00  4.3372E+00 -5.0492E-01  4.5164E+00
                               -4.3826E-01  2.2415E+01 -4.1538E+01  2.5147E+03

           1    1.61004E+01     1.9228E-01  4.3231E-02 -6.1526E-03  1.9718E-01
ac ID =   33377                -2.5540E+00  4.9221E+00 -4.5253E-01  5.5637E+00
                               -4.4016E-01  2.2553E+01 -4.1407E+01  2.5147E+03

           1    1.62004E+01     1.7277E-01 -2.8190E-03  4.5164E-02  1.7860E-01
ac ID =   33377                -1.0115E+00  4.5632E+00 -2.4534E-01  4.6804E+00
                               -4.4210E-01  2.2691E+01 -4.1277E+01  2.5147E+03

           1    1.63004E+01     1.0803E-01 -4.1478E-03  7.5566E-02  1.3190E-01
ac ID =   33377                -1.4498E+00  3.2532E+00  1.5708E-01  3.5651E+00
                               -4.4403E-01  2.2830E+01 -4.1147E+01  2.5147E+03

           1    1.64004E+01     1.6590E-01  4.1957E-02  1.1370E-01  2.0545E-01
ac ID =   33377                -2.1973E+00  4.6231E+00  2.9707E-01  5.1273E+00
                               -4.4614E-01  2.2968E+01 -4.1018E+01  2.5147E+03

           1    1.65003E+01     1.4800E-01 -2.1651E-03  1.8472E-01  2.3670E-01
ac ID =   33377                -9.3668E-01  3.9469E+00 -3.9251E-01  4.0755E+00
                               -4.4822E-01  2.3107E+01 -4.0891E+01  2.5147E+03

           1    1.66003E+01     1.3970E-01 -1.3753E-02  1.9763E-01  2.4241E-01
ac ID =   33377                -7.6973E-01  3.3598E+00 -8.0689E-01  3.5400E+00
                               -4.5031E-01  2.3245E+01 -4.0764E+01  2.5147E+03

           1    1.67003E+01     1.0745E-01  7.1834E-03  2.4185E-01  2.6474E-01
ac ID =   33377                -1.3651E+00  3.1056E+00 -3.7434E-01  3.4129E+00
                               -4.5254E-01  2.3384E+01 -4.0638E+01  2.5147E+03

           1    1.68003E+01     1.3360E-01  3.0871E-02  2.9125E-01  3.2191E-01
ac ID =   33377                -1.6309E+00  2.8309E+00  8.6703E-02  3.2683E+00
                               -4.5489E-01  2.3523E+01 -4.0513E+01  2.5147E+03

           1    1.69003E+01     1.1416E-01 -1.7509E-02  3.3584E-01  3.5515E-01
ac ID =   33377                -5.7085E-01  2.5843E+00  1.3645E-01  2.6501E+00
                               -4.5715E-01  2.3662E+01 -4.0389E+01  2.5147E+03

           1    1.70003E+01     1.0510E-01 -2.9070E-04  3.8874E-01  4.0269E-01
ac ID =   33377                -1.3846E+00  1.7960E+00 -3.9319E-01  2.3015E+00
                               -4.5953E-01  2.3802E+01 -4.0267E+01  2.5147E+03

           1    1.71003E+01     9.5632E-02  2.9025E-02  4.2551E-01  4.3709E-01
ac ID =   33377                -1.8095E+00  1.3897E+00 -7.7847E-01  2.4107E+00
                               -4.6216E-01  2.3941E+01 -4.0146E+01  2.5147E+03

           1    1.72003E+01     9.4591E-02  1.9994E-02  4.4204E-01  4.5249E-01
ac ID =   33377                -1.4799E+00  1.1062E+00 -1.5761E-01  1.8544E+00
                               -4.6462E-01  2.4081E+01 -4.0026E+01  2.5147E+03

           1    1.73003E+01     1.0303E-01 -2.3514E-02  4.8910E-01  5.0039E-01
ac ID =   33377                -5.7541E-01  1.0863E+00 -1.1924E-01  1.2350E+00
                               -4.6708E-01  2.4222E+01 -3.9908E+01  2.5147E+03

           1    1.74003E+01     7.8064E-02  4.4938E-02  5.4662E-01  5.5399E-01
ac ID =   33377                -2.2684E+00  5.3982E-01  1.8519E-01  2.3391E+00
                               -4.6965E-01  2.4362E+01 -3.9791E+01  2.5147E+03

           1    1.75002E+01     8.2682E-02 -8.1419E-03  5.4483E-01  5.5113E-01
ac ID =   33377                -7.7347E-01  1.0024E-01 -3.2655E-01  8.4554E-01
                               -4.7213E-01  2.4503E+01 -3.9676E+01  2.5147E+03

           1    1.76002E+01     7.3540E-02  1.1050E-02  5.7858E-01  5.8333E-01
ac ID =   33377                -1.1257E+00 -1.6876E-02 -5.6952E-02  1.1272E+00
                               -4.7456E-01  2.4645E+01 -3.9563E+01  2.5147E+03

           1    1.77002E+01     6.9684E-02 -5.5181E-03  6.4607E-01  6.4984E-01
ac ID =   33377                -7.4214E-01 -7.0447E-01 -2.3384E-01  1.0496E+00
                               -4.7702E-01  2.4786E+01 -3.9451E+01  2.5147E+03

           1    1.78002E+01     5.8910E-02  3.1702E-02  6.5656E-01  6.5996E-01
ac ID =   33377                -1.5741E+00 -9.8031E-01 -2.5156E-01  1.8714E+00
                               -4.7955E-01  2.4929E+01 -3.9341E+01  2.5147E+03

           1    1.79002E+01     5.8109E-02  6.3726E-03  6.7261E-01  6.7514E-01
ac ID =   33377                -1.0979E+00 -1.1356E+00 -1.4461E-01  1.5861E+00
                               -4.8193E-01  2.5071E+01 -3.9233E+01  2.5147E+03

           1    1.80002E+01     6.4004E-02 -4.3056E-03  7.1960E-01  7.2246E-01
ac ID =   33377                -7.5489E-01 -1.2882E+00  9.6617E-03  1.4931E+00
                               -4.8438E-01  2.5214E+01 -3.9126E+01  2.5147E+03

           1    1.81002E+01     4.6443E-02  2.1910E-02  7.2854E-01  7.3035E-01
ac ID =   33377                -1.4355E+00 -1.7823E+00  4.3723E-02  2.2889E+00
                               -4.8681E-01  2.5358E+01 -3.9022E+01  2.5147E+03

           1    1.82002E+01     5.3749E-02  1.0194E-02  7.5930E-01  7.6127E-01
ac ID =   33377                -1.2832E+00 -2.0960E+00 -1.6816E-01  2.4633E+00
                               -4.8931E-01  2.5502E+01 -3.8919E+01  2.5147E+03

           1    1.83002E+01     5.1521E-02  9.4740E-03  7.8383E-01  7.8558E-01
ac ID =   33377                -6.9190E-01 -2.4071E+00 -5.0287E-01  2.5545E+00
                               -4.9182E-01  2.5647E+01 -3.8819E+01  2.5147E+03

           1    1.84002E+01     3.8489E-02 -1.2504E-02  7.9216E-01  7.9319E-01
ac ID =   33377                -1.0584E+00 -2.8159E+00 -2.4324E-01  3.0181E+00
                               -4.9424E-01  2.5792E+01 -3.8720E+01  2.5147E+03

           1    1.85001E+01     2.9551E-02  2.7991E-02  8.1001E-01  8.1103E-01
ac ID =   33377                -1.1303E+00 -3.3711E+00  3.7235E-01  3.5750E+00
                               -4.9691E-01  2.5937E+01 -3.8623E+01  2.5147E+03

           1    1.86001E+01     4.2701E-02 -8.3542E-03  8.3533E-01  8.3646E-01
ac ID =   33377                -6.4902E-01 -3.3283E+00 -9.6125E-02  3.3924E+00
                               -4.9951E-01  2.6083E+01 -3.8529E+01  2.5147E+03

           1    1.87001E+01     3.7379E-02  6.3144E-03  8.4448E-01  8.4533E-01
ac ID =   33377                -7.9029E-01 -3.7431E+00 -3.9383E-01  3.8458E+00
                               -5.0215E-01  2.6230E+01 -3.8436E+01  2.5147E+03

           1    1.88001E+01     9.2665E-03  4.3420E-03  8.6108E-01  8.6114E-01
ac ID =   33377                -1.2670E+00 -4.6780E+00 -2.0032E-01  4.8507E+00
                               -5.0481E-01  2.6377E+01 -3.8346E+01  2.5147E+03

           1    1.89001E+01     4.5811E-02  1.6502E-02  8.7133E-01  8.7269E-01
ac ID =   33377                -9.7108E-01 -4.2720E+00 -1.9647E-01  4.3854E+00
                               -5.0760E-01  2.6525E+01 -3.8257E+01  2.5147E+03

           1    1.90001E+01     2.7780E-02 -8.8457E-03  8.8812E-01  8.8860E-01
ac ID =   33377                -8.5371E-01 -4.6450E+00 -1.2873E-01  4.7246E+00
                               -5.1033E-01  2.6673E+01 -3.8171E+01  2.5147E+03

           1    1.91001E+01     6.0194E-03 -3.2870E-04  8.9781E-01  8.9783E-01
ac ID =   33377                -1.0291E+00 -5.3414E+00 -1.9971E-01  5.4433E+00
                               -5.1326E-01  2.6822E+01 -3.8087E+01  2.5147E+03

           1    1.92001E+01     3.4614E-02  2.6319E-02  8.9546E-01  8.9652E-01
ac ID =   33377                -1.3641E+00 -4.8805E+00 -1.5892E-01  5.0701E+00
                               -5.1629E-01  2.6972E+01 -3.8005E+01  2.5147E+03

           1    1.93001E+01     3.2741E-02 -7.3894E-03  9.0580E-01  9.0642E-01
ac ID =   33377                -6.8316E-01 -5.1181E+00 -3.3346E-01  5.1742E+00
                               -5.1929E-01  2.7122E+01 -3.7926E+01  2.5147E+03

           1    1.94001E+01     5.3417E-03 -5.9475E-03  9.1548E-01  9.1551E-01
ac ID =   33377                -4.6050E-01 -5.7943E+00 -1.7305E-01  5.8152E+00
                               -5.2239E-01  2.7273E+01 -3.7849E+01  2.5147E+03

           1    1.95000E+01     2.3220E-02  1.4860E-02  8.8402E-01  8.8445E-01
ac ID =   33377                -1.2312E+00 -5.5566E+00 -1.4849E-01  5.6933E+00
                               -5.2552E-01  2.7424E+01 -3.7773E+01  2.5147E+03

           1    1.96000E+01     2.1025E-02  1.2970E-02  8.9052E-01  8.9086E-01
ac ID =   33377                -9.2464E-01 -5.6491E+00 -3.5730E-01  5.7354E+00
                               -5.2867E-01  2.7576E+01 -3.7700E+01  2.5147E+03

           1    1.97005E+01     1.4488E-02 -1.6098E-02  8.6763E-01  8.6790E-01
ac ID =   33377                -6.1713E-01 -6.1703E+00 -1.2768E-01  6.2024E+00
                               -5.3182E-01  2.7729E+01 -3.7629E+01  2.5147E+03

           1    1.98005E+01     1.3893E-02  1.0829E-02  8.6514E-01  8.6532E-01
ac ID =   33377                -1.1661E+00 -6.2918E+00  1.0319E-01  6.3998E+00
                               -5.3506E-01  2.7882E+01 -3.7560E+01  2.5147E+03

           1    1.99005E+01     2.1282E-02  1.5605E-02  8.7270E-01  8.7310E-01
ac ID =   33377                -1.2216E+00 -6.5000E+00 -2.4642E-01  6.6184E+00
                               -5.3835E-01  2.8036E+01 -3.7494E+01  2.5147E+03

           1    2.00005E+01     1.8464E-02  5.5389E-04  8.5836E-01  8.5856E-01
ac ID =   33377                -7.9433E-01 -6.6594E+00 -2.9029E-01  6.7129E+00
                               -5.4167E-01  2.8190E+01 -3.7429E+01  2.5147E+03

           1    2.01005E+01     1.1965E-02  5.5609E-03  8.4605E-01  8.4616E-01
ac ID =   33377                -8.5625E-01 -6.9973E+00  1.7168E-01  7.0516E+00
                               -5.4500E-01  2.8345E+01 -3.7367E+01  2.5147E+03

           1    2.02005E+01     8.8888E-03  3.2961E-03  8.4760E-01  8.4765E-01
ac ID =   33377                -8.4049E-01 -7.2865E+00 -1.4191E-02  7.3348E+00
                               -5.4840E-01  2.8500E+01 -3.7306E+01  2.5147E+03

           1    2.03005E+01     1.9817E-02  9.2674E-03  8.3990E-01  8.4018E-01
ac ID =   33377                -9.3718E-01 -7.2829E+00 -1.1263E-01  7.3438E+00
                               -5.5186E-01  2.8656E+01 -3.7248E+01  2.5147E+03

           1    2.04005E+01     1.3337E-02 -6.6276E-03  8.1972E-01  8.1985E-01
ac ID =   33377                -3.3325E-01 -7.4347E+00 -4.4320E-01  7.4553E+00
                               -5.5537E-01  2.8813E+01 -3.7192E+01  2.5147E+03

           1    2.05004E+01     1.1987E-02  7.6633E-03  8.0785E-01  8.0797E-01
ac ID =   33377                -8.3622E-01 -7.5070E+00 -2.5073E-01  7.5576E+00
                               -5.5890E-01  2.8970E+01 -3.7137E+01  2.5147E+03

           1    2.06004E+01     2.7596E-02  6.3253E-03  7.9418E-01  7.9469E-01
ac ID =   33377                -9.5666E-01 -7.4731E+00 -5.2037E-02  7.5343E+00
                               -5.6252E-01  2.9127E+01 -3.7085E+01  2.5147E+03

           1    2.07004E+01     3.7520E-02  3.3545E-03  7.8833E-01  7.8923E-01
ac ID =   33377                -5.7921E-01 -7.3627E+00 -8.8891E-02  7.3860E+00
                               -5.6621E-01  2.9285E+01 -3.7034E+01  2.5147E+03

           1    2.08004E+01     4.4541E-02 -4.2945E-03  7.7445E-01  7.7574E-01
ac ID =   33377                -5.9711E-01 -7.4130E+00 -3.0995E-01  7.4435E+00
                               -5.6989E-01  2.9444E+01 -3.6985E+01  2.5147E+03

           1    2.09004E+01     2.6584E-02  1.9464E-02  7.5523E-01  7.5595E-01
ac ID =   33377                -1.1337E+00 -7.5257E+00 -2.5713E-01  7.6150E+00
                               -5.7364E-01  2.9603E+01 -3.6938E+01  2.5147E+03

           1    2.10004E+01     4.7369E-02  2.7689E-03  7.4153E-01  7.4304E-01
ac ID =   33377                -5.5014E-01 -7.3628E+00 -8.7448E-02  7.3838E+00
                               -5.7745E-01  2.9762E+01 -3.6893E+01  2.5147E+03

           1    2.11004E+01     4.9538E-02 -1.1344E-02  7.1752E-01  7.1932E-01
ac ID =   33377                -2.7194E-01 -7.3982E+00 -5.9757E-02  7.4035E+00
                               -5.8124E-01  2.9922E+01 -3.6850E+01  2.5147E+03

           1    2.12004E+01     3.8126E-02  2.0379E-03  6.8091E-01  6.8197E-01
ac ID =   33377                -7.0832E-01 -7.6541E+00  8.8226E-02  7.6873E+00
                               -5.8507E-01  3.0082E+01 -3.6808E+01  2.5147E+03

           1    2.13004E+01     5.5180E-02  1.2895E-02  6.5266E-01  6.5512E-01
ac ID =   33377                -5.4560E-01 -7.6073E+00 -1.7162E-01  7.6288E+00
                               -5.8899E-01  3.0242E+01 -3.6768E+01  2.5147E+03

           1    2.14004E+01     5.7340E-02 -9.1223E-03  6.1726E-01  6.1999E-01
ac ID =   33377                -2.0007E-01 -7.6463E+00 -2.5975E-01  7.6533E+00
                               -5.9285E-01  3.0402E+01 -3.6730E+01  2.5147E+03

           1    2.15003E+01     6.2192E-02 -1.1869E-02  5.8364E-01  5.8707E-01
ac ID =   33377                -2.4680E-01 -7.7589E+00 -3.1309E-01  7.7691E+00
                               -5.9671E-01  3.0563E+01 -3.6693E+01  2.5147E+03

           1    2.16003E+01     5.9154E-02  1.8882E-02  5.5285E-01  5.5633E-01
ac ID =   33377                -9.0015E-01 -8.0658E+00 -1.4903E-01  8.1172E+00
                               -6.0063E-01  3.0724E+01 -3.6657E+01  2.5147E+03

           1    2.17003E+01     7.5453E-02 -9.4020E-03  5.2145E-01  5.2696E-01
ac ID =   33377                -1.2534E-01 -7.9964E+00 -1.9199E-01  7.9997E+00
                               -6.0457E-01  3.0885E+01 -3.6623E+01  2.5147E+03

           1    2.18003E+01     5.8292E-02 -1.1736E-02  4.9704E-01  5.0059E-01
ac ID =   33377                -5.2529E-02 -8.6573E+00  1.2148E-02  8.6574E+00
                               -6.0852E-01  3.1047E+01 -3.6590E+01  2.5147E+03

           1    2.19003E+01     6.4065E-02  1.2584E-02  4.6584E-01  4.7039E-01
ac ID =   33377                -6.5594E-01 -8.9320E+00  4.6299E-02  8.9562E+00
                               -6.1252E-01  3.1208E+01 -3.6558E+01  2.5147E+03

           1    2.20003E+01     6.1691E-02  1.4279E-03  4.3088E-01  4.3528E-01
ac ID =   33377                -3.6623E-01 -9.2505E+00 -3.3822E-01  9.2639E+00
                               -6.1649E-01  3.1370E+01 -3.6528E+01  2.5147E+03

           1    2.21003E+01     5.9724E-02 -2.5918E-03  4.0750E-01  4.1186E-01
ac ID =   33377                -1.9220E-01 -9.4893E+00 -3.3382E-01  9.4971E+00
                               -6.2037E-01  3.1532E+01 -3.6498E+01  2.5147E+03

           1    2.22003E+01     6.2454E-02 -7.0592E-03  3.7940E-01  3.8457E-01
ac ID =   33377                -1.9249E-02 -9.8045E+00 -2.7208E-01  9.8083E+00
                               -6.2428E-01  3.1694E+01 -3.6469E+01  2.5147E+03

           1    2.23003E+01     6.1100E-02 -4.3492E-03  3.4794E-01  3.5329E-01
ac ID =   33377                 2.9072E-02 -1.0107E+01 -7.3001E-02  1.0107E+01
                               -6.2828E-01  3.1856E+01 -3.6442E+01  2.5147E+03

           1    2.24003E+01     7.9897E-02  4.9736E-04  3.2134E-01  3.3112E-01
ac ID =   33377                -1.8054E-01 -1.0213E+01 -8.2241E-02  1.0215E+01
                               -6.3231E-01  3.2018E+01 -3.6414E+01  2.5147E+03

           1    2.25002E+01     5.8749E-02 -1.2256E-02  2.9190E-01  2.9800E-01
ac ID =   33377                 3.4398E-01 -1.0812E+01 -2.2461E-01  1.0820E+01
                               -6.3635E-01  3.2180E+01 -3.6388E+01  2.5147E+03

           1    2.26002E+01     6.7293E-02 -1.9313E-03  2.6650E-01  2.7488E-01
ac ID =   33377                -1.0972E-01 -1.1108E+01 -1.1526E-01  1.1109E+01
                               -6.4030E-01  3.2342E+01 -3.6362E+01  2.5147E+03

           1    2.27002E+01     8.3695E-02 -1.7276E-02  2.3323E-01  2.4840E-01
ac ID =   33377                 3.1254E-01 -1.0993E+01 -1.1256E-01  1.0998E+01
                               -6.4433E-01  3.2504E+01 -3.6336E+01  2.5147E+03

           1    2.28002E+01     5.7186E-02 -1.9541E-03  1.9478E-01  2.0301E-01
ac ID =   33377                -3.7569E-02 -1.1551E+01 -2.0433E-01  1.1553E+01
                               -6.4840E-01  3.2666E+01 -3.6311E+01  2.5147E+03

           1    2.29002E+01     7.7022E-02 -7.9684E-03  1.5696E-01  1.7502E-01
ac ID =   33377                -2.4136E-02 -1.1525E+01 -2.9684E-01  1.1529E+01
                               -6.5241E-01  3.2828E+01 -3.6286E+01  2.5147E+03

           1    2.30002E+01     7.8252E-02  3.3696E-03  1.3095E-01  1.5259E-01
ac ID =   33377                -8.9501E-02 -1.1637E+01 -2.5764E-01  1.1640E+01
                               -6.5644E-01  3.2990E+01 -3.6261E+01  2.5147E+03

           1    2.31002E+01     8.0677E-02 -1.5663E-02  1.0169E-01  1.3075E-01
ac ID =   33377                 2.6719E-01 -1.1950E+01 -2.0932E-01  1.1954E+01
                               -6.6048E-01  3.3152E+01 -3.6237E+01  2.5147E+03

           1    2.32002E+01     7.5557E-02 -1.2873E-02  7.6105E-02  1.0801E-01
ac ID =   33377                 2.8197E-01 -1.1979E+01 -1.6789E-01  1.1984E+01
                               -6.6456E-01  3.3314E+01 -3.6212E+01  2.5147E+03

           1    2.33002E+01     1.1055E-01 -4.2950E-03  2.1447E-02  1.1269E-01
ac ID =   33377                 1.5238E-01 -1.1562E+01 -1.4929E-01  1.1564E+01
                               -6.6866E-01  3.3476E+01 -3.6188E+01  2.5147E+03

           1    2.34002E+01     9.2346E-02  4.3044E-04 -2.0799E-03  9.2370E-02
ac ID =   33377                 4.5172E-01 -1.1765E+01 -1.7659E-01  1.1775E+01
                               -6.7278E-01  3.3637E+01 -3.6163E+01  2.5147E+03

           1    2.35001E+01     1.0142E-01 -1.5129E-02 -2.5182E-02  1.0559E-01
ac ID =   33377                 5.7460E-01 -1.1878E+01 -1.7899E-02  1.1892E+01
                               -6.7681E-01  3.3798E+01 -3.6138E+01  2.5147E+03

           1    2.36001E+01     1.2305E-01 -5.2751E-03 -6.2700E-02  1.3821E-01
ac ID =   33377                 3.7842E-01 -1.1400E+01  1.4461E-03  1.1406E+01
                               -6.8085E-01  3.3959E+01 -3.6113E+01  2.5147E+03

           1    2.37001E+01     1.1608E-01  2.4036E-03 -8.2699E-02  1.4255E-01
ac ID =   33377                -2.5588E-02 -1.1570E+01 -2.3395E-01  1.1573E+01
                               -6.8489E-01  3.4120E+01 -3.6087E+01  2.5147E+03

           1    2.38001E+01     1.0541E-01 -4.5637E-03 -1.2180E-01  1.6114E-01
ac ID =   33377                 2.7285E-01 -1.1549E+01 -3.5179E-01  1.1558E+01
                               -6.8892E-01  3.4281E+01 -3.6061E+01  2.5147E+03

           1    2.39001E+01     1.3314E-01 -8.4211E-03 -1.5580E-01  2.0511E-01
ac ID =   33377                 1.0264E-01 -1.1025E+01 -2.2273E-01  1.1028E+01
                               -6.9290E-01  3.4441E+01 -3.6034E+01  2.5147E+03

           1    2.40001E+01     1.3880E-01  2.4134E-03 -1.6277E-01  2.1393E-01
ac ID =   33377                 5.4401E-02 -1.0930E+01 -1.9165E-01  1.0932E+01
                               -6.9688E-01  3.4601E+01 -3.6007E+01  2.5147E+03

           1    2.41001E+01     1.3530E-01 -3.9060E-03 -2.0601E-01  2.4650E-01
ac ID =   33377                 1.5329E-02 -1.0944E+01 -2.3625E-01  1.0946E+01
                               -7.0080E-01  3.4760E+01 -3.5980E+01  2.5147E+03

           1    2.42001E+01     1.3374E-01 -6.6608E-03 -2.2768E-01  2.6414E-01
ac ID =   33377                 6.2047E-01 -1.0848E+01 -2.9006E-01  1.0870E+01
                               -7.0463E-01  3.4920E+01 -3.5952E+01  2.5147E+03

           1    2.43001E+01     1.4597E-01 -1.2170E-02 -2.3734E-01  2.7890E-01
ac ID =   33377                 3.9075E-01 -1.0806E+01 -2.8235E-02  1.0813E+01
                               -7.0843E-01  3.5078E+01 -3.5923E+01  2.5147E+03

           1    2.44001E+01     1.5606E-01  2.5902E-03 -2.6381E-01  3.0652E-01
ac ID =   33377                 4.9583E-01 -1.0462E+01 -9.4274E-02  1.0474E+01
                               -7.1224E-01  3.5237E+01 -3.5894E+01  2.5147E+03

           1    2.45005E+01     1.6057E-01 -5.0823E-03 -2.9269E-01  3.3388E-01
ac ID =   33377                 3.5790E-01 -1.0522E+01 -1.5760E-01  1.0530E+01
                               -7.1600E-01  3.5396E+01 -3.5863E+01  2.5147E+03

           1    2.46005E+01     1.5291E-01 -1.3194E-02 -3.1739E-01  3.5256E-01
ac ID =   33377                 7.1680E-01 -1.0477E+01 -3.5317E-01  1.0508E+01
                               -7.1973E-01  3.5553E+01 -3.5832E+01  2.5147E+03

           1    2.47005E+01     1.7680E-01  9.6967E-04 -3.3200E-01  3.7614E-01
ac ID =   33377                 3.4029E-01 -1.0124E+01 -1.5468E-01  1.0131E+01
                               -7.2340E-01  3.5710E+01 -3.5801E+01  2.5147E+03

           1    2.48005E+01     1.7724E-01 -1.1538E-02 -3.3380E-01  3.7811E-01
ac ID =   33377                 4.0307E-01 -1.0117E+01 -2.8494E-01  1.0129E+01
                               -7.2704E-01  3.5867E+01 -3.5768E+01  2.5147E+03

           1    2.49005E+01     1.6068E-01 -1.1967E-03 -3.5513E-01  3.8979E-01
ac ID =   33377                 4.5843E-01 -1.0365E+01 -1.3117E-01  1.0376E+01
                               -7.3069E-01  3.6023E+01 -3.5734E+01  2.5147E+03

