 LSTC 50th% Full_FE H-III Dummy (Beta Version, February 17, 2019)        
                    ls-dyna smp s R16 R16.0_619_d222963 date 03/18/2025

{BEGIN LEGEND}
 Entity #        Title
    22626                                                                                     
{END LEGEND}




 n o d a l   p r i n t   o u t   f o r   t i m e  s t e p       1                              ( at time 0.0000000E+00 )

 nodal point  x-disp     y-disp      z-disp      x-vel       y-vel       z-vel      x-accl      y-accl      z-accl      x-coor      y-coor      z-coor
    22626  0.00000E+00 0.00000E+00 0.00000E+00 0.00000E+00 0.00000E+00 0.00000E+00 0.00000E+00 0.00000E+00 0.00000E+00 4.65938E+00-2.81908E+01-4.49817E+01



 n o d a l   p r i n t   o u t   f o r   t i m e  s t e p       1                              ( at time 0.0000000E+00 )

 nodal point  x-rot      y-rot       z-rot       x-rot vel   y-rot vel   z-rot vel   x-rot acc   y-rot acc   z-rot acc
    22626  0.00000E+00 0.00000E+00 0.00000E+00 0.00000E+00 0.00000E+00 0.00000E+00 0.00000E+00 0.00000E+00 0.00000E+00



 n o d a l   p r i n t   o u t   f o r   t i m e  s t e p     201                              ( at time 9.9989993E-02 )

 nodal point  x-disp     y-disp      z-disp      x-vel       y-vel       z-vel      x-accl      y-accl      z-accl      x-coor      y-coor      z-coor
    22626  2.73604E-07 1.73545E-06-5.34264E-05 4.19747E-05 2.55486E-04-1.46806E-03 4.19789E-04 2.55512E-03-1.46820E-02 4.65938E+00-2.81908E+01-4.49818E+01



 n o d a l   p r i n t   o u t   f o r   t i m e  s t e p     201                              ( at time 9.9989993E-02 )

 nodal point  x-rot      y-rot       z-rot       x-rot vel   y-rot vel   z-rot vel   x-rot acc   y-rot acc   z-rot acc
    22626 -5.99268E-08-8.38917E-09-5.46365E-09-5.87102E-06-9.70188E-07-9.27465E-07-5.87160E-05-9.70285E-06-9.27558E-06



 n o d a l   p r i n t   o u t   f o r   t i m e  s t e p     401                              ( at time 1.9997999E-01 )

 nodal point  x-disp     y-disp      z-disp      x-vel       y-vel       z-vel      x-accl      y-accl      z-accl      x-coor      y-coor      z-coor
    22626  1.73094E-05 3.61691E-04-6.67519E-04 3.12189E-05 7.80955E-03-1.21523E-02-1.07568E-04 7.55482E-02-1.06853E-01 4.65939E+00-2.81905E+01-4.49824E+01



 n o d a l   p r i n t   o u t   f o r   t i m e  s t e p     401                              ( at time 1.9997999E-01 )

 nodal point  x-rot      y-rot       z-rot       x-rot vel   y-rot vel   z-rot vel   x-rot acc   y-rot acc   z-rot acc
    22626 -2.82067E-06-3.37195E-07-3.34626E-07-3.94548E-05-1.77376E-06-2.29199E-06-3.35871E-04-8.03656E-06-1.36467E-05



 n o d a l   p r i n t   o u t   f o r   t i m e  s t e p     601                              ( at time 2.9996998E-01 )

 nodal point  x-disp     y-disp      z-disp      x-vel       y-vel       z-vel      x-accl      y-accl      z-accl      x-coor      y-coor      z-coor
    22626  2.73720E-05 1.23955E-03-2.33767E-03 4.22311E-04 8.44006E-03-1.92411E-02 3.91132E-03 6.30578E-03-7.08956E-02 4.65940E+00-2.81896E+01-4.49841E+01



 n o d a l   p r i n t   o u t   f o r   t i m e  s t e p     601                              ( at time 2.9996998E-01 )

 nodal point  x-rot      y-rot       z-rot       x-rot vel   y-rot vel   z-rot vel   x-rot acc   y-rot acc   z-rot acc
    22626 -5.39427E-06-3.90666E-07-6.42274E-07-1.56281E-05-5.51756E-06-6.65091E-06 2.38291E-04-3.74417E-05-4.35935E-05



 n o d a l   p r i n t   o u t   f o r   t i m e  s t e p     801                              ( at time 3.9995997E-01 )

 nodal point  x-disp     y-disp      z-disp      x-vel       y-vel       z-vel      x-accl      y-accl      z-accl      x-coor      y-coor      z-coor
    22626  2.60539E-05 2.16088E-03-4.28045E-03-3.12919E-04 1.07357E-02-2.10638E-02-7.35304E-03 2.29588E-02-1.82287E-02 4.65940E+00-2.81887E+01-4.49860E+01



 n o d a l   p r i n t   o u t   f o r   t i m e  s t e p     801                              ( at time 3.9995997E-01 )

 nodal point  x-rot      y-rot       z-rot       x-rot vel   y-rot vel   z-rot vel   x-rot acc   y-rot acc   z-rot acc
    22626 -7.63618E-06-1.25148E-06-9.83745E-07-4.49349E-05-6.25409E-06-1.57121E-06-2.93098E-04-7.36609E-06 5.08020E-05



 n o d a l   p r i n t   o u t   f o r   t i m e  s t e p    1001                              ( at time 4.9994997E-01 )

 nodal point  x-disp     y-disp      z-disp      x-vel       y-vel       z-vel      x-accl      y-accl      z-accl      x-coor      y-coor      z-coor
    22626  4.02408E-06 3.43403E-03-6.73911E-03-2.40481E-04 1.41187E-02-2.86531E-02 7.24461E-04 3.38336E-02-7.59003E-02 4.65938E+00-2.81874E+01-4.49885E+01



 n o d a l   p r i n t   o u t   f o r   t i m e  s t e p    1001                              ( at time 4.9994997E-01 )

 nodal point  x-rot      y-rot       z-rot       x-rot vel   y-rot vel   z-rot vel   x-rot acc   y-rot acc   z-rot acc
    22626 -1.35969E-05-1.17098E-06-9.54662E-07-8.46830E-05 3.26310E-06 4.11585E-06-3.97521E-04 9.51815E-05 5.68764E-05



 n o d a l   p r i n t   o u t   f o r   t i m e  s t e p    1201                              ( at time 5.9993996E-01 )

 nodal point  x-disp     y-disp      z-disp      x-vel       y-vel       z-vel      x-accl      y-accl      z-accl      x-coor      y-coor      z-coor
    22626 -1.16738E-06 5.00008E-03-9.69760E-03 3.95800E-05 1.65147E-02-3.07609E-02 2.80089E-03 2.39625E-02-2.10801E-02 4.65937E+00-2.81858E+01-4.49914E+01



 n o d a l   p r i n t   o u t   f o r   t i m e  s t e p    1201                              ( at time 5.9993996E-01 )

 nodal point  x-rot      y-rot       z-rot       x-rot vel   y-rot vel   z-rot vel   x-rot acc   y-rot acc   z-rot acc
    22626 -2.04767E-05-8.95021E-07-9.73272E-07-6.16240E-05 3.63379E-06-2.40916E-06 2.30613E-04 3.70727E-06-6.52566E-05



 n o d a l   p r i n t   o u t   f o r   t i m e  s t e p    1401                              ( at time 6.9992995E-01 )

 nodal point  x-disp     y-disp      z-disp      x-vel       y-vel       z-vel      x-accl      y-accl      z-accl      x-coor      y-coor      z-coor
    22626 -5.00338E-05 6.81039E-03-1.31147E-02-4.54685E-04 1.92834E-02-3.84008E-02-4.94315E-03 2.76889E-02-7.64071E-02 4.65933E+00-2.81840E+01-4.49948E+01



 n o d a l   p r i n t   o u t   f o r   t i m e  s t e p    1401                              ( at time 6.9992995E-01 )

 nodal point  x-rot      y-rot       z-rot       x-rot vel   y-rot vel   z-rot vel   x-rot acc   y-rot acc   z-rot acc
    22626 -2.67797E-05-9.68709E-07-7.23220E-07-7.56626E-05-5.76906E-07 2.60727E-06-1.40400E-04-4.21112E-05 5.01692E-05



 n o d a l   p r i n t   o u t   f o r   t i m e  s t e p    1601                              ( at time 7.9991994E-01 )

 nodal point  x-disp     y-disp      z-disp      x-vel       y-vel       z-vel      x-accl      y-accl      z-accl      x-coor      y-coor      z-coor
    22626 -7.55799E-05 8.89673E-03-1.73272E-02-4.63865E-04 2.15426E-02-4.40603E-02-9.18067E-05 2.25947E-02-5.66003E-02 4.65930E+00-2.81819E+01-4.49990E+01



 n o d a l   p r i n t   o u t   f o r   t i m e  s t e p    1601                              ( at time 7.9991994E-01 )

 nodal point  x-rot      y-rot       z-rot       x-rot vel   y-rot vel   z-rot vel   x-rot acc   y-rot acc   z-rot acc
    22626 -3.55830E-05-1.05971E-06-7.87484E-07-9.99005E-05-6.41859E-06-8.97371E-07-2.42404E-04-5.84227E-05-3.50499E-05



 n o d a l   p r i n t   o u t   f o r   t i m e  s t e p    1801                              ( at time 8.9990994E-01 )

 nodal point  x-disp     y-disp      z-disp      x-vel       y-vel       z-vel      x-accl      y-accl      z-accl      x-coor      y-coor      z-coor
    22626 -1.09023E-04 1.10851E-02-2.17167E-02-2.51706E-04 2.30620E-02-4.38768E-02 2.12181E-03 1.51955E-02 1.83474E-03 4.65927E+00-2.81797E+01-4.50034E+01



 n o d a l   p r i n t   o u t   f o r   t i m e  s t e p    1801                              ( at time 8.9990994E-01 )

 nodal point  x-rot      y-rot       z-rot       x-rot vel   y-rot vel   z-rot vel   x-rot acc   y-rot acc   z-rot acc
    22626 -4.50285E-05-1.35740E-06-1.12166E-06-9.49885E-05-9.64402E-07-5.30769E-06 4.91257E-05 5.45474E-05-4.41076E-05



 n o d a l   p r i n t   o u t   f o r   t i m e  s t e p    2001                              ( at time 9.9989993E-01 )

 nodal point  x-disp     y-disp      z-disp      x-vel       y-vel       z-vel      x-accl      y-accl      z-accl      x-coor      y-coor      z-coor
    22626 -1.37125E-04 1.35042E-02-2.62432E-02 9.85552E-05 2.51309E-02-4.74799E-02 3.50296E-03 2.06909E-02-3.60341E-02 4.65924E+00-2.81773E+01-4.50080E+01



 n o d a l   p r i n t   o u t   f o r   t i m e  s t e p    2001                              ( at time 9.9989993E-01 )

 nodal point  x-rot      y-rot       z-rot       x-rot vel   y-rot vel   z-rot vel   x-rot acc   y-rot acc   z-rot acc
    22626 -5.55500E-05-1.74830E-06-1.66902E-06-1.22360E-04-5.52958E-06-1.04362E-05-2.73745E-04-4.56564E-05-5.12903E-05



 n o d a l   p r i n t   o u t   f o r   t i m e  s t e p    2201                              ( at time 1.0998899E+00 )

 nodal point  x-disp     y-disp      z-disp      x-vel       y-vel       z-vel      x-accl      y-accl      z-accl      x-coor      y-coor      z-coor
    22626 -1.17242E-04 1.60929E-02-3.12739E-02 5.83870E-05 2.71294E-02-5.27170E-02-4.01722E-04 1.99869E-02-5.23766E-02 4.65926E+00-2.81747E+01-4.50130E+01



 n o d a l   p r i n t   o u t   f o r   t i m e  s t e p    2201                              ( at time 1.0998899E+00 )

 nodal point  x-rot      y-rot       z-rot       x-rot vel   y-rot vel   z-rot vel   x-rot acc   y-rot acc   z-rot acc
    22626 -6.84689E-05-2.76014E-06-2.97542E-06-1.25047E-04-1.91489E-05-1.40921E-05-2.68744E-05-1.36207E-04-3.65627E-05



 n o d a l   p r i n t   o u t   f o r   t i m e  s t e p    2401                              ( at time 1.1998799E+00 )

 nodal point  x-disp     y-disp      z-disp      x-vel       y-vel       z-vel      x-accl      y-accl      z-accl      x-coor      y-coor      z-coor
    22626 -1.07317E-04 1.88451E-02-3.67648E-02 1.85823E-04 2.80861E-02-5.68361E-02 1.27449E-03 9.56825E-03-4.11948E-02 4.65927E+00-2.81720E+01-4.50185E+01



 n o d a l   p r i n t   o u t   f o r   t i m e  s t e p    2401                              ( at time 1.1998799E+00 )

 nodal point  x-rot      y-rot       z-rot       x-rot vel   y-rot vel   z-rot vel   x-rot acc   y-rot acc   z-rot acc
    22626 -8.08262E-05-4.56942E-06-4.44156E-06-1.28312E-04-2.02331E-05-1.65315E-05-3.26505E-05-1.08436E-05-2.43962E-05



 n o d a l   p r i n t   o u t   f o r   t i m e  s t e p    2601                              ( at time 1.2998699E+00 )

 nodal point  x-disp     y-disp      z-disp      x-vel       y-vel       z-vel      x-accl      y-accl      z-accl      x-coor      y-coor      z-coor
    22626 -1.00915E-04 2.17565E-02-4.25540E-02 1.57951E-04 3.00926E-02-5.85783E-02-2.78746E-04 2.00670E-02-1.74233E-02 4.65927E+00-2.81691E+01-4.50243E+01



 n o d a l   p r i n t   o u t   f o r   t i m e  s t e p    2601                              ( at time 1.2998699E+00 )

 nodal point  x-rot      y-rot       z-rot       x-rot vel   y-rot vel   z-rot vel   x-rot acc   y-rot acc   z-rot acc
    22626 -9.46232E-05-6.48182E-06-6.21346E-06-1.59404E-04-1.45782E-05-1.95333E-05-3.10949E-04 5.65548E-05-3.00210E-05



 n o d a l   p r i n t   o u t   f o r   t i m e  s t e p    2801                              ( at time 1.3998599E+00 )

 nodal point  x-disp     y-disp      z-disp      x-vel       y-vel       z-vel      x-accl      y-accl      z-accl      x-coor      y-coor      z-coor
    22626 -7.63837E-05 2.48306E-02-4.84357E-02 2.53494E-04 3.10825E-02-5.98176E-02 9.55517E-04 9.89942E-03-1.23946E-02 4.65930E+00-2.81660E+01-4.50302E+01



 n o d a l   p r i n t   o u t   f o r   t i m e  s t e p    2801                              ( at time 1.3998599E+00 )

 nodal point  x-rot      y-rot       z-rot       x-rot vel   y-rot vel   z-rot vel   x-rot acc   y-rot acc   z-rot acc
    22626 -1.11554E-04-8.21603E-06-8.34103E-06-1.80813E-04-2.12319E-05-1.85830E-05-2.14112E-04-6.65433E-05 9.50340E-06



 n o d a l   p r i n t   o u t   f o r   t i m e  s t e p    3001                              ( at time 1.4998499E+00 )

 nodal point  x-disp     y-disp      z-disp      x-vel       y-vel       z-vel      x-accl      y-accl      z-accl      x-coor      y-coor      z-coor
    22626 -5.36335E-05 2.80349E-02-5.46730E-02 1.06924E-04 3.27905E-02-6.52841E-02-1.46585E-03 1.70817E-02-5.46705E-02 4.65932E+00-2.81628E+01-4.50364E+01



 n o d a l   p r i n t   o u t   f o r   t i m e  s t e p    3001                              ( at time 1.4998499E+00 )

 nodal point  x-rot      y-rot       z-rot       x-rot vel   y-rot vel   z-rot vel   x-rot acc   y-rot acc   z-rot acc
    22626 -1.29738E-04-1.03732E-05-1.04025E-05-1.80560E-04-2.28637E-05-2.59207E-05 2.53170E-06-1.63195E-05-7.33837E-05



 n o d a l   p r i n t   o u t   f o r   t i m e  s t e p    3201                              ( at time 1.5998399E+00 )

 nodal point  x-disp     y-disp      z-disp      x-vel       y-vel       z-vel      x-accl      y-accl      z-accl      x-coor      y-coor      z-coor
    22626 -4.70472E-05 3.14244E-02-6.14420E-02 3.91565E-04 3.46627E-02-6.91897E-02 2.84670E-03 1.87242E-02-3.90595E-02 4.65933E+00-2.81594E+01-4.50432E+01



 n o d a l   p r i n t   o u t   f o r   t i m e  s t e p    3201                              ( at time 1.5998399E+00 )

 nodal point  x-rot      y-rot       z-rot       x-rot vel   y-rot vel   z-rot vel   x-rot acc   y-rot acc   z-rot acc
    22626 -1.48663E-04-1.27521E-05-1.29835E-05-2.05848E-04-2.83443E-05-2.89171E-05-2.52912E-04-5.48117E-05-2.99675E-05



 n o d a l   p r i n t   o u t   f o r   t i m e  s t e p    3401                              ( at time 1.6998299E+00 )

 nodal point  x-disp     y-disp      z-disp      x-vel       y-vel       z-vel      x-accl      y-accl      z-accl      x-coor      y-coor      z-coor
    22626 -2.38628E-05 3.49386E-02-6.84445E-02-2.25299E-04 3.55035E-02-7.07306E-02-6.16926E-03 8.40923E-03-1.54111E-02 4.65935E+00-2.81559E+01-4.50502E+01



 n o d a l   p r i n t   o u t   f o r   t i m e  s t e p    3401                              ( at time 1.6998299E+00 )

 nodal point  x-rot      y-rot       z-rot       x-rot vel   y-rot vel   z-rot vel   x-rot acc   y-rot acc   z-rot acc
    22626 -1.70764E-04-1.52074E-05-1.59558E-05-2.32946E-04-2.15395E-05-2.67943E-05-2.71001E-04 6.80548E-05 2.12303E-05



 n o d a l   p r i n t   o u t   f o r   t i m e  s t e p    3601                              ( at time 1.7998199E+00 )

 nodal point  x-disp     y-disp      z-disp      x-vel       y-vel       z-vel      x-accl      y-accl      z-accl      x-coor      y-coor      z-coor
    22626 -3.44660E-05 3.84791E-02-7.55900E-02 1.43835E-05 3.55445E-02-7.20613E-02 2.39707E-03 4.09488E-04-1.33076E-02 4.65934E+00-2.81524E+01-4.50573E+01



 n o d a l   p r i n t   o u t   f o r   t i m e  s t e p    3601                              ( at time 1.7998199E+00 )

 nodal point  x-rot      y-rot       z-rot       x-rot vel   y-rot vel   z-rot vel   x-rot acc   y-rot acc   z-rot acc
    22626 -1.95067E-04-1.73650E-05-1.90307E-05-2.45613E-04-2.30133E-05-3.73039E-05-1.26683E-04-1.47390E-05-1.05107E-04



 n o d a l   p r i n t   o u t   f o r   t i m e  s t e p    3801                              ( at time 1.8998099E+00 )

 nodal point  x-disp     y-disp      z-disp      x-vel       y-vel       z-vel      x-accl      y-accl      z-accl      x-coor      y-coor      z-coor
    22626 -3.53428E-05 4.21888E-02-8.29727E-02 3.15187E-04 3.85427E-02-7.59235E-02 3.00834E-03 2.99858E-02-3.86267E-02 4.65934E+00-2.81486E+01-4.50647E+01



 n o d a l   p r i n t   o u t   f o r   t i m e  s t e p    3801                              ( at time 1.8998099E+00 )

 nodal point  x-rot      y-rot       z-rot       x-rot vel   y-rot vel   z-rot vel   x-rot acc   y-rot acc   z-rot acc
    22626 -2.19528E-04-1.95411E-05-2.27370E-05-2.43904E-04-2.44922E-05-3.91984E-05 1.70954E-05-1.47913E-05-1.89464E-05



 n o d a l   p r i n t   o u t   f o r   t i m e  s t e p    4001                              ( at time 1.9997999E+00 )

 nodal point  x-disp     y-disp      z-disp      x-vel       y-vel       z-vel      x-accl      y-accl      z-accl      x-coor      y-coor      z-coor
    22626 -7.54326E-06 4.60736E-02-9.07993E-02 1.55383E-04 3.94040E-02-8.05180E-02-1.59820E-03 8.61343E-03-4.59496E-02 4.65937E+00-2.81448E+01-4.50725E+01



 n o d a l   p r i n t   o u t   f o r   t i m e  s t e p    4001                              ( at time 1.9997999E+00 )

 nodal point  x-rot      y-rot       z-rot       x-rot vel   y-rot vel   z-rot vel   x-rot acc   y-rot acc   z-rot acc
    22626 -2.43976E-04-2.22629E-05-2.65582E-05-2.56168E-04-3.06007E-05-3.60477E-05-1.22655E-04-6.10907E-05 3.15101E-05



 n o d a l   p r i n t   o u t   f o r   t i m e  s t e p    4201                              ( at time 2.0997899E+00 )

 nodal point  x-disp     y-disp      z-disp      x-vel       y-vel       z-vel      x-accl      y-accl      z-accl      x-coor      y-coor      z-coor
    22626 -7.33582E-06 5.00543E-02-9.89636E-02-6.49187E-05 4.04019E-02-8.28196E-02-2.20324E-03 9.98042E-03-2.30184E-02 4.65937E+00-2.81408E+01-4.50807E+01



 n o d a l   p r i n t   o u t   f o r   t i m e  s t e p    4201                              ( at time 2.0997899E+00 )

 nodal point  x-rot      y-rot       z-rot       x-rot vel   y-rot vel   z-rot vel   x-rot acc   y-rot acc   z-rot acc
    22626 -2.69049E-04-2.52971E-05-3.07449E-05-2.51967E-04-3.50582E-05-4.09927E-05 4.20115E-05-4.45793E-05-4.94549E-05



 n o d a l   p r i n t   o u t   f o r   t i m e  s t e p    4401                              ( at time 2.1997798E+00 )

 nodal point  x-disp     y-disp      z-disp      x-vel       y-vel       z-vel      x-accl      y-accl      z-accl      x-coor      y-coor      z-coor
    22626  4.43785E-05 5.41139E-02-1.07343E-01 1.14493E-03 4.07807E-02-8.44248E-02 1.20997E-02 3.78822E-03-1.60531E-02 4.65942E+00-2.81367E+01-4.50891E+01



 n o d a l   p r i n t   o u t   f o r   t i m e  s t e p    4401                              ( at time 2.1997798E+00 )

 nodal point  x-rot      y-rot       z-rot       x-rot vel   y-rot vel   z-rot vel   x-rot acc   y-rot acc   z-rot acc
    22626 -2.95041E-04-2.91728E-05-3.46779E-05-2.66998E-04-4.06936E-05-3.73606E-05-1.50329E-04-5.63598E-05 3.63243E-05



 n o d a l   p r i n t   o u t   f o r   t i m e  s t e p    4601                              ( at time 2.2997698E+00 )

 nodal point  x-disp     y-disp      z-disp      x-vel       y-vel       z-vel      x-accl      y-accl      z-accl      x-coor      y-coor      z-coor
    22626  1.55471E-04 5.82100E-02-1.15856E-01 1.05732E-03 4.16309E-02-8.66381E-02-8.76123E-04 8.50251E-03-2.21351E-02 4.65953E+00-2.81326E+01-4.50976E+01



 n o d a l   p r i n t   o u t   f o r   t i m e  s t e p    4601                              ( at time 2.2997698E+00 )

 nodal point  x-rot      y-rot       z-rot       x-rot vel   y-rot vel   z-rot vel   x-rot acc   y-rot acc   z-rot acc
    22626 -3.22393E-04-3.31956E-05-3.81970E-05-2.68559E-04-3.95258E-05-3.06407E-05-1.56026E-05 1.16790E-05 6.72060E-05



 n o d a l   p r i n t   o u t   f o r   t i m e  s t e p    4801                              ( at time 2.3997598E+00 )

 nodal point  x-disp     y-disp      z-disp      x-vel       y-vel       z-vel      x-accl      y-accl      z-accl      x-coor      y-coor      z-coor
    22626  2.36703E-04 6.24535E-02-1.24802E-01 4.47863E-04 4.30937E-02-9.17342E-02-6.09522E-03 1.46296E-02-5.09662E-02 4.65961E+00-2.81284E+01-4.51065E+01



 n o d a l   p r i n t   o u t   f o r   t i m e  s t e p    4801                              ( at time 2.3997598E+00 )

 nodal point  x-rot      y-rot       z-rot       x-rot vel   y-rot vel   z-rot vel   x-rot acc   y-rot acc   z-rot acc
    22626 -3.49990E-04-3.70816E-05-4.13625E-05-2.71825E-04-3.35177E-05-2.74371E-05-3.26689E-05 6.00869E-05 3.20390E-05



 n o d a l   p r i n t   o u t   f o r   t i m e  s t e p    5001                              ( at time 2.4997498E+00 )

 nodal point  x-disp     y-disp      z-disp      x-vel       y-vel       z-vel      x-accl      y-accl      z-accl      x-coor      y-coor      z-coor
    22626  2.03140E-04 6.68785E-02-1.34153E-01-9.43440E-04 4.46220E-02-9.50015E-02-1.39144E-02 1.52844E-02-3.26766E-02 4.65958E+00-2.81240E+01-4.51159E+01



 n o d a l   p r i n t   o u t   f o r   t i m e  s t e p    5001                              ( at time 2.4997498E+00 )

 nodal point  x-rot      y-rot       z-rot       x-rot vel   y-rot vel   z-rot vel   x-rot acc   y-rot acc   z-rot acc
    22626 -3.77228E-04-3.86542E-05-4.39684E-05-2.70755E-04-2.22721E-06-2.39977E-05 1.07002E-05 3.12936E-04 3.43979E-05



 n o d a l   p r i n t   o u t   f o r   t i m e  s t e p    5201                              ( at time 2.5997398E+00 )

 nodal point  x-disp     y-disp      z-disp      x-vel       y-vel       z-vel      x-accl      y-accl      z-accl      x-coor      y-coor      z-coor
    22626  7.20233E-05 7.13843E-02-1.43667E-01-1.82657E-03 4.52000E-02-9.52991E-02-8.83215E-03 5.78041E-03-2.97629E-03 4.65945E+00-2.81194E+01-4.51254E+01



 n o d a l   p r i n t   o u t   f o r   t i m e  s t e p    5201                              ( at time 2.5997398E+00 )

 nodal point  x-rot      y-rot       z-rot       x-rot vel   y-rot vel   z-rot vel   x-rot acc   y-rot acc   z-rot acc
    22626 -4.03790E-04-3.87280E-05-4.62121E-05-2.59478E-04-3.50793E-06-1.82524E-05 1.12783E-04-1.28085E-05 5.74580E-05



 n o d a l   p r i n t   o u t   f o r   t i m e  s t e p    5401                              ( at time 2.6997298E+00 )

 nodal point  x-disp     y-disp      z-disp      x-vel       y-vel       z-vel      x-accl      y-accl      z-accl      x-coor      y-coor      z-coor
    22626 -6.65853E-05 7.58660E-02-1.53231E-01-4.34812E-04 4.45809E-02-9.57626E-02 1.39189E-02-6.19137E-03-4.63524E-03 4.65931E+00-2.81150E+01-4.51349E+01



 n o d a l   p r i n t   o u t   f o r   t i m e  s t e p    5401                              ( at time 2.6997298E+00 )

 nodal point  x-rot      y-rot       z-rot       x-rot vel   y-rot vel   z-rot vel   x-rot acc   y-rot acc   z-rot acc
    22626 -4.31522E-04-3.93671E-05-4.80681E-05-2.79930E-04-9.05831E-06-1.71048E-05-2.04541E-04-5.55093E-05 1.14781E-05



 n o d a l   p r i n t   o u t   f o r   t i m e  s t e p    5601                              ( at time 2.7997198E+00 )

 nodal point  x-disp     y-disp      z-disp      x-vel       y-vel       z-vel      x-accl      y-accl      z-accl      x-coor      y-coor      z-coor
    22626 -5.26580E-05 8.03648E-02-1.62893E-01 8.05932E-04 4.53113E-02-9.74192E-02 1.24087E-02 7.30506E-03-1.65674E-02 4.65932E+00-2.81105E+01-4.51446E+01



 n o d a l   p r i n t   o u t   f o r   t i m e  s t e p    5601                              ( at time 2.7997198E+00 )

 nodal point  x-rot      y-rot       z-rot       x-rot vel   y-rot vel   z-rot vel   x-rot acc   y-rot acc   z-rot acc
    22626 -4.59420E-04-4.10896E-05-5.00794E-05-2.67165E-04-2.63571E-05-2.57363E-05 1.27664E-04-1.73005E-04-8.63245E-05



 n o d a l   p r i n t   o u t   f o r   t i m e  s t e p    5801                              ( at time 2.8997098E+00 )

 nodal point  x-disp     y-disp      z-disp      x-vel       y-vel       z-vel      x-accl      y-accl      z-accl      x-coor      y-coor      z-coor
    22626  1.67904E-05 8.48712E-02-1.72773E-01 4.11145E-04 4.52412E-02-1.00216E-01-3.94827E-03-7.01245E-04-2.79678E-02 4.65939E+00-2.81060E+01-4.51545E+01



 n o d a l   p r i n t   o u t   f o r   t i m e  s t e p    5801                              ( at time 2.8997098E+00 )

 nodal point  x-rot      y-rot       z-rot       x-rot vel   y-rot vel   z-rot vel   x-rot acc   y-rot acc   z-rot acc
    22626 -4.85766E-04-4.38208E-05-5.29787E-05-2.66751E-04-2.67529E-05-2.52743E-05 4.14131E-06-3.95856E-06 4.62054E-06



 n o d a l   p r i n t   o u t   f o r   t i m e  s t e p    6001                              ( at time 2.9996998E+00 )

 nodal point  x-disp     y-disp      z-disp      x-vel       y-vel       z-vel      x-accl      y-accl      z-accl      x-coor      y-coor      z-coor
    22626  1.27415E-05 8.93413E-02-1.82833E-01-7.29961E-04 4.42244E-02-1.00569E-01-1.14122E-02-1.01693E-02-3.53431E-03 4.65939E+00-2.81015E+01-4.51646E+01



 n o d a l   p r i n t   o u t   f o r   t i m e  s t e p    6001                              ( at time 2.9996998E+00 )

 nodal point  x-rot      y-rot       z-rot       x-rot vel   y-rot vel   z-rot vel   x-rot acc   y-rot acc   z-rot acc
    22626 -5.13442E-04-4.56642E-05-5.59144E-05-2.82310E-04-1.78503E-05-2.89968E-05-1.55610E-04 8.90344E-05-3.72280E-05



 n o d a l   p r i n t   o u t   f o r   t i m e  s t e p    6201                              ( at time 3.0996898E+00 )

 nodal point  x-disp     y-disp      z-disp      x-vel       y-vel       z-vel      x-accl      y-accl      z-accl      x-coor      y-coor      z-coor
    22626 -7.22419E-05 9.37510E-02-1.92834E-01-3.65695E-04 4.42044E-02-9.96889E-02 3.64303E-03-1.99621E-04 8.80219E-03 4.65930E+00-2.80971E+01-4.51746E+01



 n o d a l   p r i n t   o u t   f o r   t i m e  s t e p    6201                              ( at time 3.0996898E+00 )

 nodal point  x-rot      y-rot       z-rot       x-rot vel   y-rot vel   z-rot vel   x-rot acc   y-rot acc   z-rot acc
    22626 -5.41860E-04-4.78629E-05-5.88253E-05-2.77752E-04-2.21417E-05-3.02068E-05 4.55908E-05-4.29183E-05-1.21014E-05



 n o d a l   p r i n t   o u t   f o r   t i m e  s t e p    6401                              ( at time 3.1996798E+00 )

 nodal point  x-disp     y-disp      z-disp      x-vel       y-vel       z-vel      x-accl      y-accl      z-accl      x-coor      y-coor      z-coor
    22626 -1.03087E-04 9.82049E-02-2.02974E-01-1.94701E-04 4.47562E-02-1.02826E-01 1.71012E-03 5.51874E-03-3.13696E-02 4.65927E+00-2.80926E+01-4.51847E+01



 n o d a l   p r i n t   o u t   f o r   t i m e  s t e p    6401                              ( at time 3.1996798E+00 )

 nodal point  x-rot      y-rot       z-rot       x-rot vel   y-rot vel   z-rot vel   x-rot acc   y-rot acc   z-rot acc
    22626 -5.70394E-04-4.92907E-05-6.12263E-05-2.78219E-04-1.22810E-05-2.12033E-05-4.67075E-06 9.86171E-05 9.00439E-05



 n o d a l   p r i n t   o u t   f o r   t i m e  s t e p    6601                              ( at time 3.2996698E+00 )

 nodal point  x-disp     y-disp      z-disp      x-vel       y-vel       z-vel      x-accl      y-accl      z-accl      x-coor      y-coor      z-coor
    22626 -1.02630E-04 1.02691E-01-2.13396E-01-3.80733E-04 4.48693E-02-1.05474E-01-1.86051E-03 1.13096E-03-2.64901E-02 4.65927E+00-2.80881E+01-4.51951E+01



 n o d a l   p r i n t   o u t   f o r   t i m e  s t e p    6601                              ( at time 3.2996698E+00 )

 nodal point  x-rot      y-rot       z-rot       x-rot vel   y-rot vel   z-rot vel   x-rot acc   y-rot acc   z-rot acc
    22626 -5.98126E-04-5.05183E-05-6.37569E-05-2.81618E-04-1.70503E-05-2.89708E-05-3.39993E-05-4.76978E-05-7.76829E-05



 n o d a l   p r i n t   o u t   f o r   t i m e  s t e p    6801                              ( at time 3.3996598E+00 )

 nodal point  x-disp     y-disp      z-disp      x-vel       y-vel       z-vel      x-accl      y-accl      z-accl      x-coor      y-coor      z-coor
    22626 -1.52480E-04 1.07164E-01-2.23952E-01-3.31748E-04 4.43356E-02-1.06150E-01 4.89902E-04-5.33816E-03-6.76155E-03 4.65922E+00-2.80837E+01-4.52057E+01



 n o d a l   p r i n t   o u t   f o r   t i m e  s t e p    6801                              ( at time 3.3996598E+00 )

 nodal point  x-rot      y-rot       z-rot       x-rot vel   y-rot vel   z-rot vel   x-rot acc   y-rot acc   z-rot acc
    22626 -6.25990E-04-5.29933E-05-6.65536E-05-2.81271E-04-2.15999E-05-2.53954E-05 3.47418E-06-4.55004E-05 3.57571E-05



 n o d a l   p r i n t   o u t   f o r   t i m e  s t e p    7001                              ( at time 3.4996498E+00 )

 nodal point  x-disp     y-disp      z-disp      x-vel       y-vel       z-vel      x-accl      y-accl      z-accl      x-coor      y-coor      z-coor
    22626 -1.56980E-04 1.11548E-01-2.34502E-01-9.57717E-05 4.34011E-02-1.04864E-01 2.36000E-03-9.34591E-03 1.28686E-02 4.65922E+00-2.80793E+01-4.52162E+01



 n o d a l   p r i n t   o u t   f o r   t i m e  s t e p    7001                              ( at time 3.4996498E+00 )

 nodal point  x-rot      y-rot       z-rot       x-rot vel   y-rot vel   z-rot vel   x-rot acc   y-rot acc   z-rot acc
    22626 -6.54665E-04-5.46967E-05-6.90419E-05-2.80301E-04-2.61684E-06-2.24511E-05 9.69925E-06 1.89850E-04 2.94459E-05



 n o d a l   p r i n t   o u t   f o r   t i m e  s t e p    7201                              ( at time 3.5996397E+00 )

 nodal point  x-disp     y-disp      z-disp      x-vel       y-vel       z-vel      x-accl      y-accl      z-accl      x-coor      y-coor      z-coor
    22626 -2.47303E-04 1.15836E-01-2.44960E-01-1.45208E-03 4.23039E-02-1.04130E-01-1.35645E-02-1.09733E-02 7.33919E-03 4.65913E+00-2.80750E+01-4.52267E+01



 n o d a l   p r i n t   o u t   f o r   t i m e  s t e p    7201                              ( at time 3.5996397E+00 )

 nodal point  x-rot      y-rot       z-rot       x-rot vel   y-rot vel   z-rot vel   x-rot acc   y-rot acc   z-rot acc
    22626 -6.83413E-04-5.48731E-05-7.12321E-05-2.80308E-04-7.86792E-06-2.66038E-05-6.75277E-08-5.25161E-05-4.15306E-05



 n o d a l   p r i n t   o u t   f o r   t i m e  s t e p    7401                              ( at time 3.6996297E+00 )

 nodal point  x-disp     y-disp      z-disp      x-vel       y-vel       z-vel      x-accl      y-accl      z-accl      x-coor      y-coor      z-coor
    22626 -3.32548E-04 1.20008E-01-2.55423E-01-3.47296E-04 4.08493E-02-1.04968E-01 1.10490E-02-1.45467E-02-8.38638E-03 4.65904E+00-2.80708E+01-4.52371E+01



 n o d a l   p r i n t   o u t   f o r   t i m e  s t e p    7401                              ( at time 3.6996297E+00 )

 nodal point  x-rot      y-rot       z-rot       x-rot vel   y-rot vel   z-rot vel   x-rot acc   y-rot acc   z-rot acc
    22626 -7.12368E-04-5.60879E-05-7.39224E-05-2.88335E-04-1.54922E-05-3.41835E-05-8.02783E-05-7.62506E-05-7.58048E-05



 n o d a l   p r i n t   o u t   f o r   t i m e  s t e p    7601                              ( at time 3.7996197E+00 )

 nodal point  x-disp     y-disp      z-disp      x-vel       y-vel       z-vel      x-accl      y-accl      z-accl      x-coor      y-coor      z-coor
    22626 -3.60301E-04 1.24039E-01-2.65938E-01 4.81074E-05 4.00636E-02-1.05117E-01 3.95443E-03-7.85829E-03-1.49049E-03 4.65901E+00-2.80668E+01-4.52477E+01



 n o d a l   p r i n t   o u t   f o r   t i m e  s t e p    7601                              ( at time 3.7996197E+00 )

 nodal point  x-rot      y-rot       z-rot       x-rot vel   y-rot vel   z-rot vel   x-rot acc   y-rot acc   z-rot acc
    22626 -7.40911E-04-5.72938E-05-7.61485E-05-2.81106E-04-1.23499E-05-2.39559E-05 7.23012E-05 3.14268E-05 1.02286E-04



 n o d a l   p r i n t   o u t   f o r   t i m e  s t e p    7801                              ( at time 3.8996097E+00 )

 nodal point  x-disp     y-disp      z-disp      x-vel       y-vel       z-vel      x-accl      y-accl      z-accl      x-coor      y-coor      z-coor
    22626 -3.41808E-04 1.27950E-01-2.76385E-01-1.14025E-04 3.81558E-02-1.03730E-01-1.62148E-03-1.90801E-02 1.38744E-02 4.65903E+00-2.80629E+01-4.52581E+01



 n o d a l   p r i n t   o u t   f o r   t i m e  s t e p    7801                              ( at time 3.8996097E+00 )

 nodal point  x-rot      y-rot       z-rot       x-rot vel   y-rot vel   z-rot vel   x-rot acc   y-rot acc   z-rot acc
    22626 -7.69219E-04-5.89547E-05-7.88811E-05-2.90481E-04-1.21815E-05-2.73153E-05-9.37611E-05 1.68409E-06-3.35977E-05



 n o d a l   p r i n t   o u t   f o r   t i m e  s t e p    8001                              ( at time 3.9995997E+00 )

 nodal point  x-disp     y-disp      z-disp      x-vel       y-vel       z-vel      x-accl      y-accl      z-accl      x-coor      y-coor      z-coor
    22626 -3.51377E-04 1.31702E-01-2.86654E-01 1.51404E-04 3.69701E-02-1.01623E-01 2.65456E-03-1.18575E-02 2.10701E-02 4.65902E+00-2.80591E+01-4.52684E+01



 n o d a l   p r i n t   o u t   f o r   t i m e  s t e p    8001                              ( at time 3.9995997E+00 )

 nodal point  x-rot      y-rot       z-rot       x-rot vel   y-rot vel   z-rot vel   x-rot acc   y-rot acc   z-rot acc
    22626 -7.98513E-04-6.00798E-05-8.16329E-05-2.87751E-04-8.76437E-06-2.42658E-05 2.73051E-05 3.41745E-05 3.04986E-05



 n o d a l   p r i n t   o u t   f o r   t i m e  s t e p    8201                              ( at time 4.0995897E+00 )

 nodal point  x-disp     y-disp      z-disp      x-vel       y-vel       z-vel      x-accl      y-accl      z-accl      x-coor      y-coor      z-coor
    22626 -4.08718E-04 1.35308E-01-2.96778E-01-1.17661E-03 3.53089E-02-1.01408E-01-1.32815E-02-1.66136E-02 2.15410E-03 4.65897E+00-2.80555E+01-4.52785E+01



 n o d a l   p r i n t   o u t   f o r   t i m e  s t e p    8201                              ( at time 4.0995897E+00 )

 nodal point  x-rot      y-rot       z-rot       x-rot vel   y-rot vel   z-rot vel   x-rot acc   y-rot acc   z-rot acc
    22626 -8.25825E-04-6.05313E-05-8.35228E-05-2.67583E-04-2.09440E-06-1.87859E-05 2.01696E-04 6.67063E-05 5.48047E-05



 n o d a l   p r i n t   o u t   f o r   t i m e  s t e p    8401                              ( at time 4.1995797E+00 )

 nodal point  x-disp     y-disp      z-disp      x-vel       y-vel       z-vel      x-accl      y-accl      z-accl      x-coor      y-coor      z-coor
    22626 -5.30692E-04 1.38820E-01-3.06893E-01-1.58652E-03 3.41061E-02-1.01071E-01-4.09943E-03-1.20296E-02 3.36517E-03 4.65884E+00-2.80520E+01-4.52886E+01



 n o d a l   p r i n t   o u t   f o r   t i m e  s t e p    8401                              ( at time 4.1995797E+00 )

 nodal point  x-rot      y-rot       z-rot       x-rot vel   y-rot vel   z-rot vel   x-rot acc   y-rot acc   z-rot acc
    22626 -8.52296E-04-5.93628E-05-8.47782E-05-2.69266E-04 1.51936E-05-1.00316E-05-1.68284E-05 1.72898E-04 8.75519E-05



 n o d a l   p r i n t   o u t   f o r   t i m e  s t e p    8601                              ( at time 4.2995697E+00 )

 nodal point  x-disp     y-disp      z-disp      x-vel       y-vel       z-vel      x-accl      y-accl      z-accl      x-coor      y-coor      z-coor
    22626 -6.59307E-04 1.42174E-01-3.16916E-01-1.25783E-03 3.27215E-02-9.95111E-02 3.28719E-03-1.38469E-02 1.56053E-02 4.65872E+00-2.80487E+01-4.52986E+01



 n o d a l   p r i n t   o u t   f o r   t i m e  s t e p    8601                              ( at time 4.2995697E+00 )

 nodal point  x-rot      y-rot       z-rot       x-rot vel   y-rot vel   z-rot vel   x-rot acc   y-rot acc   z-rot acc
    22626 -8.78350E-04-5.79669E-05-8.56262E-05-2.55816E-04 1.80175E-05-6.38728E-06 1.34504E-04 2.82410E-05 3.64464E-05



 n o d a l   p r i n t   o u t   f o r   t i m e  s t e p    8801                              ( at time 4.3995597E+00 )

 nodal point  x-disp     y-disp      z-disp      x-vel       y-vel       z-vel      x-accl      y-accl      z-accl      x-coor      y-coor      z-coor
    22626 -7.58274E-04 1.45348E-01-3.26674E-01-5.03497E-04 3.03398E-02-9.58585E-02 7.54409E-03-2.38200E-02 3.65296E-02 4.65862E+00-2.80455E+01-4.53084E+01



 n o d a l   p r i n t   o u t   f o r   t i m e  s t e p    8801                              ( at time 4.3995597E+00 )

 nodal point  x-rot      y-rot       z-rot       x-rot vel   y-rot vel   z-rot vel   x-rot acc   y-rot acc   z-rot acc
    22626 -9.02930E-04-5.69081E-05-8.66189E-05-2.40682E-04 1.50154E-05-7.97745E-06 1.51363E-04-3.00240E-05-1.59033E-05



 n o d a l   p r i n t   o u t   f o r   t i m e  s t e p    9001                              ( at time 4.4995497E+00 )

 nodal point  x-disp     y-disp      z-disp      x-vel       y-vel       z-vel      x-accl      y-accl      z-accl      x-coor      y-coor      z-coor
    22626 -8.18072E-04 1.48302E-01-3.36199E-01-7.75186E-04 2.93094E-02-9.47050E-02-2.71714E-03-1.03052E-02 1.15359E-02 4.65856E+00-2.80425E+01-4.53179E+01



 n o d a l   p r i n t   o u t   f o r   t i m e  s t e p    9001                              ( at time 4.4995497E+00 )

 nodal point  x-rot      y-rot       z-rot       x-rot vel   y-rot vel   z-rot vel   x-rot acc   y-rot acc   z-rot acc
    22626 -9.27322E-04-5.59118E-05-8.75445E-05-2.38475E-04 4.84422E-06-7.85287E-06 2.20733E-05-1.01721E-04 1.24591E-06



 n o d a l   p r i n t   o u t   f o r   t i m e  s t e p    9201                              ( at time 4.5995397E+00 )

 nodal point  x-disp     y-disp      z-disp      x-vel       y-vel       z-vel      x-accl      y-accl      z-accl      x-coor      y-coor      z-coor
    22626 -9.17984E-04 1.51135E-01-3.45645E-01-1.27510E-03 2.72118E-02-9.37296E-02-4.99963E-03-2.09772E-02 9.75499E-03 4.65846E+00-2.80397E+01-4.53274E+01



 n o d a l   p r i n t   o u t   f o r   t i m e  s t e p    9201                              ( at time 4.5995397E+00 )

 nodal point  x-rot      y-rot       z-rot       x-rot vel   y-rot vel   z-rot vel   x-rot acc   y-rot acc   z-rot acc
    22626 -9.50357E-04-5.48430E-05-8.83407E-05-2.22164E-04 9.11822E-06-1.76850E-05 1.63121E-04 4.27443E-05-9.83314E-05



 n o d a l   p r i n t   o u t   f o r   t i m e  s t e p    9401                              ( at time 4.6995297E+00 )

 nodal point  x-disp     y-disp      z-disp      x-vel       y-vel       z-vel      x-accl      y-accl      z-accl      x-coor      y-coor      z-coor
    22626 -1.02816E-03 1.53736E-01-3.54918E-01-4.39558E-04 2.53381E-02-9.18070E-02 8.35625E-03-1.87392E-02 1.92278E-02 4.65835E+00-2.80371E+01-4.53366E+01



 n o d a l   p r i n t   o u t   f o r   t i m e  s t e p    9401                              ( at time 4.6995297E+00 )

 nodal point  x-rot      y-rot       z-rot       x-rot vel   y-rot vel   z-rot vel   x-rot acc   y-rot acc   z-rot acc
    22626 -9.71721E-04-5.40524E-05-9.04914E-05-2.16448E-04-6.73660E-07-2.29572E-05 5.71634E-05-9.79287E-05-5.27274E-05



 n o d a l   p r i n t   o u t   f o r   t i m e  s t e p    9601                              ( at time 4.7995197E+00 )

 nodal point  x-disp     y-disp      z-disp      x-vel       y-vel       z-vel      x-accl      y-accl      z-accl      x-coor      y-coor      z-coor
    22626 -1.04003E-03 1.56135E-01-3.63963E-01-5.88750E-05 2.29667E-02-8.89844E-02 3.80721E-03-2.37162E-02 2.82295E-02 4.65833E+00-2.80347E+01-4.53457E+01



 n o d a l   p r i n t   o u t   f o r   t i m e  s t e p    9601                              ( at time 4.7995197E+00 )

 nodal point  x-rot      y-rot       z-rot       x-rot vel   y-rot vel   z-rot vel   x-rot acc   y-rot acc   z-rot acc
    22626 -9.93007E-04-5.49003E-05-9.24219E-05-2.21468E-04-8.80976E-06-9.72069E-06-5.01964E-05-8.13692E-05 1.32379E-04



 n o d a l   p r i n t   o u t   f o r   t i m e  s t e p    9801                              ( at time 4.8995097E+00 )

 nodal point  x-disp     y-disp      z-disp      x-vel       y-vel       z-vel      x-accl      y-accl      z-accl      x-coor      y-coor      z-coor
    22626 -1.01009E-03 1.58328E-01-3.72694E-01 4.47368E-04 2.12562E-02-8.59613E-02 5.06294E-03-1.71075E-02 3.02336E-02 4.65836E+00-2.80325E+01-4.53544E+01



 n o d a l   p r i n t   o u t   f o r   t i m e  s t e p    9801                              ( at time 4.8995097E+00 )

 nodal point  x-rot      y-rot       z-rot       x-rot vel   y-rot vel   z-rot vel   x-rot acc   y-rot acc   z-rot acc
    22626 -1.01352E-03-5.59132E-05-9.45691E-05-2.01181E-04-8.45759E-06-3.01990E-05 2.02887E-04 3.52201E-06-2.04804E-04



 n o d a l   p r i n t   o u t   f o r   t i m e  s t e p   10001                              ( at time 4.9994997E+00 )

 nodal point  x-disp     y-disp      z-disp      x-vel       y-vel       z-vel      x-accl      y-accl      z-accl      x-coor      y-coor      z-coor
    22626 -9.98165E-04 1.60358E-01-3.81194E-01-9.90976E-05 1.98212E-02-8.46907E-02-5.46518E-03-1.43506E-02 1.27076E-02 4.65838E+00-2.80305E+01-4.53629E+01



 n o d a l   p r i n t   o u t   f o r   t i m e  s t e p   10001                              ( at time 4.9994997E+00 )

 nodal point  x-rot      y-rot       z-rot       x-rot vel   y-rot vel   z-rot vel   x-rot acc   y-rot acc   z-rot acc
    22626 -1.03207E-03-5.68524E-05-9.74129E-05-1.84852E-04-1.31695E-05-2.38963E-05 1.63308E-04-4.71233E-05 6.30335E-05



 n o d a l   p r i n t   o u t   f o r   t i m e  s t e p   10202                              ( at time 5.0999896E+00 )

 nodal point  x-disp     y-disp      z-disp      x-vel       y-vel       z-vel      x-accl      y-accl      z-accl      x-coor      y-coor      z-coor
    22626 -1.03535E-03 1.62332E-01-3.89632E-01-7.09508E-04 1.90690E-02-8.34973E-02-6.07437E-03-7.48598E-03 1.18751E-02 4.65834E+00-2.80285E+01-4.53714E+01



 n o d a l   p r i n t   o u t   f o r   t i m e  s t e p   10202                              ( at time 5.0999896E+00 )

 nodal point  x-rot      y-rot       z-rot       x-rot vel   y-rot vel   z-rot vel   x-rot acc   y-rot acc   z-rot acc
    22626 -1.05013E-03-5.76244E-05-9.91676E-05-1.90090E-04-6.35006E-06-1.83773E-05-5.21314E-05 6.78619E-05 5.49213E-05



 n o d a l   p r i n t   o u t   f o r   t i m e  s t e p   10402                              ( at time 5.1999796E+00 )

 nodal point  x-disp     y-disp      z-disp      x-vel       y-vel       z-vel      x-accl      y-accl      z-accl      x-coor      y-coor      z-coor
    22626 -1.06669E-03 1.64220E-01-3.97817E-01 9.55877E-05 1.85483E-02-8.01213E-02 8.05174E-03-5.20734E-03 3.37633E-02 4.65831E+00-2.80266E+01-4.53795E+01



 n o d a l   p r i n t   o u t   f o r   t i m e  s t e p   10402                              ( at time 5.1999796E+00 )

 nodal point  x-rot      y-rot       z-rot       x-rot vel   y-rot vel   z-rot vel   x-rot acc   y-rot acc   z-rot acc
    22626 -1.06817E-03-5.87025E-05-1.01826E-04-1.78866E-04-1.38901E-05-3.23642E-05 1.12258E-04-7.54075E-05-1.39883E-04



 n o d a l   p r i n t   o u t   f o r   t i m e  s t e p   10602                              ( at time 5.2999696E+00 )

 nodal point  x-disp     y-disp      z-disp      x-vel       y-vel       z-vel      x-accl      y-accl      z-accl      x-coor      y-coor      z-coor
    22626 -1.04824E-03 1.66044E-01-4.05689E-01 7.91449E-04 1.80390E-02-7.73168E-02 6.95931E-03-5.09304E-03 2.80485E-02 4.65833E+00-2.80248E+01-4.53874E+01



 n o d a l   p r i n t   o u t   f o r   t i m e  s t e p   10602                              ( at time 5.2999696E+00 )

 nodal point  x-rot      y-rot       z-rot       x-rot vel   y-rot vel   z-rot vel   x-rot acc   y-rot acc   z-rot acc
    22626 -1.08642E-03-6.09275E-05-1.04782E-04-1.83258E-04-1.86267E-05-2.77721E-05-4.39297E-05-4.73712E-05 4.59265E-05



 n o d a l   p r i n t   o u t   f o r   t i m e  s t e p   10802                              ( at time 5.3999596E+00 )

 nodal point  x-disp     y-disp      z-disp      x-vel       y-vel       z-vel      x-accl      y-accl      z-accl      x-coor      y-coor      z-coor
    22626 -9.75827E-04 1.67914E-01-4.13359E-01 5.66005E-04 1.94768E-02-7.58344E-02-2.25467E-03 1.43789E-02 1.48247E-02 4.65840E+00-2.80229E+01-4.53951E+01



 n o d a l   p r i n t   o u t   f o r   t i m e  s t e p   10802                              ( at time 5.3999596E+00 )

 nodal point  x-rot      y-rot       z-rot       x-rot vel   y-rot vel   z-rot vel   x-rot acc   y-rot acc   z-rot acc
    22626 -1.10475E-03-6.29597E-05-1.08095E-04-1.83202E-04-2.59149E-05-3.60787E-05 5.57104E-07-7.28890E-05-8.30745E-05



 n o d a l   p r i n t   o u t   f o r   t i m e  s t e p   11002                              ( at time 5.4999496E+00 )

 nodal point  x-disp     y-disp      z-disp      x-vel       y-vel       z-vel      x-accl      y-accl      z-accl      x-coor      y-coor      z-coor
    22626 -9.29757E-04 1.69895E-01-4.20855E-01 3.28033E-04 2.03655E-02-7.40839E-02-2.37996E-03 8.88847E-03 1.75070E-02 4.65845E+00-2.80209E+01-4.54026E+01



 n o d a l   p r i n t   o u t   f o r   t i m e  s t e p   11002                              ( at time 5.4999496E+00 )

 nodal point  x-rot      y-rot       z-rot       x-rot vel   y-rot vel   z-rot vel   x-rot acc   y-rot acc   z-rot acc
    22626 -1.12265E-03-6.62470E-05-1.12042E-04-1.87230E-04-3.88822E-05-3.81807E-05-4.02768E-05-1.29686E-04-2.10228E-05



 n o d a l   p r i n t   o u t   f o r   t i m e  s t e p   11202                              ( at time 5.5999396E+00 )

 nodal point  x-disp     y-disp      z-disp      x-vel       y-vel       z-vel      x-accl      y-accl      z-accl      x-coor      y-coor      z-coor
    22626 -8.91938E-04 1.72005E-01-4.28104E-01 5.28676E-04 2.22222E-02-7.08696E-02 2.00663E-03 1.85688E-02 3.21461E-02 4.65848E+00-2.80188E+01-4.54098E+01



 n o d a l   p r i n t   o u t   f o r   t i m e  s t e p   11202                              ( at time 5.5999396E+00 )

 nodal point  x-rot      y-rot       z-rot       x-rot vel   y-rot vel   z-rot vel   x-rot acc   y-rot acc   z-rot acc
    22626 -1.14127E-03-6.97149E-05-1.16187E-04-1.98735E-04-3.44657E-05-4.25889E-05-1.15068E-04 4.41692E-05-4.40864E-05



 n o d a l   p r i n t   o u t   f o r   t i m e  s t e p   11402                              ( at time 5.6999296E+00 )

 nodal point  x-disp     y-disp      z-disp      x-vel       y-vel       z-vel      x-accl      y-accl      z-accl      x-coor      y-coor      z-coor
    22626 -7.80279E-04 1.74295E-01-4.34958E-01 1.63683E-03 2.41169E-02-6.60991E-02 1.10826E-02 1.89484E-02 4.77104E-02 4.65859E+00-2.80165E+01-4.54167E+01



 n o d a l   p r i n t   o u t   f o r   t i m e  s t e p   11402                              ( at time 5.6999296E+00 )

 nodal point  x-rot      y-rot       z-rot       x-rot vel   y-rot vel   z-rot vel   x-rot acc   y-rot acc   z-rot acc
    22626 -1.16214E-03-7.31266E-05-1.20072E-04-2.24848E-04-2.97420E-05-3.19978E-05-2.61156E-04 4.72422E-05 1.05921E-04



 n o d a l   p r i n t   o u t   f o r   t i m e  s t e p   11602                              ( at time 5.7999195E+00 )

 nodal point  x-disp     y-disp      z-disp      x-vel       y-vel       z-vel      x-accl      y-accl      z-accl      x-coor      y-coor      z-coor
    22626 -6.54408E-04 1.76846E-01-4.41366E-01 1.11834E-03 2.70879E-02-6.23177E-02-5.18537E-03 2.97129E-02 3.78174E-02 4.65872E+00-2.80140E+01-4.54231E+01



 n o d a l   p r i n t   o u t   f o r   t i m e  s t e p   11602                              ( at time 5.7999195E+00 )

 nodal point  x-rot      y-rot       z-rot       x-rot vel   y-rot vel   z-rot vel   x-rot acc   y-rot acc   z-rot acc
    22626 -1.18613E-03-7.61373E-05-1.23220E-04-2.55547E-04-3.07163E-05-4.00931E-05-3.07020E-04-9.74407E-06-8.09608E-05



 n o d a l   p r i n t   o u t   f o r   t i m e  s t e p   11802                              ( at time 5.8999095E+00 )

 nodal point  x-disp     y-disp      z-disp      x-vel       y-vel       z-vel      x-accl      y-accl      z-accl      x-coor      y-coor      z-coor
    22626 -5.91624E-04 1.79781E-01-4.47492E-01 5.42977E-05 3.15107E-02-6.02039E-02-1.06415E-02 4.42329E-02 2.11404E-02 4.65878E+00-2.80110E+01-4.54292E+01



 n o d a l   p r i n t   o u t   f o r   t i m e  s t e p   11802                              ( at time 5.8999095E+00 )

 nodal point  x-rot      y-rot       z-rot       x-rot vel   y-rot vel   z-rot vel   x-rot acc   y-rot acc   z-rot acc
    22626 -1.21304E-03-7.95174E-05-1.27380E-04-2.86261E-04-3.30549E-05-4.22915E-05-3.07169E-04-2.33887E-05-2.19865E-05



 n o d a l   p r i n t   o u t   f o r   t i m e  s t e p   12002                              ( at time 5.9998995E+00 )

 nodal point  x-disp     y-disp      z-disp      x-vel       y-vel       z-vel      x-accl      y-accl      z-accl      x-coor      y-coor      z-coor
    22626 -6.13720E-04 1.83275E-01-4.53371E-01-4.91223E-04 3.76664E-02-5.69811E-02-5.45576E-03 6.15626E-02 3.22313E-02 4.65876E+00-2.80076E+01-4.54351E+01



 n o d a l   p r i n t   o u t   f o r   t i m e  s t e p   12002                              ( at time 5.9998995E+00 )

 nodal point  x-rot      y-rot       z-rot       x-rot vel   y-rot vel   z-rot vel   x-rot acc   y-rot acc   z-rot acc
    22626 -1.24436E-03-8.15452E-05-1.30520E-04-3.39841E-04-1.06188E-05-2.54214E-05-5.35853E-04 2.24384E-04 1.68718E-04



 n o d a l   p r i n t   o u t   f o r   t i m e  s t e p   12202                              ( at time 6.0998895E+00 )

 nodal point  x-disp     y-disp      z-disp      x-vel       y-vel       z-vel      x-accl      y-accl      z-accl      x-coor      y-coor      z-coor
    22626 -6.36219E-04 1.87411E-01-4.58901E-01-1.67135E-04 4.56183E-02-5.36020E-02 3.24120E-03 7.95267E-02 3.37943E-02 4.65874E+00-2.80034E+01-4.54406E+01



 n o d a l   p r i n t   o u t   f o r   t i m e  s t e p   12202                              ( at time 6.0998895E+00 )

 nodal point  x-rot      y-rot       z-rot       x-rot vel   y-rot vel   z-rot vel   x-rot acc   y-rot acc   z-rot acc
    22626 -1.28145E-03-8.27744E-05-1.33337E-04-4.06187E-04-1.52330E-05-3.17126E-05-6.63519E-04-4.61463E-05-6.29177E-05



 n o d a l   p r i n t   o u t   f o r   t i m e  s t e p   12402                              ( at time 6.1998795E+00 )

 nodal point  x-disp     y-disp      z-disp      x-vel       y-vel       z-vel      x-accl      y-accl      z-accl      x-coor      y-coor      z-coor
    22626 -6.62374E-04 1.92390E-01-4.64134E-01-4.59901E-04 5.44381E-02-5.11064E-02-2.92796E-03 8.82070E-02 2.49578E-02 4.65871E+00-2.79984E+01-4.54459E+01



 n o d a l   p r i n t   o u t   f o r   t i m e  s t e p   12402                              ( at time 6.1998795E+00 )

 nodal point  x-rot      y-rot       z-rot       x-rot vel   y-rot vel   z-rot vel   x-rot acc   y-rot acc   z-rot acc
    22626 -1.32526E-03-8.44447E-05-1.36473E-04-4.69972E-04-1.61446E-05-2.60345E-05-6.37921E-04-9.11663E-06 5.67866E-05



 n o d a l   p r i n t   o u t   f o r   t i m e  s t e p   12602                              ( at time 6.2998695E+00 )

 nodal point  x-disp     y-disp      z-disp      x-vel       y-vel       z-vel      x-accl      y-accl      z-accl      x-coor      y-coor      z-coor
    22626 -6.60795E-04 1.98349E-01-4.69196E-01 6.55638E-04 6.49163E-02-4.98844E-02 1.11565E-02 1.04793E-01 1.22218E-02 4.65871E+00-2.79925E+01-4.54509E+01



 n o d a l   p r i n t   o u t   f o r   t i m e  s t e p   12602                              ( at time 6.2998695E+00 )

 nodal point  x-rot      y-rot       z-rot       x-rot vel   y-rot vel   z-rot vel   x-rot acc   y-rot acc   z-rot acc
    22626 -1.37651E-03-8.54760E-05-1.38525E-04-5.42995E-04-5.70756E-06-2.71758E-05-7.30301E-04 1.04380E-04-1.14137E-05



 n o d a l   p r i n t   o u t   f o r   t i m e  s t e p   12802                              ( at time 6.3998595E+00 )

 nodal point  x-disp     y-disp      z-disp      x-vel       y-vel       z-vel      x-accl      y-accl      z-accl      x-coor      y-coor      z-coor
    22626 -6.05740E-04 2.05460E-01-4.74109E-01 1.43975E-04 7.74045E-02-4.80477E-02-5.11714E-03 1.24895E-01 1.83683E-02 4.65877E+00-2.79854E+01-4.54558E+01



 n o d a l   p r i n t   o u t   f o r   t i m e  s t e p   12802                              ( at time 6.3998595E+00 )

 nodal point  x-rot      y-rot       z-rot       x-rot vel   y-rot vel   z-rot vel   x-rot acc   y-rot acc   z-rot acc
    22626 -1.43563E-03-8.59758E-05-1.40527E-04-6.31292E-04-1.30264E-05-2.25349E-05-8.83064E-04-7.31956E-05 4.64135E-05



 n o d a l   p r i n t   o u t   f o r   t i m e  s t e p   13002                              ( at time 6.4998495E+00 )

 nodal point  x-disp     y-disp      z-disp      x-vel       y-vel       z-vel      x-accl      y-accl      z-accl      x-coor      y-coor      z-coor
    22626 -6.15728E-04 2.13836E-01-4.78787E-01-1.77960E-04 9.02679E-02-4.52028E-02-3.21968E-03 1.28646E-01 2.84522E-02 4.65876E+00-2.79770E+01-4.54605E+01



 n o d a l   p r i n t   o u t   f o r   t i m e  s t e p   13002                              ( at time 6.4998495E+00 )

 nodal point  x-rot      y-rot       z-rot       x-rot vel   y-rot vel   z-rot vel   x-rot acc   y-rot acc   z-rot acc
    22626 -1.50484E-03-8.77822E-05-1.43083E-04-7.41526E-04-2.32176E-05-3.08168E-05-1.10244E-03-1.01922E-04-8.28274E-05



 n o d a l   p r i n t   o u t   f o r   t i m e  s t e p   13202                              ( at time 6.5998395E+00 )

 nodal point  x-disp     y-disp      z-disp      x-vel       y-vel       z-vel      x-accl      y-accl      z-accl      x-coor      y-coor      z-coor
    22626 -6.34270E-04 2.23601E-01-4.83194E-01-1.93497E-04 1.05221E-01-4.32368E-02-1.55380E-04 1.49544E-01 1.96619E-02 4.65874E+00-2.79672E+01-4.54649E+01



 n o d a l   p r i n t   o u t   f o r   t i m e  s t e p   13202                              ( at time 6.5998395E+00 )

 nodal point  x-rot      y-rot       z-rot       x-rot vel   y-rot vel   z-rot vel   x-rot acc   y-rot acc   z-rot acc
    22626 -1.58409E-03-8.93212E-05-1.46100E-04-8.31633E-04-1.86260E-06-2.87489E-05-9.01165E-04 2.13570E-04 2.06807E-05



 n o d a l   p r i n t   o u t   f o r   t i m e  s t e p   13402                              ( at time 6.6998295E+00 )

 nodal point  x-disp     y-disp      z-disp      x-vel       y-vel       z-vel      x-accl      y-accl      z-accl      x-coor      y-coor      z-coor
    22626 -6.65327E-04 2.34982E-01-4.87509E-01-4.77015E-04 1.22222E-01-4.30481E-02-2.83547E-03 1.70027E-01 1.88716E-03 4.65871E+00-2.79558E+01-4.54692E+01



 n o d a l   p r i n t   o u t   f o r   t i m e  s t e p   13402                              ( at time 6.6998295E+00 )

 nodal point  x-rot      y-rot       z-rot       x-rot vel   y-rot vel   z-rot vel   x-rot acc   y-rot acc   z-rot acc
    22626 -1.67348E-03-9.02488E-05-1.48995E-04-9.52363E-04-1.82636E-05-3.14007E-05-1.20742E-03-1.64026E-04-2.65208E-05



 n o d a l   p r i n t   o u t   f o r   t i m e  s t e p   13602                              ( at time 6.7998195E+00 )

 nodal point  x-disp     y-disp      z-disp      x-vel       y-vel       z-vel      x-accl      y-accl      z-accl      x-coor      y-coor      z-coor
    22626 -6.98384E-04 2.48085E-01-4.91791E-01-6.72072E-04 1.40261E-01-4.27450E-02-1.95077E-03 1.80413E-01 3.03195E-03 4.65868E+00-2.79427E+01-4.54735E+01



 n o d a l   p r i n t   o u t   f o r   t i m e  s t e p   13602                              ( at time 6.7998195E+00 )

 nodal point  x-rot      y-rot       z-rot       x-rot vel   y-rot vel   z-rot vel   x-rot acc   y-rot acc   z-rot acc
    22626 -1.77536E-03-9.32330E-05-1.53322E-04-1.08385E-03-3.78261E-05-5.40700E-05-1.31498E-03-1.95645E-04-2.26716E-04



 n o d a l   p r i n t   o u t   f o r   t i m e  s t e p   13802                              ( at time 6.8998095E+00 )

 nodal point  x-disp     y-disp      z-disp      x-vel       y-vel       z-vel      x-accl      y-accl      z-accl      x-coor      y-coor      z-coor
    22626 -8.13131E-04 2.63117E-01-4.96055E-01-1.09818E-03 1.60476E-01-4.30769E-02-4.26153E-03 2.02167E-01-3.31998E-03 4.65856E+00-2.79277E+01-4.54778E+01



 n o d a l   p r i n t   o u t   f o r   t i m e  s t e p   13802                              ( at time 6.8998095E+00 )

 nodal point  x-rot      y-rot       z-rot       x-rot vel   y-rot vel   z-rot vel   x-rot acc   y-rot acc   z-rot acc
    22626 -1.88956E-03-9.75733E-05-1.58885E-04-1.20499E-03-4.30129E-05-5.96829E-05-1.21156E-03-5.18727E-05-5.61343E-05



 n o d a l   p r i n t   o u t   f o r   t i m e  s t e p   14002                              ( at time 6.9997995E+00 )

 nodal point  x-disp     y-disp      z-disp      x-vel       y-vel       z-vel      x-accl      y-accl      z-accl      x-coor      y-coor      z-coor
    22626 -8.90952E-04 2.80246E-01-5.00363E-01-6.67778E-04 1.81762E-01-4.30020E-02 4.30448E-03 2.12884E-01 7.49045E-04 4.65848E+00-2.79106E+01-4.54821E+01



 n o d a l   p r i n t   o u t   f o r   t i m e  s t e p   14002                              ( at time 6.9997995E+00 )

 nodal point  x-rot      y-rot       z-rot       x-rot vel   y-rot vel   z-rot vel   x-rot acc   y-rot acc   z-rot acc
    22626 -2.01705E-03-1.01455E-04-1.64133E-04-1.34701E-03-3.93925E-05-5.04802E-05-1.42035E-03 3.62076E-05 9.20367E-05



 n o d a l   p r i n t   o u t   f o r   t i m e  s t e p   14202                              ( at time 7.0997895E+00 )

 nodal point  x-disp     y-disp      z-disp      x-vel       y-vel       z-vel      x-accl      y-accl      z-accl      x-coor      y-coor      z-coor
    22626 -9.74425E-04 2.99576E-01-5.04679E-01-1.09651E-03 2.05005E-01-4.38041E-02-4.28769E-03 2.32452E-01-8.02132E-03 4.65840E+00-2.78913E+01-4.54864E+01



 n o d a l   p r i n t   o u t   f o r   t i m e  s t e p   14202                              ( at time 7.0997895E+00 )

 nodal point  x-rot      y-rot       z-rot       x-rot vel   y-rot vel   z-rot vel   x-rot acc   y-rot acc   z-rot acc
    22626 -2.15856E-03-1.06106E-04-1.69972E-04-1.48121E-03-5.66162E-05-6.72466E-05-1.34208E-03-1.72253E-04-1.67680E-04



 n o d a l   p r i n t   o u t   f o r   t i m e  s t e p   14402                              ( at time 7.1997794E+00 )

 nodal point  x-disp     y-disp      z-disp      x-vel       y-vel       z-vel      x-accl      y-accl      z-accl      x-coor      y-coor      z-coor
    22626 -1.12783E-03 3.21280E-01-5.09131E-01-1.47149E-03 2.28712E-01-4.52073E-02-3.75021E-03 2.37098E-01-1.40340E-02 4.65825E+00-2.78696E+01-4.54909E+01



 n o d a l   p r i n t   o u t   f o r   t i m e  s t e p   14402                              ( at time 7.1997794E+00 )

 nodal point  x-rot      y-rot       z-rot       x-rot vel   y-rot vel   z-rot vel   x-rot acc   y-rot acc   z-rot acc
    22626 -2.31433E-03-1.12707E-04-1.77063E-04-1.63008E-03-6.58659E-05-7.13455E-05-1.48889E-03-9.25073E-05-4.09933E-05



 n o d a l   p r i n t   o u t   f o r   t i m e  s t e p   14602                              ( at time 7.2997694E+00 )

 nodal point  x-disp     y-disp      z-disp      x-vel       y-vel       z-vel      x-accl      y-accl      z-accl      x-coor      y-coor      z-coor
    22626 -1.21101E-03 3.45406E-01-5.13700E-01-3.40687E-04 2.54061E-01-4.57437E-02 1.13092E-02 2.53507E-01-5.36459E-03 4.65816E+00-2.78454E+01-4.54954E+01



 n o d a l   p r i n t   o u t   f o r   t i m e  s t e p   14602                              ( at time 7.2997694E+00 )

 nodal point  x-rot      y-rot       z-rot       x-rot vel   y-rot vel   z-rot vel   x-rot acc   y-rot acc   z-rot acc
    22626 -2.48586E-03-1.19326E-04-1.84055E-04-1.78371E-03-6.65924E-05-6.82509E-05-1.53644E-03-7.26505E-06 3.09493E-05



 n o d a l   p r i n t   o u t   f o r   t i m e  s t e p   14802                              ( at time 7.3997594E+00 )

 nodal point  x-disp     y-disp      z-disp      x-vel       y-vel       z-vel      x-accl      y-accl      z-accl      x-coor      y-coor      z-coor
    22626 -1.25142E-03 3.72104E-01-5.18262E-01-5.86837E-04 2.80186E-01-4.53486E-02-2.46174E-03 2.61278E-01 3.95208E-03 4.65812E+00-2.78187E+01-4.55000E+01



 n o d a l   p r i n t   o u t   f o r   t i m e  s t e p   14802                              ( at time 7.3997594E+00 )

 nodal point  x-rot      y-rot       z-rot       x-rot vel   y-rot vel   z-rot vel   x-rot acc   y-rot acc   z-rot acc
    22626 -2.67307E-03-1.25955E-04-1.91032E-04-1.95889E-03-7.24874E-05-7.38199E-05-1.75200E-03-5.89562E-05-5.56960E-05



 n o d a l   p r i n t   o u t   f o r   t i m e  s t e p   15002                              ( at time 7.4997494E+00 )

 nodal point  x-disp     y-disp      z-disp      x-vel       y-vel       z-vel      x-accl      y-accl      z-accl      x-coor      y-coor      z-coor
    22626 -1.35542E-03 4.01435E-01-5.22806E-01-1.70822E-03 3.06379E-01-4.61235E-02-1.12149E-02 2.61953E-01-7.75054E-03 4.65802E+00-2.77894E+01-4.55045E+01



 n o d a l   p r i n t   o u t   f o r   t i m e  s t e p   15002                              ( at time 7.4997494E+00 )

 nodal point  x-rot      y-rot       z-rot       x-rot vel   y-rot vel   z-rot vel   x-rot acc   y-rot acc   z-rot acc
    22626 -2.87805E-03-1.33234E-04-1.98563E-04-2.13419E-03-7.43679E-05-7.93266E-05-1.75311E-03-1.88073E-05-5.50717E-05



 n o d a l   p r i n t   o u t   f o r   t i m e  s t e p   15202                              ( at time 7.5997394E+00 )

 nodal point  x-disp     y-disp      z-disp      x-vel       y-vel       z-vel      x-accl      y-accl      z-accl      x-coor      y-coor      z-coor
    22626 -1.51354E-03 4.33522E-01-5.27518E-01-1.08366E-03 3.35384E-01-4.79403E-02 6.24624E-03 2.90082E-01-1.81698E-02 4.65786E+00-2.77573E+01-4.55092E+01



 n o d a l   p r i n t   o u t   f o r   t i m e  s t e p   15202                              ( at time 7.5997394E+00 )

 nodal point  x-rot      y-rot       z-rot       x-rot vel   y-rot vel   z-rot vel   x-rot acc   y-rot acc   z-rot acc
    22626 -3.09968E-03-1.39600E-04-2.05832E-04-2.30448E-03-5.75963E-05-6.65779E-05-1.70312E-03 1.67733E-04 1.27499E-04



 n o d a l   p r i n t   o u t   f o r   t i m e  s t e p   15402                              ( at time 7.6997294E+00 )

 nodal point  x-disp     y-disp      z-disp      x-vel       y-vel       z-vel      x-accl      y-accl      z-accl      x-coor      y-coor      z-coor
    22626 -1.63731E-03 4.68489E-01-5.32323E-01-1.53894E-03 3.64400E-01-4.86119E-02-4.55331E-03 2.90194E-01-6.71592E-03 4.65774E+00-2.77223E+01-4.55140E+01



 n o d a l   p r i n t   o u t   f o r   t i m e  s t e p   15402                              ( at time 7.6997294E+00 )

 nodal point  x-rot      y-rot       z-rot       x-rot vel   y-rot vel   z-rot vel   x-rot acc   y-rot acc   z-rot acc
    22626 -3.33996E-03-1.45164E-04-2.11980E-04-2.51268E-03-5.25477E-05-6.38584E-05-2.08223E-03 5.04912E-05 2.71984E-05



 n o d a l   p r i n t   o u t   f o r   t i m e  s t e p   15602                              ( at time 7.7997194E+00 )

 nodal point  x-disp     y-disp      z-disp      x-vel       y-vel       z-vel      x-accl      y-accl      z-accl      x-coor      y-coor      z-coor
    22626 -1.86366E-03 5.06430E-01-5.37260E-01-2.36445E-03 3.94810E-01-4.96614E-02-8.25595E-03 3.04126E-01-1.04966E-02 4.65751E+00-2.76844E+01-4.55190E+01



 n o d a l   p r i n t   o u t   f o r   t i m e  s t e p   15602                              ( at time 7.7997194E+00 )

 nodal point  x-rot      y-rot       z-rot       x-rot vel   y-rot vel   z-rot vel   x-rot acc   y-rot acc   z-rot acc
    22626 -3.60074E-03-1.51112E-04-2.19587E-04-2.70043E-03-6.58469E-05-8.18111E-05-1.87764E-03-1.33005E-04-1.79545E-04



 n o d a l   p r i n t   o u t   f o r   t i m e  s t e p   15802                              ( at time 7.8997094E+00 )

 nodal point  x-disp     y-disp      z-disp      x-vel       y-vel       z-vel      x-accl      y-accl      z-accl      x-coor      y-coor      z-coor
    22626 -2.09298E-03 5.47428E-01-5.42270E-01-2.56443E-03 4.25600E-01-5.06012E-02-1.99996E-03 3.07936E-01-9.39919E-03 4.65728E+00-2.76434E+01-4.55240E+01



 n o d a l   p r i n t   o u t   f o r   t i m e  s t e p   15802                              ( at time 7.8997094E+00 )

 nodal point  x-rot      y-rot       z-rot       x-rot vel   y-rot vel   z-rot vel   x-rot acc   y-rot acc   z-rot acc
    22626 -3.88024E-03-1.56920E-04-2.26982E-04-2.89035E-03-4.97825E-05-6.62456E-05-1.89947E-03 1.60660E-04 1.55670E-04



 n o d a l   p r i n t   o u t   f o r   t i m e  s t e p   16002                              ( at time 7.9996994E+00 )

 nodal point  x-disp     y-disp      z-disp      x-vel       y-vel       z-vel      x-accl      y-accl      z-accl      x-coor      y-coor      z-coor
    22626 -2.34599E-03 5.91585E-01-5.47437E-01-2.63728E-03 4.57560E-01-5.25885E-02-7.28611E-04 3.19627E-01-1.98744E-02 4.65703E+00-2.75992E+01-4.55292E+01



 n o d a l   p r i n t   o u t   f o r   t i m e  s t e p   16002                              ( at time 7.9996994E+00 )

 nodal point  x-rot      y-rot       z-rot       x-rot vel   y-rot vel   z-rot vel   x-rot acc   y-rot acc   z-rot acc
    22626 -4.17877E-03-1.61107E-04-2.33421E-04-3.08552E-03-4.20363E-05-6.96459E-05-1.95188E-03 7.74696E-05-3.40062E-05



 n o d a l   p r i n t   o u t   f o r   t i m e  s t e p   16202                              ( at time 8.0996894E+00 )

 nodal point  x-disp     y-disp      z-disp      x-vel       y-vel       z-vel      x-accl      y-accl      z-accl      x-coor      y-coor      z-coor
    22626 -2.64187E-03 6.38955E-01-5.52725E-01-3.26784E-03 4.89697E-01-5.31473E-02-6.30620E-03 3.21407E-01-5.58835E-03 4.65673E+00-2.75519E+01-4.55344E+01



 n o d a l   p r i n t   o u t   f o r   t i m e  s t e p   16202                              ( at time 8.0996894E+00 )

 nodal point  x-rot      y-rot       z-rot       x-rot vel   y-rot vel   z-rot vel   x-rot acc   y-rot acc   z-rot acc
    22626 -4.49775E-03-1.66265E-04-2.40841E-04-3.29676E-03-4.99607E-05-7.25816E-05-2.11254E-03-7.92515E-05-2.93595E-05



 n o d a l   p r i n t   o u t   f o r   t i m e  s t e p   16402                              ( at time 8.1996794E+00 )

 nodal point  x-disp     y-disp      z-disp      x-vel       y-vel       z-vel      x-accl      y-accl      z-accl      x-coor      y-coor      z-coor
    22626 -2.93452E-03 6.89525E-01-5.58074E-01-2.32858E-03 5.21989E-01-5.37368E-02 9.39357E-03 3.22953E-01-5.89609E-03 4.65644E+00-2.75013E+01-4.55398E+01



 n o d a l   p r i n t   o u t   f o r   t i m e  s t e p   16402                              ( at time 8.1996794E+00 )

 nodal point  x-rot      y-rot       z-rot       x-rot vel   y-rot vel   z-rot vel   x-rot acc   y-rot acc   z-rot acc
    22626 -4.83771E-03-1.71090E-04-2.47931E-04-3.51186E-03-4.56806E-05-7.23781E-05-2.15129E-03 4.28048E-05 2.03471E-06



 n o d a l   p r i n t   o u t   f o r   t i m e  s t e p   16602                              ( at time 8.2996694E+00 )

 nodal point  x-disp     y-disp      z-disp      x-vel       y-vel       z-vel      x-accl      y-accl      z-accl      x-coor      y-coor      z-coor
    22626 -3.20683E-03 7.43379E-01-5.63436E-01-3.03399E-03 5.55238E-01-5.31555E-02-7.05480E-03 3.32525E-01 5.81372E-03 4.65617E+00-2.74475E+01-4.55452E+01



 n o d a l   p r i n t   o u t   f o r   t i m e  s t e p   16602                              ( at time 8.2996694E+00 )

 nodal point  x-rot      y-rot       z-rot       x-rot vel   y-rot vel   z-rot vel   x-rot acc   y-rot acc   z-rot acc
    22626 -5.19887E-03-1.75630E-04-2.54867E-04-3.71998E-03-4.87030E-05-7.07719E-05-2.08141E-03-3.02271E-05 1.60644E-05



 n o d a l   p r i n t   o u t   f o r   t i m e  s t e p   16802                              ( at time 8.3996594E+00 )

 nodal point  x-disp     y-disp      z-disp      x-vel       y-vel       z-vel      x-accl      y-accl      z-accl      x-coor      y-coor      z-coor
    22626 -3.46113E-03 8.00527E-01-5.68724E-01-2.21313E-03 5.87982E-01-5.29205E-02 8.20940E-03 3.27470E-01 2.35078E-03 4.65591E+00-2.73903E+01-4.55504E+01



 n o d a l   p r i n t   o u t   f o r   t i m e  s t e p   16802                              ( at time 8.3996594E+00 )

 nodal point  x-rot      y-rot       z-rot       x-rot vel   y-rot vel   z-rot vel   x-rot acc   y-rot acc   z-rot acc
    22626 -5.58099E-03-1.80052E-04-2.62046E-04-3.93488E-03-4.96008E-05-7.28591E-05-2.14923E-03-8.97889E-06-2.08744E-05



 n o d a l   p r i n t   o u t   f o r   t i m e  s t e p   17002                              ( at time 8.4996494E+00 )

 nodal point  x-disp     y-disp      z-disp      x-vel       y-vel       z-vel      x-accl      y-accl      z-accl      x-coor      y-coor      z-coor
    22626 -3.69227E-03 8.61029E-01-5.74047E-01-2.82157E-03 6.22377E-01-5.31893E-02-6.08499E-03 3.43980E-01-2.68837E-03 4.65568E+00-2.73298E+01-4.55558E+01



 n o d a l   p r i n t   o u t   f o r   t i m e  s t e p   17002                              ( at time 8.4996494E+00 )

 nodal point  x-rot      y-rot       z-rot       x-rot vel   y-rot vel   z-rot vel   x-rot acc   y-rot acc   z-rot acc
    22626 -5.98544E-03-1.84830E-04-2.68909E-04-4.15666E-03-4.34252E-05-6.69818E-05-2.21796E-03 6.17629E-05 5.87789E-05



 n o d a l   p r i n t   o u t   f o r   t i m e  s t e p   17202                              ( at time 8.5996394E+00 )

 nodal point  x-disp     y-disp      z-disp      x-vel       y-vel       z-vel      x-accl      y-accl      z-accl      x-coor      y-coor      z-coor
    22626 -3.98386E-03 9.24933E-01-5.79288E-01-2.58353E-03 6.55523E-01-5.14900E-02 2.38060E-03 3.31494E-01 1.69948E-02 4.65539E+00-2.72659E+01-4.55610E+01



 n o d a l   p r i n t   o u t   f o r   t i m e  s t e p   17202                              ( at time 8.5996394E+00 )

 nodal point  x-rot      y-rot       z-rot       x-rot vel   y-rot vel   z-rot vel   x-rot acc   y-rot acc   z-rot acc
    22626 -6.41137E-03-1.89474E-04-2.75768E-04-4.36415E-03-4.24514E-05-6.88043E-05-2.07508E-03 9.73825E-06-1.82267E-05



 n o d a l   p r i n t   o u t   f o r   t i m e  s t e p   17402                              ( at time 8.6996293E+00 )

 nodal point  x-disp     y-disp      z-disp      x-vel       y-vel       z-vel      x-accl      y-accl      z-accl      x-coor      y-coor      z-coor
    22626 -4.18610E-03 9.92141E-01-5.84360E-01-1.98046E-03 6.89222E-01-5.00889E-02 6.03126E-03 3.37021E-01 1.40121E-02 4.65519E+00-2.71987E+01-4.55661E+01



 n o d a l   p r i n t   o u t   f o r   t i m e  s t e p   17402                              ( at time 8.6996293E+00 )

 nodal point  x-rot      y-rot       z-rot       x-rot vel   y-rot vel   z-rot vel   x-rot acc   y-rot acc   z-rot acc
    22626 -6.85900E-03-1.93471E-04-2.82205E-04-4.59662E-03-3.72815E-05-5.65048E-05-2.32500E-03 5.17045E-05 1.23006E-04



 n o d a l   p r i n t   o u t   f o r   t i m e  s t e p   17602                              ( at time 8.7996193E+00 )

 nodal point  x-disp     y-disp      z-disp      x-vel       y-vel       z-vel      x-accl      y-accl      z-accl      x-coor      y-coor      z-coor
    22626 -4.40865E-03 1.06278E+00-5.89170E-01-2.48028E-03 7.22787E-01-4.59835E-02-4.99873E-03 3.35689E-01 4.10583E-02 4.65497E+00-2.71281E+01-4.55709E+01



 n o d a l   p r i n t   o u t   f o r   t i m e  s t e p   17602                              ( at time 8.7996193E+00 )

 nodal point  x-rot      y-rot       z-rot       x-rot vel   y-rot vel   z-rot vel   x-rot acc   y-rot acc   z-rot acc
    22626 -7.32929E-03-1.97302E-04-2.88105E-04-4.80663E-03-3.79625E-05-7.00644E-05-2.10030E-03-6.81055E-06-1.35610E-04



 n o d a l   p r i n t   o u t   f o r   t i m e  s t e p   17802                              ( at time 8.8996093E+00 )

 nodal point  x-disp     y-disp      z-disp      x-vel       y-vel       z-vel      x-accl      y-accl      z-accl      x-coor      y-coor      z-coor
    22626 -4.66218E-03 1.13676E+00-5.93660E-01-2.37042E-03 7.56919E-01-4.39746E-02 1.09871E-03 3.41347E-01 2.00902E-02 4.65471E+00-2.70541E+01-4.55754E+01



 n o d a l   p r i n t   o u t   f o r   t i m e  s t e p   17802                              ( at time 8.8996093E+00 )

 nodal point  x-rot      y-rot       z-rot       x-rot vel   y-rot vel   z-rot vel   x-rot acc   y-rot acc   z-rot acc
    22626 -7.82104E-03-2.00943E-04-2.94851E-04-5.02607E-03-3.49601E-05-5.88640E-05-2.19461E-03 3.00269E-05 1.12016E-04



 n o d a l   p r i n t   o u t   f o r   t i m e  s t e p   18002                              ( at time 8.9995993E+00 )

 nodal point  x-disp     y-disp      z-disp      x-vel       y-vel       z-vel      x-accl      y-accl      z-accl      x-coor      y-coor      z-coor
    22626 -4.84920E-03 1.21412E+00-5.97812E-01-1.72816E-03 7.90200E-01-3.89832E-02 6.42323E-03 3.32852E-01 4.99191E-02 4.65453E+00-2.69767E+01-4.55795E+01



 n o d a l   p r i n t   o u t   f o r   t i m e  s t e p   18002                              ( at time 8.9995993E+00 )

 nodal point  x-rot      y-rot       z-rot       x-rot vel   y-rot vel   z-rot vel   x-rot acc   y-rot acc   z-rot acc
    22626 -8.33536E-03-2.04695E-04-3.00443E-04-5.26782E-03-3.21732E-05-5.03239E-05-2.41775E-03 2.78712E-05 8.54094E-05



 n o d a l   p r i n t   o u t   f o r   t i m e  s t e p   18202                              ( at time 9.0995893E+00 )

 nodal point  x-disp     y-disp      z-disp      x-vel       y-vel       z-vel      x-accl      y-accl      z-accl      x-coor      y-coor      z-coor
    22626 -4.98678E-03 1.29481E+00-6.01403E-01-9.24106E-04 8.23638E-01-3.29613E-02 8.04139E-03 3.34412E-01 6.02253E-02 4.65439E+00-2.68960E+01-4.55831E+01



 n o d a l   p r i n t   o u t   f o r   t i m e  s t e p   18202                              ( at time 9.0995893E+00 )

 nodal point  x-rot      y-rot       z-rot       x-rot vel   y-rot vel   z-rot vel   x-rot acc   y-rot acc   z-rot acc
    22626 -8.87326E-03-2.08462E-04-3.06335E-04-5.49061E-03-4.28773E-05-6.96563E-05-2.22814E-03-1.07051E-04-1.93343E-04



 n o d a l   p r i n t   o u t   f o r   t i m e  s t e p   18402                              ( at time 9.1995793E+00 )

 nodal point  x-disp     y-disp      z-disp      x-vel       y-vel       z-vel      x-accl      y-accl      z-accl      x-coor      y-coor      z-coor
    22626 -5.08918E-03 1.37881E+00-6.04362E-01-1.30833E-03 8.56413E-01-2.61433E-02-3.84259E-03 3.27776E-01 6.81868E-02 4.65429E+00-2.68120E+01-4.55861E+01



 n o d a l   p r i n t   o u t   f o r   t i m e  s t e p   18402                              ( at time 9.1995793E+00 )

 nodal point  x-rot      y-rot       z-rot       x-rot vel   y-rot vel   z-rot vel   x-rot acc   y-rot acc   z-rot acc
    22626 -9.43384E-03-2.12456E-04-3.12233E-04-5.71826E-03-3.82584E-05-5.39411E-05-2.27672E-03 4.61929E-05 1.57167E-04



 n o d a l   p r i n t   o u t   f o r   t i m e  s t e p   18602                              ( at time 9.2995693E+00 )

 nodal point  x-disp     y-disp      z-disp      x-vel       y-vel       z-vel      x-accl      y-accl      z-accl      x-coor      y-coor      z-coor
    22626 -5.16683E-03 1.46610E+00-6.06686E-01-1.42654E-04 8.89355E-01-2.03336E-02 1.16579E-02 3.29459E-01 5.81030E-02 4.65421E+00-2.67247E+01-4.55884E+01



 n o d a l   p r i n t   o u t   f o r   t i m e  s t e p   18602                              ( at time 9.2995693E+00 )

 nodal point  x-rot      y-rot       z-rot       x-rot vel   y-rot vel   z-rot vel   x-rot acc   y-rot acc   z-rot acc
    22626 -1.00171E-02-2.15828E-04-3.17116E-04-5.94383E-03-3.26392E-05-5.14169E-05-2.25588E-03 5.61983E-05 2.52447E-05



 n o d a l   p r i n t   o u t   f o r   t i m e  s t e p   18802                              ( at time 9.3995593E+00 )

 nodal point  x-disp     y-disp      z-disp      x-vel       y-vel       z-vel      x-accl      y-accl      z-accl      x-coor      y-coor      z-coor
    22626 -5.20281E-03 1.55670E+00-6.08308E-01-3.37413E-04 9.22252E-01-1.18697E-02-1.94779E-03 3.29004E-01 8.46476E-02 4.65417E+00-2.66341E+01-4.55900E+01



 n o d a l   p r i n t   o u t   f o r   t i m e  s t e p   18802                              ( at time 9.3995593E+00 )

 nodal point  x-rot      y-rot       z-rot       x-rot vel   y-rot vel   z-rot vel   x-rot acc   y-rot acc   z-rot acc
    22626 -1.06223E-02-2.18719E-04-3.21876E-04-6.16952E-03-2.37670E-05-3.59604E-05-2.25716E-03 8.87305E-05 1.54581E-04



 n o d a l   p r i n t   o u t   f o r   t i m e  s t e p   19002                              ( at time 9.4995493E+00 )

 nodal point  x-disp     y-disp      z-disp      x-vel       y-vel       z-vel      x-accl      y-accl      z-accl      x-coor      y-coor      z-coor
    22626 -5.19603E-03 1.65054E+00-6.09029E-01 8.54281E-04 9.54580E-01-3.23053E-03 1.19181E-02 3.23312E-01 8.64005E-02 4.65418E+00-2.65403E+01-4.55907E+01



 n o d a l   p r i n t   o u t   f o r   t i m e  s t e p   19002                              ( at time 9.4995493E+00 )

 nodal point  x-rot      y-rot       z-rot       x-rot vel   y-rot vel   z-rot vel   x-rot acc   y-rot acc   z-rot acc
    22626 -1.12507E-02-2.21045E-04-3.25311E-04-6.40765E-03-1.66805E-05-2.68881E-05-2.38157E-03 7.08728E-05 9.07322E-05



 n o d a l   p r i n t   o u t   f o r   t i m e  s t e p   19202                              ( at time 9.5995393E+00 )

 nodal point  x-disp     y-disp      z-disp      x-vel       y-vel       z-vel      x-accl      y-accl      z-accl      x-coor      y-coor      z-coor
    22626 -5.12648E-03 1.74760E+00-6.08868E-01 2.97727E-04 9.86780E-01 6.34823E-03-5.56605E-03 3.22024E-01 9.57963E-02 4.65425E+00-2.64432E+01-4.55906E+01



 n o d a l   p r i n t   o u t   f o r   t i m e  s t e p   19202                              ( at time 9.5995393E+00 )

 nodal point  x-rot      y-rot       z-rot       x-rot vel   y-rot vel   z-rot vel   x-rot acc   y-rot acc   z-rot acc
    22626 -1.19004E-02-2.23047E-04-3.28557E-04-6.60019E-03-2.48460E-05-3.31651E-05-1.92555E-03-8.16631E-05-6.27761E-05



 n o d a l   p r i n t   o u t   f o r   t i m e  s t e p   19402                              ( at time 9.6995293E+00 )

 nodal point  x-disp     y-disp      z-disp      x-vel       y-vel       z-vel      x-accl      y-accl      z-accl      x-coor      y-coor      z-coor
    22626 -5.04664E-03 1.84784E+00-6.07753E-01 1.16019E-03 1.01851E+00 1.59665E-02 8.62547E-03 3.17288E-01 9.61923E-02 4.65433E+00-2.63430E+01-4.55895E+01



 n o d a l   p r i n t   o u t   f o r   t i m e  s t e p   19402                              ( at time 9.6995293E+00 )

 nodal point  x-rot      y-rot       z-rot       x-rot vel   y-rot vel   z-rot vel   x-rot acc   y-rot acc   z-rot acc
    22626 -1.25705E-02-2.25077E-04-3.31880E-04-6.80118E-03-2.09066E-05-2.69604E-05-2.01004E-03 3.93983E-05 6.20532E-05



 n o d a l   p r i n t   o u t   f o r   t i m e  s t e p   19602                              ( at time 9.7995193E+00 )

 nodal point  x-disp     y-disp      z-disp      x-vel       y-vel       z-vel      x-accl      y-accl      z-accl      x-coor      y-coor      z-coor
    22626 -4.88355E-03 1.95127E+00-6.05699E-01 1.89182E-03 1.04994E+00 2.56681E-02 7.31707E-03 3.14405E-01 9.70263E-02 4.65449E+00-2.62396E+01-4.55874E+01



 n o d a l   p r i n t   o u t   f o r   t i m e  s t e p   19602                              ( at time 9.7995193E+00 )

 nodal point  x-rot      y-rot       z-rot       x-rot vel   y-rot vel   z-rot vel   x-rot acc   y-rot acc   z-rot acc
    22626 -1.32619E-02-2.26573E-04-3.34960E-04-7.01662E-03-7.98412E-06-2.34946E-05-2.15464E-03 1.29238E-04 3.46611E-05



 n o d a l   p r i n t   o u t   f o r   t i m e  s t e p   19802                              ( at time 9.8995093E+00 )

 nodal point  x-disp     y-disp      z-disp      x-vel       y-vel       z-vel      x-accl      y-accl      z-accl      x-coor      y-coor      z-coor
    22626 -4.71959E-03 2.05783E+00-6.02623E-01 2.04787E-03 1.08131E+00 3.60738E-02 1.56062E-03 3.13700E-01 1.04067E-01 4.65466E+00-2.61330E+01-4.55843E+01



 n o d a l   p r i n t   o u t   f o r   t i m e  s t e p   19802                              ( at time 9.8995093E+00 )

 nodal point  x-rot      y-rot       z-rot       x-rot vel   y-rot vel   z-rot vel   x-rot acc   y-rot acc   z-rot acc
    22626 -1.39727E-02-2.28136E-04-3.37650E-04-7.19566E-03-1.62876E-05-2.28843E-05-1.79056E-03-8.30431E-05 6.10411E-06



 n o d a l   p r i n t   o u t   f o r   t i m e  s t e p   20003                              ( at time 9.9999992E+00 )

 nodal point  x-disp     y-disp      z-disp      x-vel       y-vel       z-vel      x-accl      y-accl      z-accl      x-coor      y-coor      z-coor
[...]
    22626 -3.98358E-02-1.34310E-04-5.60808E-04-9.56534E-03 5.82193E-05-1.74506E-04 5.01158E-04 2.22904E-05-1.88868E-04



 n o d a l   p r i n t   o u t   f o r   t i m e  s t e p   25803                              ( at time 1.2899709E+01 )

 nodal point  x-disp     y-disp      z-disp      x-vel       y-vel       z-vel      x-accl      y-accl      z-accl      x-coor      y-coor      z-coor
    22626  1.29447E-03 6.20683E+00 5.35709E-01-1.50686E-03 1.50681E+00 8.82720E-01-8.30277E-03-1.10196E-02 3.82760E-01 4.66067E+00-2.19840E+01-4.44460E+01



 n o d a l   p r i n t   o u t   f o r   t i m e  s t e p   25803                              ( at time 1.2899709E+01 )

 nodal point  x-rot      y-rot       z-rot       x-rot vel   y-rot vel   z-rot vel   x-rot acc   y-rot acc   z-rot acc
    22626 -4.07911E-02-1.28863E-04-5.79417E-04-9.52587E-03 5.23915E-05-1.83956E-04 3.94725E-04-5.82837E-05-9.45091E-05



 n o d a l   p r i n t   o u t   f o r   t i m e  s t e p   26003                              ( at time 1.2999699E+01 )

 nodal point  x-disp     y-disp      z-disp      x-vel       y-vel       z-vel      x-accl      y-accl      z-accl      x-coor      y-coor      z-coor
    22626  1.10817E-03 6.35746E+00 6.25914E-01-1.92972E-03 1.50637E+00 9.21565E-01-4.22904E-03-4.39927E-03 3.88494E-01 4.66048E+00-2.18334E+01-4.43558E+01



 n o d a l   p r i n t   o u t   f o r   t i m e  s t e p   26003                              ( at time 1.2999699E+01 )

 nodal point  x-rot      y-rot       z-rot       x-rot vel   y-rot vel   z-rot vel   x-rot acc   y-rot acc   z-rot acc
    22626 -4.17425E-02-1.24279E-04-5.98410E-04-9.49089E-03 5.08739E-05-1.90974E-04 3.49831E-04-1.51781E-05-7.01860E-05



 n o d a l   p r i n t   o u t   f o r   t i m e  s t e p   26203                              ( at time 1.3099689E+01 )

 nodal point  x-disp     y-disp      z-disp      x-vel       y-vel       z-vel      x-accl      y-accl      z-accl      x-coor      y-coor      z-coor
    22626  9.58815E-04 6.50795E+00 7.19996E-01-1.87198E-03 1.50438E+00 9.60400E-01 5.77502E-04-1.99755E-02 3.88387E-01 4.66033E+00-2.16829E+01-4.42617E+01



 n o d a l   p r i n t   o u t   f o r   t i m e  s t e p   26203                              ( at time 1.3099689E+01 )

 nodal point  x-rot      y-rot       z-rot       x-rot vel   y-rot vel   z-rot vel   x-rot acc   y-rot acc   z-rot acc
    22626 -4.26892E-02-1.19225E-04-6.18290E-04-9.43357E-03 4.66050E-05-2.00927E-04 5.73287E-04-4.26929E-05-9.95389E-05



 n o d a l   p r i n t   o u t   f o r   t i m e  s t e p   26403                              ( at time 1.3199679E+01 )

 nodal point  x-disp     y-disp      z-disp      x-vel       y-vel       z-vel      x-accl      y-accl      z-accl      x-coor      y-coor      z-coor
    22626  7.17819E-04 6.65825E+00 8.17967E-01-3.01926E-03 1.50171E+00 9.99023E-01-1.14739E-02-2.66183E-02 3.86266E-01 4.66009E+00-2.15326E+01-4.41638E+01



 n o d a l   p r i n t   o u t   f o r   t i m e  s t e p   26403                              ( at time 1.3199679E+01 )

 nodal point  x-rot      y-rot       z-rot       x-rot vel   y-rot vel   z-rot vel   x-rot acc   y-rot acc   z-rot acc
    22626 -4.36316E-02-1.15234E-04-6.40243E-04-9.39386E-03 2.60900E-05-2.30531E-04 3.97115E-04-2.05169E-04-2.96068E-04



 n o d a l   p r i n t   o u t   f o r   t i m e  s t e p   26603                              ( at time 1.3299669E+01 )

 nodal point  x-disp     y-disp      z-disp      x-vel       y-vel       z-vel      x-accl      y-accl      z-accl      x-coor      y-coor      z-coor
    22626  4.08394E-04 6.80830E+00 9.19775E-01-3.20197E-03 1.49928E+00 1.03730E+00-1.82719E-03-2.43557E-02 3.82836E-01 4.65978E+00-2.13825E+01-4.40619E+01



 n o d a l   p r i n t   o u t   f o r   t i m e  s t e p   26603                              ( at time 1.3299669E+01 )

 nodal point  x-rot      y-rot       z-rot       x-rot vel   y-rot vel   z-rot vel   x-rot acc   y-rot acc   z-rot acc
    22626 -4.45700E-02-1.12471E-04-6.62887E-04-9.36028E-03 3.45148E-05-2.29161E-04 3.35850E-04 8.42557E-05 1.36960E-05



 n o d a l   p r i n t   o u t   f o r   t i m e  s t e p   26803                              ( at time 1.3399659E+01 )

 nodal point  x-disp     y-disp      z-disp      x-vel       y-vel       z-vel      x-accl      y-accl      z-accl      x-coor      y-coor      z-coor
    22626  1.32274E-04 6.95807E+00 1.02553E+00-3.47117E-03 1.49590E+00 1.07739E+00-2.69235E-03-3.38159E-02 4.00940E-01 4.65951E+00-2.12328E+01-4.39562E+01



 n o d a l   p r i n t   o u t   f o r   t i m e  s t e p   26803                              ( at time 1.3399659E+01 )

 nodal point  x-rot      y-rot       z-rot       x-rot vel   y-rot vel   z-rot vel   x-rot acc   y-rot acc   z-rot acc
    22626 -4.55037E-02-1.08759E-04-6.86250E-04-9.30663E-03 3.51588E-05-2.48871E-04 5.36598E-04 6.44111E-06-1.97116E-04



 n o d a l   p r i n t   o u t   f o r   t i m e  s t e p   27003                              ( at time 1.3499649E+01 )

 nodal point  x-disp     y-disp      z-disp      x-vel       y-vel       z-vel      x-accl      y-accl      z-accl      x-coor      y-coor      z-coor
    22626 -2.38158E-04 7.10751E+00 1.13519E+00-3.91659E-03 1.49293E+00 1.11608E+00-4.45466E-03-2.96837E-02 3.86950E-01 4.65914E+00-2.10833E+01-4.38465E+01



 n o d a l   p r i n t   o u t   f o r   t i m e  s t e p   27003                              ( at time 1.3499649E+01 )

 nodal point  x-rot      y-rot       z-rot       x-rot vel   y-rot vel   z-rot vel   x-rot acc   y-rot acc   z-rot acc
    22626 -4.64330E-02-1.07259E-04-7.12164E-04-9.27120E-03 3.31535E-07-2.74064E-04 3.54311E-04-3.48308E-04-2.51957E-04



 n o d a l   p r i n t   o u t   f o r   t i m e  s t e p   27203                              ( at time 1.3599639E+01 )

 nodal point  x-disp     y-disp      z-disp      x-vel       y-vel       z-vel      x-accl      y-accl      z-accl      x-coor      y-coor      z-coor
    22626 -6.49391E-04 7.25655E+00 1.24879E+00-4.05426E-03 1.48874E+00 1.15613E+00-1.37682E-03-4.18574E-02 4.00481E-01 4.65873E+00-2.09343E+01-4.37329E+01



 n o d a l   p r i n t   o u t   f o r   t i m e  s t e p   27203                              ( at time 1.3599639E+01 )

 nodal point  x-rot      y-rot       z-rot       x-rot vel   y-rot vel   z-rot vel   x-rot acc   y-rot acc   z-rot acc
    22626 -4.73583E-02-1.07183E-04-7.38445E-04-9.21191E-03 6.81796E-06-2.70458E-04 5.92940E-04 6.48708E-05 3.60665E-05



 n o d a l   p r i n t   o u t   f o r   t i m e  s t e p   27403                              ( at time 1.3699629E+01 )

 nodal point  x-disp     y-disp      z-disp      x-vel       y-vel       z-vel      x-accl      y-accl      z-accl      x-coor      y-coor      z-coor
    22626 -1.02622E-03 7.40520E+00 1.36623E+00-3.46755E-03 1.48514E+00 1.19389E+00 5.86775E-03-3.60120E-02 3.77632E-01 4.65835E+00-2.07856E+01-4.36155E+01



 n o d a l   p r i n t   o u t   f o r   t i m e  s t e p   27403                              ( at time 1.3699629E+01 )

 nodal point  x-rot      y-rot       z-rot       x-rot vel   y-rot vel   z-rot vel   x-rot acc   y-rot acc   z-rot acc
    22626 -4.82793E-02-1.05755E-04-7.66100E-04-9.18310E-03 1.49967E-05-2.70719E-04 2.88152E-04 8.17952E-05-2.61088E-06



 n o d a l   p r i n t   o u t   f o r   t i m e  s t e p   27603                              ( at time 1.3799619E+01 )

 nodal point  x-disp     y-disp      z-disp      x-vel       y-vel       z-vel      x-accl      y-accl      z-accl      x-coor      y-coor      z-coor
    22626 -1.45590E-03 7.55343E+00 1.48757E+00-4.66391E-03 1.47987E+00 1.23332E+00-1.19648E-02-5.27614E-02 3.94371E-01 4.65792E+00-2.06374E+01-4.34941E+01



 n o d a l   p r i n t   o u t   f o r   t i m e  s t e p   27603                              ( at time 1.3799619E+01 )

 nodal point  x-rot      y-rot       z-rot       x-rot vel   y-rot vel   z-rot vel   x-rot acc   y-rot acc   z-rot acc
    22626 -4.91971E-02-1.06049E-04-7.94419E-04-9.15811E-03-1.62357E-05-2.94760E-04 2.49964E-04-3.12355E-04-2.40430E-04



 n o d a l   p r i n t   o u t   f o r   t i m e  s t e p   27803                              ( at time 1.3899609E+01 )

 nodal point  x-disp     y-disp      z-disp      x-vel       y-vel       z-vel      x-accl      y-accl      z-accl      x-coor      y-coor      z-coor
    22626 -1.98706E-03 7.70117E+00 1.61286E+00-5.95520E-03 1.47530E+00 1.27186E+00-1.29142E-02-4.56427E-02 3.85478E-01 4.65739E+00-2.04897E+01-4.33689E+01



 n o d a l   p r i n t   o u t   f o r   t i m e  s t e p   27803                              ( at time 1.3899609E+01 )

 nodal point  x-rot      y-rot       z-rot       x-rot vel   y-rot vel   z-rot vel   x-rot acc   y-rot acc   z-rot acc
    22626 -5.01116E-02-1.07958E-04-8.25566E-04-9.12467E-03-1.24555E-05-3.17838E-04 3.34388E-04 3.78056E-05-2.30811E-04



 n o d a l   p r i n t   o u t   f o r   t i m e  s t e p   28003                              ( at time 1.3999599E+01 )

 nodal point  x-disp     y-disp      z-disp      x-vel       y-vel       z-vel      x-accl      y-accl      z-accl      x-coor      y-coor      z-coor
    22626 -2.51029E-03 7.84844E+00 1.74196E+00-3.28070E-03 1.47022E+00 1.31020E+00 2.67477E-02-5.08622E-02 3.83412E-01 4.65686E+00-2.03424E+01-4.32398E+01



 n o d a l   p r i n t   o u t   f o r   t i m e  s t e p   28003                              ( at time 1.3999599E+01 )

 nodal point  x-rot      y-rot       z-rot       x-rot vel   y-rot vel   z-rot vel   x-rot acc   y-rot acc   z-rot acc
    22626 -5.10223E-02-1.08132E-04-8.57170E-04-9.08288E-03 1.20963E-05-3.06826E-04 4.17992E-04 2.45543E-04 1.10132E-04



 n o d a l   p r i n t   o u t   f o r   t i m e  s t e p   28203                              ( at time 1.4099589E+01 )

 nodal point  x-disp     y-disp      z-disp      x-vel       y-vel       z-vel      x-accl      y-accl      z-accl      x-coor      y-coor      z-coor
    22626 -2.92126E-03 7.99526E+00 1.87483E+00-5.05472E-03 1.46668E+00 1.34645E+00-1.77418E-02-3.53488E-02 3.62521E-01 4.65645E+00-2.01956E+01-4.31069E+01



 n o d a l   p r i n t   o u t   f o r   t i m e  s t e p   28203                              ( at time 1.4099589E+01 )

 nodal point  x-rot      y-rot       z-rot       x-rot vel   y-rot vel   z-rot vel   x-rot acc   y-rot acc   z-rot acc
    22626 -5.19292E-02-1.08380E-04-8.87684E-04-9.06110E-03-2.30489E-05-3.32777E-04 2.17745E-04-3.51484E-04-2.59527E-04



 n o d a l   p r i n t   o u t   f o r   t i m e  s t e p   28403                              ( at time 1.4199579E+01 )

 nodal point  x-disp     y-disp      z-disp      x-vel       y-vel       z-vel      x-accl      y-accl      z-accl      x-coor      y-coor      z-coor
    22626 -3.49414E-03 8.14173E+00 2.01135E+00-7.59102E-03 1.46224E+00 1.38404E+00-2.53656E-02-4.44409E-02 3.75942E-01 4.65588E+00-2.00491E+01-4.29704E+01



 n o d a l   p r i n t   o u t   f o r   t i m e  s t e p   28403                              ( at time 1.4199579E+01 )

 nodal point  x-rot      y-rot       z-rot       x-rot vel   y-rot vel   z-rot vel   x-rot acc   y-rot acc   z-rot acc
    22626 -5.28336E-02-1.12219E-04-9.22904E-04-9.02881E-03-6.05479E-05-3.68808E-04 3.22950E-04-3.75028E-04-3.60352E-04



 n o d a l   p r i n t   o u t   f o r   t i m e  s t e p   28603                              ( at time 1.4299569E+01 )

 nodal point  x-disp     y-disp      z-disp      x-vel       y-vel       z-vel      x-accl      y-accl      z-accl      x-coor      y-coor      z-coor
    22626 -4.22698E-03 8.28782E+00 2.15151E+00-6.50016E-03 1.45856E+00 1.41889E+00 1.09097E-02-3.68322E-02 3.48560E-01 4.65515E+00-1.99030E+01-4.28302E+01



 n o d a l   p r i n t   o u t   f o r   t i m e  s t e p   28603                              ( at time 1.4299569E+01 )

 nodal point  x-rot      y-rot       z-rot       x-rot vel   y-rot vel   z-rot vel   x-rot acc   y-rot acc   z-rot acc
    22626 -5.37359E-02-1.16977E-04-9.61197E-04-8.99799E-03-4.10303E-05-3.90476E-04 3.08234E-04 1.95196E-04-2.16702E-04



 n o d a l   p r i n t   o u t   f o r   t i m e  s t e p   28803                              ( at time 1.4399559E+01 )

 nodal point  x-disp     y-disp      z-disp      x-vel       y-vel       z-vel      x-accl      y-accl      z-accl      x-coor      y-coor      z-coor
    22626 -4.88464E-03 8.43355E+00 2.29507E+00-6.72547E-03 1.45662E+00 1.45248E+00-2.25334E-03-1.93592E-02 3.35892E-01 4.65449E+00-1.97573E+01-4.26867E+01



 n o d a l   p r i n t   o u t   f o r   t i m e  s t e p   28803                              ( at time 1.4399559E+01 )

 nodal point  x-rot      y-rot       z-rot       x-rot vel   y-rot vel   z-rot vel   x-rot acc   y-rot acc   z-rot acc
    22626 -5.46345E-02-1.20967E-04-9.99540E-04-8.97499E-03-5.54672E-05-3.88755E-04 2.29985E-04-1.44383E-04 1.72137E-05



 n o d a l   p r i n t   o u t   f o r   t i m e  s t e p   29003                              ( at time 1.4499549E+01 )

 nodal point  x-disp     y-disp      z-disp      x-vel       y-vel       z-vel      x-accl      y-accl      z-accl      x-coor      y-coor      z-coor
    22626 -5.61331E-03 8.57908E+00 2.44194E+00-8.64836E-03 1.45345E+00 1.48604E+00-1.92308E-02-3.16843E-02 3.35689E-01 4.65376E+00-1.96118E+01-4.25398E+01



 n o d a l   p r i n t   o u t   f o r   t i m e  s t e p   29003                              ( at time 1.4499549E+01 )

 nodal point  x-rot      y-rot       z-rot       x-rot vel   y-rot vel   z-rot vel   x-rot acc   y-rot acc   z-rot acc
    22626 -5.55322E-02-1.26941E-04-1.03942E-03-8.95217E-03-8.90796E-05-4.19835E-04 2.28309E-04-3.36158E-04-3.10830E-04



 n o d a l   p r i n t   o u t   f o r   t i m e  s t e p   29203                              ( at time 1.4599539E+01 )

 nodal point  x-disp     y-disp      z-disp      x-vel       y-vel       z-vel      x-accl      y-accl      z-accl      x-coor      y-coor      z-coor
    22626 -6.51513E-03 8.72430E+00 2.59205E+00-8.73462E-03 1.45122E+00 1.51661E+00-8.62762E-04-2.23767E-02 3.05698E-01 4.65286E+00-1.94665E+01-4.23897E+01



 n o d a l   p r i n t   o u t   f o r   t i m e  s t e p   29203                              ( at time 1.4599539E+01 )

 nodal point  x-rot      y-rot       z-rot       x-rot vel   y-rot vel   z-rot vel   x-rot acc   y-rot acc   z-rot acc
    22626 -5.64273E-02-1.35663E-04-1.08311E-03-8.94441E-03-8.52306E-05-4.46636E-04 7.75218E-05 3.84941E-05-2.68041E-04



 n o d a l   p r i n t   o u t   f o r   t i m e  s t e p   29403                              ( at time 1.4699529E+01 )

 nodal point  x-disp     y-disp      z-disp      x-vel       y-vel       z-vel      x-accl      y-accl      z-accl      x-coor      y-coor      z-coor
    22626 -7.49292E-03 8.86939E+00 2.74525E+00-9.02812E-03 1.45069E+00 1.54686E+00-2.93529E-03-5.28508E-03 3.02509E-01 4.65188E+00-1.93214E+01-4.22365E+01



 n o d a l   p r i n t   o u t   f o r   t i m e  s t e p   29403                              ( at time 1.4699529E+01 )

 nodal point  x-rot      y-rot       z-rot       x-rot vel   y-rot vel   z-rot vel   x-rot acc   y-rot acc   z-rot acc
    22626 -5.73218E-02-1.43385E-04-1.12744E-03-8.94111E-03-7.74294E-05-4.42217E-04 3.30560E-05 7.80192E-05 4.42004E-05



 n o d a l   p r i n t   o u t   f o r   t i m e  s t e p   29604                              ( at time 1.4800019E+01 )

 nodal point  x-disp     y-disp      z-disp      x-vel       y-vel       z-vel      x-accl      y-accl      z-accl      x-coor      y-coor      z-coor
    22626 -8.46848E-03 9.01510E+00 2.90226E+00-1.05333E-02 1.44874E+00 1.57775E+00-1.49787E-02-1.93457E-02 3.07442E-01 4.65091E+00-1.91757E+01-4.20795E+01



 n o d a l   p r i n t   o u t   f o r   t i m e  s t e p   29604                              ( at time 1.4800019E+01 )

 nodal point  x-rot      y-rot       z-rot       x-rot vel   y-rot vel   z-rot vel   x-rot acc   y-rot acc   z-rot acc
    22626 -5.82185E-02-1.53295E-04-1.17429E-03-8.89130E-03-1.09383E-04-4.57570E-04 4.95640E-04-3.17977E-04-1.52782E-04



 n o d a l   p r i n t   o u t   f o r   t i m e  s t e p   29804                              ( at time 1.4900009E+01 )

 nodal point  x-disp     y-disp      z-disp      x-vel       y-vel       z-vel      x-accl      y-accl      z-accl      x-coor      y-coor      z-coor
    22626 -9.61811E-03 9.15989E+00 3.06135E+00-1.16382E-02 1.44812E+00 1.60380E+00-1.10500E-02-6.23647E-03 2.60502E-01 4.64976E+00-1.90309E+01-4.19204E+01



 n o d a l   p r i n t   o u t   f o r   t i m e  s t e p   29804                              ( at time 1.4900009E+01 )

 nodal point  x-rot      y-rot       z-rot       x-rot vel   y-rot vel   z-rot vel   x-rot acc   y-rot acc   z-rot acc
    22626 -5.91081E-02-1.65321E-04-1.22332E-03-8.90303E-03-1.04871E-04-4.88455E-04-1.17303E-04 4.51273E-05-3.08881E-04



 n o d a l   p r i n t   o u t   f o r   t i m e  s t e p   30004                              ( at time 1.4999999E+01 )

 nodal point  x-disp     y-disp      z-disp      x-vel       y-vel       z-vel      x-accl      y-accl      z-accl      x-coor      y-coor      z-coor
    22626 -1.08446E-02 9.30470E+00 3.22311E+00-1.27608E-02 1.44786E+00 1.63194E+00-1.12269E-02-2.64910E-03 2.81396E-01 4.64853E+00-1.88861E+01-4.17586E+01



 n o d a l   p r i n t   o u t   f o r   t i m e  s t e p   30004                              ( at time 1.4999999E+01 )

 nodal point  x-rot      y-rot       z-rot       x-rot vel   y-rot vel   z-rot vel   x-rot acc   y-rot acc   z-rot acc
    22626 -5.99992E-02-1.76983E-04-1.27448E-03-8.90132E-03-1.09689E-04-5.33821E-04 1.71194E-05-4.81828E-05-4.53712E-04



 n o d a l   p r i n t   o u t   f o r   t i m e  s t e p   30204                              ( at time 1.5099989E+01 )

 nodal point  x-disp     y-disp      z-disp      x-vel       y-vel       z-vel      x-accl      y-accl      z-accl      x-coor      y-coor      z-coor
    22626 -1.21330E-02 9.44950E+00 3.38755E+00-1.41583E-02 1.44846E+00 1.65753E+00-1.39768E-02 6.08863E-03 2.55924E-01 4.64724E+00-1.87413E+01-4.15942E+01



 n o d a l   p r i n t   o u t   f o r   t i m e  s t e p   30204                              ( at time 1.5099989E+01 )

 nodal point  x-rot      y-rot       z-rot       x-rot vel   y-rot vel   z-rot vel   x-rot acc   y-rot acc   z-rot acc
    22626 -6.08894E-02-1.89671E-04-1.32768E-03-8.89360E-03-1.42497E-04-5.35203E-04 7.72051E-05-3.28120E-04-1.38199E-05



 n o d a l   p r i n t   o u t   f o r   t i m e  s t e p   30404                              ( at time 1.5199979E+01 )

 nodal point  x-disp     y-disp      z-disp      x-vel       y-vel       z-vel      x-accl      y-accl      z-accl      x-coor      y-coor      z-coor
    22626 -1.35518E-02 9.59432E+00 3.55447E+00-1.54707E-02 1.44812E+00 1.68125E+00-1.31248E-02-3.48365E-03 2.37218E-01 4.64582E+00-1.85965E+01-4.14272E+01



 n o d a l   p r i n t   o u t   f o r   t i m e  s t e p   30404                              ( at time 1.5199979E+01 )

 nodal point  x-rot      y-rot       z-rot       x-rot vel   y-rot vel   z-rot vel   x-rot acc   y-rot acc   z-rot acc
    22626 -6.17794E-02-2.05703E-04-1.38273E-03-8.92473E-03-1.65023E-04-5.84696E-04-3.11345E-04-2.25280E-04-4.94978E-04



 n o d a l   p r i n t   o u t   f o r   t i m e  s t e p   30604                              ( at time 1.5299969E+01 )

 nodal point  x-disp     y-disp      z-disp      x-vel       y-vel       z-vel      x-accl      y-accl      z-accl      x-coor      y-coor      z-coor
    22626 -1.51643E-02 9.73917E+00 3.72373E+00-1.66805E-02 1.45045E+00 1.70364E+00-1.20989E-02 2.33304E-02 2.23937E-01 4.64421E+00-1.84517E+01-4.12580E+01



 n o d a l   p r i n t   o u t   f o r   t i m e  s t e p   30604                              ( at time 1.5299969E+01 )

 nodal point  x-rot      y-rot       z-rot       x-rot vel   y-rot vel   z-rot vel   x-rot acc   y-rot acc   z-rot acc
    22626 -6.26708E-02-2.21496E-04-1.44083E-03-8.92582E-03-1.56936E-04-5.89683E-04-1.09255E-05 8.08771E-05-4.98768E-05
