 LSTC 50th% Full_FE H-III Dummy (Beta Version, February 17, 2019)        
                    ls-dyna smp s R16 R16.0_619_d222963 date 03/18/2025

{BEGIN LEGEND}
 Entity #        Title
        1     Upper_Neck_Force_INJURY                                              
{END LEGEND}



 line#1  section#     time        x-force     y-force     z-force    magnitude
 line#2  resultant  moments       x-moment    y-moment    z-moment   magnitude
 line#3  centroids                x           y           z            area  
           1    0.00000E+00     0.0000E+00  0.0000E+00  0.0000E+00  0.0000E+00
ac ID =   33377                 0.0000E+00  0.0000E+00  0.0000E+00  0.0000E+00
                               -3.7437E-01  1.0501E+01 -4.6940E+01  0.0000E+00

           1    1.00490E-01     1.3580E-04 -4.9878E-03  2.5982E-01  2.5987E-01
ac ID =   33377                 4.2550E-01 -1.2522E+00 -2.7107E-02  1.3228E+00
                               -3.7387E-01  1.0590E+01 -4.6886E+01  2.5147E+03

           1    2.00480E-01    -4.4400E-02  5.5768E-04  4.4122E-01  4.4345E-01
ac ID =   33377                 3.1186E-01 -1.5965E+00  2.0490E-02  1.6268E+00
                               -3.7386E-01  1.0591E+01 -4.6888E+01  2.5147E+03

           1    3.00470E-01     1.4794E-02 -2.7754E-03  2.1736E-01  2.1788E-01
ac ID =   33377                 2.6612E-02 -3.3713E-01  6.0025E-02  3.4347E-01
                               -3.7382E-01  1.0591E+01 -4.6889E+01  2.5147E+03

           1    4.00460E-01     2.6922E-03  1.0821E-02  8.7924E-02  8.8629E-02
ac ID =   33377                -4.9621E-01 -9.4819E-01 -1.9438E-03  1.0702E+00
                               -3.7384E-01  1.0592E+01 -4.6890E+01  2.5147E+03

           1    5.00450E-01    -4.0599E-02  4.4356E-03  1.6200E-01  1.6707E-01
ac ID =   33377                -3.9334E-01 -1.5113E+00 -1.1242E-01  1.5657E+00
                               -3.7385E-01  1.0594E+01 -4.6893E+01  2.5147E+03

           1    6.00440E-01    -1.1739E-02  4.0401E-03  3.4487E-01  3.4509E-01
ac ID =   33377                 9.4604E-02 -1.3586E+00 -3.7894E-02  1.3624E+00
                               -3.7385E-01  1.0595E+01 -4.6897E+01  2.5147E+03

           1    7.00430E-01     4.0606E-04 -4.8123E-03  2.9825E-01  2.9829E-01
ac ID =   33377                 1.3689E-01 -5.7572E-01  8.0699E-02  5.9725E-01
                               -3.7389E-01  1.0597E+01 -4.6901E+01  2.5147E+03

           1    8.00420E-01    -3.1128E-02 -2.1035E-04  1.0558E-01  1.1008E-01
ac ID =   33377                 6.1467E-02 -1.1002E+00  4.1840E-02  1.1027E+00
                               -3.7393E-01  1.0599E+01 -4.6905E+01  2.5147E+03

           1    9.00410E-01    -4.0337E-02  1.4307E-03  6.6745E-02  7.8000E-02
ac ID =   33377                 7.4073E-02 -1.1238E+00 -1.3466E-02  1.1263E+00
                               -3.7395E-01  1.0601E+01 -4.6909E+01  2.5147E+03

           1    1.00040E+00     1.1977E-02 -2.5434E-03  2.2746E-01  2.2778E-01
ac ID =   33377                 3.2271E-01 -3.7876E-01 -6.9992E-02  5.0249E-01
                               -3.7394E-01  1.0604E+01 -4.6915E+01  2.5147E+03

           1    1.10039E+00     9.8713E-04  3.3739E-03  2.8094E-01  2.8096E-01
ac ID =   33377                 1.7780E-01 -9.5437E-01  3.2386E-03  9.7080E-01
                               -3.7388E-01  1.0606E+01 -4.6921E+01  2.5147E+03

           1    1.20038E+00    -3.1994E-02  1.6578E-03  1.3798E-01  1.4165E-01
ac ID =   33377                -2.2466E-01 -1.1718E+00  1.4809E-02  1.1933E+00
                               -3.7382E-01  1.0609E+01 -4.6926E+01  2.5147E+03

           1    1.30037E+00    -1.2193E-02  4.3817E-03  8.6809E-02  8.7771E-02
ac ID =   33377                -3.1406E-01 -1.0303E+00  3.4858E-02  1.0776E+00
                               -3.7374E-01  1.0612E+01 -4.6932E+01  2.5147E+03

           1    1.40036E+00     5.2958E-03  1.3326E-02  1.8720E-01  1.8775E-01
ac ID =   33377                -5.7036E-01 -8.9955E-01  7.0292E-02  1.0674E+00
                               -3.7364E-01  1.0615E+01 -4.6939E+01  2.5147E+03

           1    1.50035E+00    -3.6727E-02  8.2951E-03  3.5252E-01  3.5452E-01
ac ID =   33377                -1.5808E-01 -1.9941E+00 -2.1902E-02  2.0004E+00
                               -3.7352E-01  1.0618E+01 -4.6946E+01  2.5147E+03

           1    1.60034E+00    -2.6086E-02 -5.0393E-03  2.4233E-01  2.4379E-01
ac ID =   33377                -2.2633E-02 -1.6656E+00 -1.1534E-01  1.6698E+00
                               -3.7339E-01  1.0622E+01 -4.6954E+01  2.5147E+03

           1    1.70033E+00    -9.5944E-03  6.9663E-03  8.0577E-02  8.1445E-02
ac ID =   33377                -1.5692E-01 -1.1162E+00  1.0940E-01  1.1325E+00
                               -3.7327E-01  1.0625E+01 -4.6961E+01  2.5147E+03

           1    1.80032E+00    -2.8222E-02  4.5979E-03  8.7099E-02  9.1672E-02
ac ID =   33377                 6.0969E-02 -1.4127E+00  2.3800E-01  1.4339E+00
                               -3.7315E-01  1.0628E+01 -4.6969E+01  2.5147E+03

           1    1.90031E+00    -1.2514E-02  2.7629E-03  2.0465E-01  2.0505E-01
ac ID =   33377                 1.4218E-01 -1.2081E+00  1.7709E-02  1.2166E+00
                               -3.7299E-01  1.0632E+01 -4.6978E+01  2.5147E+03

           1    2.00030E+00     1.3357E-04 -2.3969E-03  1.6664E-01  1.6666E-01
ac ID =   33377                 1.1289E-02 -5.8681E-01 -2.1279E-01  6.2430E-01
                               -3.7282E-01  1.0636E+01 -4.6987E+01  2.5147E+03

           1    2.10029E+00    -3.0633E-02  4.8175E-03  1.2987E-02  3.3620E-02
ac ID =   33377                -2.4844E-02 -9.2125E-01  8.2726E-02  9.2529E-01
                               -3.7267E-01  1.0640E+01 -4.6995E+01  2.5147E+03

           1    2.20028E+00    -3.0670E-02  1.6843E-02  1.9113E-02  3.9870E-02
ac ID =   33377                -6.1032E-01 -1.2148E+00  3.2163E-01  1.3970E+00
                               -3.7246E-01  1.0644E+01 -4.7005E+01  2.5147E+03

           1    2.30027E+00    -1.2252E-03  1.4754E-02  1.6151E-01  1.6218E-01
ac ID =   33377                -5.4846E-01 -1.1778E+00  4.6366E-02  1.3000E+00
                               -3.7220E-01  1.0648E+01 -4.7015E+01  2.5147E+03

           1    2.40026E+00    -2.9509E-02 -1.3477E-02  1.9925E-01  2.0187E-01
ac ID =   33377                -2.4082E-01 -1.8443E+00  2.4512E-02  1.8601E+00
                               -3.7196E-01  1.0652E+01 -4.7025E+01  2.5147E+03

           1    2.50025E+00    -3.0164E-02 -2.1471E-02  1.0473E-02  3.8478E-02
ac ID =   33377                 1.1177E-01 -1.4675E+00  9.6745E-02  1.4750E+00
                               -3.7186E-01  1.0656E+01 -4.7035E+01  2.5147E+03

           1    2.60024E+00    -5.9459E-03  7.1059E-03 -5.8797E-02  5.9523E-02
ac ID =   33377                -2.2351E-01 -6.2033E-01 -9.3840E-02  6.6602E-01
                               -3.7197E-01  1.0661E+01 -4.7045E+01  2.5147E+03

           1    2.70023E+00    -1.5488E-02  1.5466E-02  2.0648E-02  3.0090E-02
ac ID =   33377                -9.7282E-02 -4.2441E-01  6.4840E-02  4.4022E-01
                               -3.7204E-01  1.0665E+01 -4.7056E+01  2.5147E+03

           1    2.80022E+00    -2.2534E-02  4.7802E-04  8.0694E-02  8.3782E-02
ac ID =   33377                 3.2585E-01 -7.7304E-01  8.2772E-02  8.4299E-01
                               -3.7191E-01  1.0670E+01 -4.7067E+01  2.5147E+03

           1    2.90021E+00    -2.1585E-03 -1.1446E-02  6.5047E-03  1.3341E-02
ac ID =   33377                -4.3937E-02 -1.1418E-01 -3.3801E-02  1.2693E-01
                               -3.7170E-01  1.0674E+01 -4.7078E+01  2.5147E+03

           1    3.00020E+00    -8.8067E-03 -9.4559E-03 -7.7399E-02  7.8471E-02
ac ID =   33377                 1.1271E-01 -5.1369E-01 -1.5750E-01  5.4898E-01
                               -3.7161E-01  1.0678E+01 -4.7088E+01  2.5147E+03

           1    3.10019E+00    -1.8836E-02  7.8668E-03  9.2943E-03  2.2429E-02
ac ID =   33377                -6.3014E-01 -9.7337E-01  1.5784E-02  1.1596E+00
                               -3.7160E-01  1.0683E+01 -4.7100E+01  2.5147E+03

           1    3.20018E+00    -8.5210E-03  2.3050E-02  9.1446E-02  9.4691E-02
ac ID =   33377                -5.9447E-01 -9.3870E-01 -1.8758E-02  1.1113E+00
                               -3.7154E-01  1.0688E+01 -4.7111E+01  2.5147E+03

           1    3.30017E+00    -1.2334E-02 -4.4261E-03  4.3349E-02  4.5286E-02
ac ID =   33377                -2.2473E-01 -1.1120E+00  1.8688E-01  1.1497E+00
                               -3.7143E-01  1.0692E+01 -4.7123E+01  2.5147E+03

           1    3.40016E+00    -1.1355E-02 -3.5082E-03 -7.5693E-02  7.6621E-02
ac ID =   33377                 1.2288E-01 -6.6127E-01  1.6026E-01  6.9142E-01
                               -3.7134E-01  1.0696E+01 -4.7134E+01  2.5147E+03

           1    3.50015E+00    -8.7257E-03  1.0402E-02 -1.1140E-01  1.1222E-01
ac ID =   33377                -5.1020E-01 -4.3530E-01  1.5505E-02  6.7084E-01
                               -3.7127E-01  1.0700E+01 -4.7146E+01  2.5147E+03

           1    3.60014E+00    -8.7520E-03 -1.2261E-02 -2.7621E-02  3.1462E-02
ac ID =   33377                 4.7601E-01 -2.4144E-02 -3.4279E-01  5.8709E-01
                               -3.7125E-01  1.0705E+01 -4.7158E+01  2.5147E+03

           1    3.70013E+00     2.1117E-03 -1.2387E-02 -1.2480E-02  1.7710E-02
ac ID =   33377                 4.8360E-01  9.0822E-02 -3.9685E-01  6.3215E-01
                               -3.7122E-01  1.0709E+01 -4.7169E+01  2.5147E+03

           1    3.80012E+00    -1.4331E-02  6.6328E-03 -9.9789E-02  1.0103E-01
ac ID =   33377                -3.4527E-02  1.6174E-01 -1.4246E-01  2.1828E-01
                               -3.7119E-01  1.0713E+01 -4.7181E+01  2.5147E+03

           1    3.90011E+00     5.7807E-03  1.1780E-02 -1.7093E-01  1.7144E-01
ac ID =   33377                -3.7624E-01  2.8126E-01  6.5290E-02  4.7427E-01
                               -3.7107E-01  1.0716E+01 -4.7192E+01  2.5147E+03

           1    4.00010E+00    -6.3612E-03 -1.3454E-02 -1.2555E-01  1.2643E-01
ac ID =   33377                -1.5570E-01 -6.8914E-02  1.2878E-01  2.1349E-01
                               -3.7094E-01  1.0720E+01 -4.7203E+01  2.5147E+03

           1    4.10009E+00    -1.5221E-02 -5.2068E-03 -6.7250E-02  6.9148E-02
ac ID =   33377                -2.5279E-01 -3.9743E-01 -9.8673E-02  4.8124E-01
                               -3.7094E-01  1.0724E+01 -4.7215E+01  2.5147E+03

           1    4.20008E+00    -1.6973E-03  3.7410E-03 -1.1304E-01  1.1311E-01
ac ID =   33377                -2.8472E-01 -4.8350E-02  1.1016E-02  2.8900E-01
                               -3.7103E-01  1.0727E+01 -4.7226E+01  2.5147E+03

           1    4.30007E+00    -4.9357E-03  6.4024E-03 -2.1627E-01  2.1642E-01
ac ID =   33377                -9.8408E-02  1.1908E-02  2.4029E-02  1.0200E-01
                               -3.7112E-01  1.0730E+01 -4.7236E+01  2.5147E+03

           1    4.40006E+00     1.1499E-02 -4.0165E-04 -1.9551E-01  1.9584E-01
ac ID =   33377                -4.3325E-02  4.1197E-01  1.1700E-01  4.3045E-01
                               -3.7117E-01  1.0734E+01 -4.7247E+01  2.5147E+03

           1    4.50005E+00    -2.6226E-03 -2.9262E-03 -9.5181E-02  9.5262E-02
ac ID =   33377                 4.7298E-01  1.6551E-02  1.3486E-01  4.9211E-01
                               -3.7119E-01  1.0737E+01 -4.7258E+01  2.5147E+03

           1    4.60004E+00    -2.8474E-03 -1.7310E-02 -1.2509E-01  1.2631E-01
ac ID =   33377                 5.2633E-01  5.6090E-02 -2.0040E-01  5.6598E-01
                               -3.7125E-01  1.0740E+01 -4.7268E+01  2.5147E+03

           1    4.70003E+00     2.9442E-04  1.3441E-02 -1.9893E-01  1.9938E-01
ac ID =   33377                -4.4291E-02 -1.4373E-02 -1.3957E-01  1.4713E-01
                               -3.7130E-01  1.0742E+01 -4.7278E+01  2.5147E+03

           1    4.80002E+00     1.6520E-03  2.6256E-02 -2.3243E-01  2.3392E-01
ac ID =   33377                -8.5984E-01  8.0260E-02  1.6459E-01  8.7912E-01
                               -3.7129E-01  1.0744E+01 -4.7288E+01  2.5147E+03

           1    4.90001E+00    -4.6454E-03 -6.6011E-03 -1.7261E-01  1.7280E-01
ac ID =   33377                -6.3442E-02 -4.1761E-03  2.0463E-01  2.1428E-01
                               -3.7112E-01  1.0747E+01 -4.7298E+01  2.5147E+03

           1    5.00000E+00    -3.3027E-03 -9.7276E-03 -1.2882E-01  1.2923E-01
ac ID =   33377                -4.6089E-01 -1.4818E-02  1.3948E-01  4.8176E-01
                               -3.7099E-01  1.0749E+01 -4.7307E+01  2.5147E+03

           1    5.10049E+00     9.8042E-03  1.5120E-02 -2.0984E-01  2.1061E-01
ac ID =   33377                -4.9665E-01  2.3334E-01  3.3989E-02  5.4978E-01
                               -3.7099E-01  1.0750E+01 -4.7316E+01  2.5147E+03

           1    5.20048E+00     1.1854E-02  1.7988E-02 -2.5196E-01  2.5288E-01
ac ID =   33377                -4.8560E-01  5.3480E-01 -1.8041E-01  7.4456E-01
                               -3.7093E-01  1.0752E+01 -4.7325E+01  2.5147E+03

           1    5.30047E+00     1.1335E-02 -4.1420E-03 -2.2127E-01  2.2160E-01
ac ID =   33377                 7.0579E-02  4.2101E-01 -1.4322E-01  4.5027E-01
                               -3.7075E-01  1.0754E+01 -4.7333E+01  2.5147E+03

           1    5.40046E+00     1.4022E-02 -1.1543E-02 -1.8667E-01  1.8755E-01
ac ID =   33377                 4.4245E-01  4.8292E-01  1.4296E-01  6.7038E-01
                               -3.7052E-01  1.0756E+01 -4.7342E+01  2.5147E+03

           1    5.50045E+00     2.8536E-02  5.0238E-03 -2.5768E-01  2.5930E-01
ac ID =   33377                -2.2631E-01  8.4635E-01 -1.2087E-01  8.8438E-01
                               -3.7036E-01  1.0758E+01 -4.7350E+01  2.5147E+03

           1    5.60044E+00     1.7924E-02  1.0192E-02 -3.4502E-01  3.4564E-01
ac ID =   33377                -2.3200E-01  8.0820E-01 -1.3469E-01  8.5156E-01
                               -3.7015E-01  1.0760E+01 -4.7358E+01  2.5147E+03

           1    5.70043E+00     1.6137E-02  3.5557E-03 -3.4840E-01  3.4879E-01
ac ID =   33377                -7.4405E-01  7.1857E-01 -2.1159E-01  1.0558E+00
                               -3.6989E-01  1.0762E+01 -4.7365E+01  2.5147E+03

           1    5.80042E+00     2.8107E-02 -5.9826E-04 -2.8531E-01  2.8670E-01
ac ID =   33377                -3.5179E-01  6.7454E-01 -1.2525E-01  7.7100E-01
                               -3.6962E-01  1.0765E+01 -4.7373E+01  2.5147E+03

           1    5.90041E+00     3.5435E-02  5.5973E-03 -2.9077E-01  2.9298E-01
ac ID =   33377                -7.7475E-01  8.8042E-01  6.7964E-02  1.1747E+00
                               -3.6940E-01  1.0767E+01 -4.7380E+01  2.5147E+03

           1    6.00040E+00     4.5226E-02  7.5714E-03 -3.7804E-01  3.8081E-01
ac ID =   33377                -2.3179E-01  1.0763E+00  1.0837E-01  1.1063E+00
                               -3.6930E-01  1.0771E+01 -4.7387E+01  2.5147E+03

           1    6.10039E+00     4.3826E-02 -3.3862E-03 -3.7886E-01  3.8140E-01
ac ID =   33377                -1.2616E-01  1.1126E+00 -1.8698E-01  1.1353E+00
                               -3.6919E-01  1.0775E+01 -4.7394E+01  2.5147E+03

           1    6.20038E+00     5.0344E-02  4.8453E-03 -3.3540E-01  3.3919E-01
ac ID =   33377                -1.8144E-01  8.3377E-01 -2.7805E-01  8.9745E-01
                               -3.6911E-01  1.0780E+01 -4.7401E+01  2.5147E+03

           1    6.30037E+00     4.7853E-02 -4.5411E-03 -3.4053E-01  3.4390E-01
ac ID =   33377                 1.5598E-01  8.4233E-01  6.9421E-02  8.5946E-01
                               -3.6902E-01  1.0786E+01 -4.7408E+01  2.5147E+03

           1    6.40036E+00     6.1782E-02 -3.9534E-03 -4.3179E-01  4.3620E-01
ac ID =   33377                -1.1767E-01  1.2283E+00  1.6760E-01  1.2453E+00
                               -3.6888E-01  1.0792E+01 -4.7415E+01  2.5147E+03

           1    6.50035E+00     6.9059E-02  7.9495E-03 -4.9826E-01  5.0309E-01
ac ID =   33377                -5.6980E-01  1.7592E+00  1.4588E-01  1.8549E+00
                               -3.6880E-01  1.0800E+01 -4.7422E+01  2.5147E+03

           1    6.60034E+00     7.3663E-02  1.5202E-02 -4.6406E-01  4.7012E-01
ac ID =   33377                -8.1313E-01  1.8278E+00  5.7113E-02  2.0014E+00
                               -3.6873E-01  1.0810E+01 -4.7429E+01  2.5147E+03

           1    6.70033E+00     8.9424E-02  3.3397E-03 -4.5497E-01  4.6369E-01
ac ID =   33377                -6.9679E-01  2.0609E+00  8.0028E-02  2.1769E+00
                               -3.6861E-01  1.0821E+01 -4.7437E+01  2.5147E+03

           1    6.80032E+00     8.7018E-02  2.0261E-02 -4.9846E-01  5.0640E-01
ac ID =   33377                -1.0504E+00  2.0043E+00  8.3105E-02  2.2644E+00
                               -3.6852E-01  1.0834E+01 -4.7445E+01  2.5147E+03

           1    6.90031E+00     9.3224E-02  1.5961E-02 -5.6264E-01  5.7053E-01
ac ID =   33377                -8.5905E-01  2.1092E+00 -3.5044E-02  2.2777E+00
                               -3.6840E-01  1.0849E+01 -4.7454E+01  2.5147E+03

           1    7.00030E+00     1.1371E-01 -4.8738E-03 -5.8085E-01  5.9189E-01
ac ID =   33377                -4.2754E-01  2.5774E+00 -1.5668E-01  2.6173E+00
                               -3.6822E-01  1.0866E+01 -4.7463E+01  2.5147E+03

           1    7.10029E+00     1.0971E-01  7.6639E-04 -5.7164E-01  5.8207E-01
ac ID =   33377                -1.5095E-01  2.3533E+00 -2.5575E-02  2.3582E+00
                               -3.6808E-01  1.0885E+01 -4.7473E+01  2.5147E+03

           1    7.20028E+00     1.0784E-01  2.0353E-02 -6.4543E-01  6.5469E-01
ac ID =   33377                -7.1590E-01  2.6475E+00  1.8120E-01  2.7486E+00
                               -3.6798E-01  1.0906E+01 -4.7483E+01  2.5147E+03

           1    7.30027E+00     1.2040E-01  1.1008E-02 -7.3753E-01  7.4737E-01
ac ID =   33377                -4.4922E-01  3.0308E+00  5.2575E-02  3.0644E+00
                               -3.6776E-01  1.0930E+01 -4.7494E+01  2.5147E+03

           1    7.40026E+00     1.5129E-01 -4.8651E-03 -7.8894E-01  8.0333E-01
ac ID =   33377                -4.4359E-01  3.8408E+00  3.9160E-02  3.8665E+00
                               -3.6749E-01  1.0956E+01 -4.7506E+01  2.5147E+03

           1    7.50025E+00     1.3094E-01  1.1714E-02 -7.5957E-01  7.7087E-01
ac ID =   33377                -5.8588E-01  3.7069E+00  1.4984E-01  3.7559E+00
                               -3.6732E-01  1.0985E+01 -4.7519E+01  2.5147E+03

           1    7.60024E+00     1.4497E-01  1.5667E-02 -7.8670E-01  8.0010E-01
ac ID =   33377                -8.9399E-01  3.8911E+00  2.3148E-01  3.9991E+00
                               -3.6718E-01  1.1017E+01 -4.7532E+01  2.5147E+03

           1    7.70023E+00     1.6420E-01  1.9042E-03 -8.4565E-01  8.6145E-01
ac ID =   33377                -4.9968E-01  4.4742E+00 -2.0256E-01  4.5066E+00
                               -3.6705E-01  1.1051E+01 -4.7546E+01  2.5147E+03

           1    7.80022E+00     1.5294E-01 -4.2794E-03 -8.9869E-01  9.1162E-01
ac ID =   33377                -5.2809E-01  4.0961E+00 -2.2255E-01  4.1360E+00
                               -3.6695E-01  1.1088E+01 -4.7561E+01  2.5147E+03

           1    7.90021E+00     1.4642E-01  1.2784E-02 -9.1304E-01  9.2480E-01
ac ID =   33377                -6.4429E-01  4.2873E+00 -3.4024E-01  4.3488E+00
                               -3.6692E-01  1.1129E+01 -4.7577E+01  2.5147E+03

           1    8.00020E+00     1.7085E-01 -8.1679E-03 -9.2276E-01  9.3848E-01
ac ID =   33377                -3.8873E-02  4.4321E+00 -3.0157E-02  4.4323E+00
                               -3.6687E-01  1.1172E+01 -4.7593E+01  2.5147E+03

           1    8.10019E+00     1.9698E-01 -2.4926E-03 -1.0330E+00  1.0516E+00
ac ID =   33377                -3.0821E-01  5.6873E+00  2.3767E-01  5.7006E+00
                               -3.6688E-01  1.1219E+01 -4.7611E+01  2.5147E+03

           1    8.20018E+00     1.7539E-01  1.5144E-02 -1.1021E+00  1.1160E+00
ac ID =   33377                -8.2231E-01  5.5881E+00  2.6719E-01  5.6546E+00
                               -3.6691E-01  1.1269E+01 -4.7629E+01  2.5147E+03

           1    8.30017E+00     1.9079E-01  5.9997E-03 -1.1377E+00  1.1536E+00
ac ID =   33377                -6.0232E-01  6.0355E+00  8.0625E-02  6.0661E+00
                               -3.6690E-01  1.1322E+01 -4.7648E+01  2.5147E+03

           1    8.40016E+00     2.1162E-01 -5.9008E-03 -1.1556E+00  1.1749E+00
ac ID =   33377                -5.2277E-01  6.6069E+00 -1.0500E-01  6.6284E+00
                               -3.6683E-01  1.1378E+01 -4.7669E+01  2.5147E+03

           1    8.50015E+00     2.0220E-01  1.8232E-02 -1.2176E+00  1.2344E+00
ac ID =   33377                -9.7840E-01  6.4883E+00 -1.4612E-01  6.5632E+00
                               -3.6686E-01  1.1438E+01 -4.7689E+01  2.5147E+03

           1    8.60014E+00     2.0295E-01  6.8768E-03 -1.3210E+00  1.3365E+00
ac ID =   33377                -8.3434E-01  7.0165E+00 -1.1417E-01  7.0669E+00
                               -3.6682E-01  1.1500E+01 -4.7711E+01  2.5147E+03

           1    8.70013E+00     2.1713E-01 -3.1565E-04 -1.3719E+00  1.3889E+00
ac ID =   33377                -5.6966E-01  7.2431E+00  3.8987E-02  7.2656E+00
                               -3.6677E-01  1.1567E+01 -4.7733E+01  2.5147E+03

           1    8.80012E+00     2.2338E-01 -1.4376E-03 -1.4225E+00  1.4399E+00
ac ID =   33377                -4.5900E-01  7.5262E+00 -2.5936E-01  7.5446E+00
                               -3.6676E-01  1.1636E+01 -4.7756E+01  2.5147E+03

           1    8.90011E+00     2.2442E-01  7.4067E-03 -1.4937E+00  1.5105E+00
ac ID =   33377                -5.3157E-01  8.0264E+00  9.9045E-02  8.0446E+00
                               -3.6675E-01  1.1709E+01 -4.7780E+01  2.5147E+03

           1    9.00010E+00     2.3941E-01  2.0849E-03 -1.5933E+00  1.6112E+00
ac ID =   33377                -3.2249E-01  8.5830E+00  1.8152E-01  8.5910E+00
                               -3.6671E-01  1.1785E+01 -4.7804E+01  2.5147E+03

           1    9.10009E+00     2.4592E-01  2.4812E-03 -1.6545E+00  1.6726E+00
ac ID =   33377                -6.2056E-01  8.9847E+00  1.5347E-01  9.0074E+00
                               -3.6661E-01  1.1864E+01 -4.7828E+01  2.5147E+03

           1    9.20008E+00     2.5016E-01  8.0289E-03 -1.7043E+00  1.7226E+00
ac ID =   33377                -6.2235E-01  9.0892E+00  8.8739E-02  9.1110E+00
                               -3.6647E-01  1.1947E+01 -4.7852E+01  2.5147E+03

           1    9.30007E+00     2.4729E-01 -1.6146E-03 -1.7674E+00  1.7846E+00
ac ID =   33377                -5.9186E-01  9.2483E+00  2.6150E-02  9.2672E+00
                               -3.6635E-01  1.2033E+01 -4.7877E+01  2.5147E+03

           1    9.40006E+00     2.6770E-01  1.5131E-02 -1.8715E+00  1.8906E+00
ac ID =   33377                -8.4642E-01  9.8291E+00  1.2325E-01  9.8662E+00
                               -3.6622E-01  1.2122E+01 -4.7902E+01  2.5147E+03

           1    9.50005E+00     2.6634E-01  7.1778E-03 -1.9489E+00  1.9670E+00
ac ID =   33377                -1.0130E+00  1.0324E+01  5.3872E-02  1.0374E+01
                               -3.6605E-01  1.2214E+01 -4.7927E+01  2.5147E+03

           1    9.60004E+00     2.6858E-01  6.0887E-03 -1.9965E+00  2.0145E+00
ac ID =   33377                -7.1290E-01  1.0517E+01  1.2485E-01  1.0542E+01
                               -3.6586E-01  1.2310E+01 -4.7952E+01  2.5147E+03

           1    9.70003E+00     2.9134E-01  1.4413E-03 -2.0560E+00  2.0766E+00
ac ID =   33377                -4.7388E-01  1.1468E+01 -1.8399E-01  1.1480E+01
                               -3.6564E-01  1.2408E+01 -4.7977E+01  2.5147E+03

           1    9.80002E+00     2.9477E-01  6.4940E-03 -2.1435E+00  2.1636E+00
ac ID =   33377                -6.9892E-01  1.1813E+01  7.3556E-02  1.1834E+01
                               -3.6536E-01  1.2510E+01 -4.8001E+01  2.5147E+03

           1    9.90001E+00     2.9166E-01  4.1164E-03 -2.2451E+00  2.2640E+00
ac ID =   33377                -7.0085E-01  1.2334E+01  1.4706E-01  1.2354E+01
                               -3.6508E-01  1.2615E+01 -4.8025E+01  2.5147E+03

           1    1.00005E+01     3.1499E-01  6.2389E-03 -2.3228E+00  2.3440E+00
ac ID =   33377                -7.5974E-01  1.3203E+01 -2.4025E-02  1.3225E+01
                               -3.6478E-01  1.2723E+01 -4.8049E+01  2.5147E+03

           1    1.01005E+01     3.3573E-01  4.1776E-03 -2.4105E+00  2.4338E+00
ac ID =   33377                -9.0610E-01  1.3972E+01 -4.9807E-02  1.4001E+01
                               -3.6442E-01  1.2834E+01 -4.8073E+01  2.5147E+03

           1    1.02005E+01     3.2465E-01  1.1140E-02 -2.5158E+00  2.5367E+00
ac ID =   33377                -1.2499E+00  1.4332E+01 -2.8006E-01  1.4389E+01
                               -3.6407E-01  1.2947E+01 -4.8096E+01  2.5147E+03

           1    1.03005E+01     3.4317E-01  9.9500E-03 -2.6237E+00  2.6461E+00
ac ID =   33377                -1.0019E+00  1.5175E+01 -2.7780E-01  1.5211E+01
                               -3.6373E-01  1.3064E+01 -4.8118E+01  2.5147E+03

           1    1.04005E+01     3.5023E-01  5.9926E-03 -2.7194E+00  2.7419E+00
ac ID =   33377                -1.0519E+00  1.5838E+01 -1.2895E-01  1.5873E+01
                               -3.6337E-01  1.3183E+01 -4.8139E+01  2.5147E+03

           1    1.05004E+01     3.6372E-01  7.1747E-03 -2.7706E+00  2.7944E+00
ac ID =   33377                -9.8881E-01  1.6435E+01  9.8670E-02  1.6465E+01
                               -3.6299E-01  1.3305E+01 -4.8159E+01  2.5147E+03

           1    1.06004E+01     3.5954E-01  9.7889E-03 -2.8218E+00  2.8447E+00
ac ID =   33377                -7.5603E-01  1.6914E+01  3.4150E-02  1.6931E+01
                               -3.6259E-01  1.3429E+01 -4.8179E+01  2.5147E+03

           1    1.07004E+01     3.8200E-01  3.6833E-03 -2.9268E+00  2.9517E+00
ac ID =   33377                -9.2921E-01  1.7718E+01 -1.5935E-01  1.7743E+01
                               -3.6212E-01  1.3556E+01 -4.8196E+01  2.5147E+03

           1    1.08004E+01     3.7659E-01  9.4603E-04 -3.0179E+00  3.0413E+00
ac ID =   33377                -8.2894E-01  1.8049E+01 -1.6316E-01  1.8069E+01
                               -3.6160E-01  1.3685E+01 -4.8213E+01  2.5147E+03

           1    1.09004E+01     3.8041E-01  8.0051E-03 -3.0713E+00  3.0948E+00
ac ID =   33377                -1.2595E+00  1.8329E+01  1.4845E-01  1.8373E+01
                               -3.6109E-01  1.3817E+01 -4.8227E+01  2.5147E+03

           1    1.10004E+01     3.9386E-01  1.0612E-02 -3.1427E+00  3.1673E+00
ac ID =   33377                -1.0182E+00  1.8983E+01  2.9663E-01  1.9012E+01
                               -3.6059E-01  1.3950E+01 -4.8240E+01  2.5147E+03

           1    1.11004E+01     4.1853E-01  1.1116E-02 -3.2459E+00  3.2728E+00
ac ID =   33377                -1.3816E+00  2.0286E+01  3.2797E-02  2.0333E+01
                               -3.6002E-01  1.4085E+01 -4.8251E+01  2.5147E+03

           1    1.12004E+01     3.9958E-01  6.3564E-03 -3.2999E+00  3.3240E+00
ac ID =   33377                -9.9368E-01  2.0611E+01 -4.9469E-01  2.0640E+01
                               -3.5952E-01  1.4222E+01 -4.8259E+01  2.5147E+03

           1    1.13004E+01     4.0019E-01  7.2280E-03 -3.3343E+00  3.3583E+00
ac ID =   33377                -1.0694E+00  2.0953E+01 -3.1098E-01  2.0983E+01
                               -3.5899E-01  1.4360E+01 -4.8265E+01  2.5147E+03

           1    1.14004E+01     4.2473E-01  1.2400E-02 -3.3764E+00  3.4031E+00
ac ID =   33377                -9.4583E-01  2.1512E+01 -2.1451E-01  2.1533E+01
                               -3.5846E-01  1.4500E+01 -4.8269E+01  2.5147E+03

           1    1.15003E+01     4.2678E-01  5.4494E-03 -3.4446E+00  3.4709E+00
ac ID =   33377                -8.9352E-01  2.1880E+01 -9.9391E-02  2.1898E+01
                               -3.5791E-01  1.4641E+01 -4.8270E+01  2.5147E+03

           1    1.16003E+01     4.1203E-01  2.6167E-05 -3.5200E+00  3.5440E+00
ac ID =   33377                -9.4870E-01  2.2536E+01 -1.6917E-01  2.2557E+01
                               -3.5736E-01  1.4783E+01 -4.8267E+01  2.5147E+03

           1    1.17003E+01     4.3604E-01  6.9163E-03 -3.6041E+00  3.6304E+00
ac ID =   33377                -1.2667E+00  2.3502E+01 -3.6797E-01  2.3539E+01
                               -3.5682E-01  1.4926E+01 -4.8262E+01  2.5147E+03

           1    1.18003E+01     4.5457E-01  5.1793E-03 -3.6703E+00  3.6984E+00
ac ID =   33377                -1.2831E+00  2.4487E+01 -4.1388E-01  2.4524E+01
                               -3.5632E-01  1.5070E+01 -4.8253E+01  2.5147E+03

           1    1.19003E+01     4.6370E-01  9.2348E-03 -3.7395E+00  3.7682E+00
ac ID =   33377                -1.1808E+00  2.5095E+01 -1.7472E-01  2.5123E+01
                               -3.5581E-01  1.5214E+01 -4.8241E+01  2.5147E+03

           1    1.20003E+01     4.6160E-01  1.4918E-02 -3.8085E+00  3.8364E+00
ac ID =   33377                -1.5827E+00  2.5917E+01 -8.2560E-03  2.5965E+01
                               -3.5524E-01  1.5360E+01 -4.8226E+01  2.5147E+03

           1    1.21003E+01     4.7817E-01 -4.4230E-04 -3.8603E+00  3.8898E+00
ac ID =   33377                -9.3106E-01  2.6653E+01  1.0793E-01  2.6670E+01
                               -3.5472E-01  1.5505E+01 -4.8207E+01  2.5147E+03

           1    1.22003E+01     4.9166E-01 -1.5386E-03 -3.8820E+00  3.9130E+00
ac ID =   33377                -9.3267E-01  2.7514E+01  1.3882E-01  2.7530E+01
                               -3.5418E-01  1.5652E+01 -4.8184E+01  2.5147E+03

           1    1.23003E+01     4.9462E-01  1.2809E-02 -3.9162E+00  3.9474E+00
ac ID =   33377                -1.1520E+00  2.7921E+01 -2.5856E-01  2.7945E+01
                               -3.5364E-01  1.5798E+01 -4.8158E+01  2.5147E+03

           1    1.24003E+01     4.9741E-01  7.1259E-04 -3.9730E+00  4.0040E+00
ac ID =   33377                -7.5992E-01  2.8493E+01 -3.6590E-01  2.8506E+01
                               -3.5308E-01  1.5945E+01 -4.8128E+01  2.5147E+03

           1    1.25002E+01     5.0917E-01  3.9911E-03 -4.0153E+00  4.0474E+00
ac ID =   33377                -1.0937E+00  2.9330E+01 -3.2946E-01  2.9352E+01
                               -3.5249E-01  1.6093E+01 -4.8095E+01  2.5147E+03

           1    1.26002E+01     5.1249E-01  2.3434E-02 -4.0289E+00  4.0615E+00
ac ID =   33377                -1.5116E+00  3.0070E+01  1.9814E-01  3.0108E+01
                               -3.5187E-01  1.6240E+01 -4.8057E+01  2.5147E+03

           1    1.27002E+01     5.1118E-01 -1.2212E-03 -4.0457E+00  4.0778E+00
ac ID =   33377                -1.1526E+00  3.0450E+01  2.3472E-02  3.0472E+01
                               -3.5122E-01  1.6388E+01 -4.8016E+01  2.5147E+03

           1    1.28002E+01     5.2706E-01  4.6537E-03 -4.0614E+00  4.0954E+00
ac ID =   33377                -1.2270E+00  3.1376E+01 -7.0086E-01  3.1407E+01
                               -3.5061E-01  1.6535E+01 -4.7970E+01  2.5147E+03

           1    1.29002E+01     5.5440E-01  7.4095E-03 -4.0816E+00  4.1190E+00
ac ID =   33377                -1.3915E+00  3.2217E+01 -5.4902E-01  3.2252E+01
                               -3.5004E-01  1.6683E+01 -4.7921E+01  2.5147E+03

           1    1.30002E+01     5.3123E-01  6.1712E-03 -4.0819E+00  4.1163E+00
ac ID =   33377                -1.0583E+00  3.2216E+01 -4.3112E-01  3.2236E+01
                               -3.4949E-01  1.6830E+01 -4.7867E+01  2.5147E+03

           1    1.31002E+01     5.3416E-01 -1.0775E-03 -4.0697E+00  4.1046E+00
ac ID =   33377                -9.1447E-01  3.2463E+01 -2.9483E-01  3.2478E+01
                               -3.4889E-01  1.6977E+01 -4.7810E+01  2.5147E+03

           1    1.32002E+01     5.6154E-01 -3.9046E-03 -4.0672E+00  4.1058E+00
ac ID =   33377                -9.6018E-01  3.3300E+01  2.6979E-02  3.3314E+01
                               -3.4830E-01  1.7124E+01 -4.7748E+01  2.5147E+03

           1    1.33002E+01     5.5393E-01 -2.9512E-03 -4.0789E+00  4.1164E+00
ac ID =   33377                -8.9424E-01  3.3666E+01 -3.7763E-01  3.3680E+01
                               -3.4773E-01  1.7271E+01 -4.7683E+01  2.5147E+03

           1    1.34002E+01     5.4336E-01 -3.6417E-03 -4.0826E+00  4.1186E+00
ac ID =   33377                -1.0859E+00  3.4069E+01 -7.0186E-01  3.4093E+01
                               -3.4712E-01  1.7418E+01 -4.7613E+01  2.5147E+03

           1    1.35001E+01     5.7233E-01  2.1441E-02 -4.0706E+00  4.1107E+00
ac ID =   33377                -1.7107E+00  3.4691E+01 -2.0739E-01  3.4734E+01
                               -3.4653E-01  1.7564E+01 -4.7539E+01  2.5147E+03

           1    1.36001E+01     5.7820E-01  1.6686E-03 -4.0399E+00  4.0810E+00
ac ID =   33377                -1.3632E+00  3.5201E+01 -1.3674E-01  3.5228E+01
                               -3.4590E-01  1.7710E+01 -4.7462E+01  2.5147E+03

           1    1.37001E+01     5.5869E-01  1.4959E-03 -4.0334E+00  4.0719E+00
ac ID =   33377                -1.1737E+00  3.5260E+01 -8.8990E-03  3.5280E+01
                               -3.4519E-01  1.7855E+01 -4.7380E+01  2.5147E+03

           1    1.38001E+01     5.6518E-01  2.1931E-02 -4.0112E+00  4.0509E+00
ac ID =   33377                -1.6926E+00  3.5499E+01 -1.4921E-01  3.5540E+01
                               -3.4458E-01  1.8000E+01 -4.7294E+01  2.5147E+03

           1    1.39001E+01     5.6945E-01  1.4963E-02 -3.9699E+00  4.0106E+00
ac ID =   33377                -1.1645E+00  3.5680E+01 -4.3304E-01  3.5702E+01
                               -3.4390E-01  1.8144E+01 -4.7204E+01  2.5147E+03

           1    1.40001E+01     5.6513E-01 -9.8090E-03 -3.9245E+00  3.9650E+00
ac ID =   33377                -7.2847E-01  3.5558E+01 -1.2297E-01  3.5565E+01
                               -3.4312E-01  1.8288E+01 -4.7110E+01  2.5147E+03

           1    1.41001E+01     5.5259E-01  5.4659E-03 -3.8559E+00  3.8953E+00
ac ID =   33377                -1.2751E+00  3.5364E+01 -1.0872E-01  3.5387E+01
                               -3.4239E-01  1.8432E+01 -4.7013E+01  2.5147E+03

           1    1.42001E+01     5.7309E-01  3.2100E-02 -3.8399E+00  3.8825E+00
ac ID =   33377                -1.6198E+00  3.6109E+01  1.4642E-02  3.6146E+01
                               -3.4166E-01  1.8575E+01 -4.6911E+01  2.5147E+03

           1    1.43001E+01     5.6678E-01 -1.2570E-02 -3.7788E+00  3.8211E+00
ac ID =   33377                -1.1720E+00  3.6302E+01 -1.1710E-01  3.6321E+01
                               -3.4081E-01  1.8718E+01 -4.6806E+01  2.5147E+03

           1    1.44001E+01     5.5870E-01 -1.8121E-03 -3.6925E+00  3.7345E+00
ac ID =   33377                -1.4471E+00  3.5884E+01 -4.6188E-01  3.5916E+01
                               -3.3999E-01  1.8860E+01 -4.6697E+01  2.5147E+03

           1    1.45000E+01     5.8705E-01  2.1205E-02 -3.6532E+00  3.7001E+00
ac ID =   33377                -2.2427E+00  3.6643E+01 -1.0441E+00  3.6726E+01
                               -3.3920E-01  1.9002E+01 -4.6585E+01  2.5147E+03

           1    1.46000E+01     5.6967E-01  2.7993E-02 -3.6024E+00  3.6472E+00
ac ID =   33377                -2.0425E+00  3.6567E+01 -5.9199E-01  3.6629E+01
                               -3.3840E-01  1.9144E+01 -4.6470E+01  2.5147E+03

           1    1.47000E+01     5.5659E-01 -4.0610E-03 -3.5643E+00  3.6075E+00
ac ID =   33377                -1.2899E+00  3.6546E+01  1.5203E-01  3.6569E+01
                               -3.3756E-01  1.9286E+01 -4.6351E+01  2.5147E+03

           1    1.48005E+01     5.5883E-01  2.3113E-02 -3.4863E+00  3.5309E+00
ac ID =   33377                -2.0788E+00  3.6926E+01  2.5425E-01  3.6985E+01
                               -3.3672E-01  1.9428E+01 -4.6229E+01  2.5147E+03

           1    1.49005E+01     5.7080E-01  1.7276E-02 -3.3903E+00  3.4381E+00
ac ID =   33377                -1.6621E+00  3.6941E+01 -4.9229E-02  3.6978E+01
                               -3.3596E-01  1.9570E+01 -4.6105E+01  2.5147E+03

           1    1.50005E+01     5.6926E-01 -4.6577E-03 -3.3400E+00  3.3882E+00
ac ID =   33377                -1.3619E+00  3.6830E+01 -6.0094E-01  3.6860E+01
                               -3.3510E-01  1.9711E+01 -4.5978E+01  2.5147E+03

           1    1.51005E+01     5.7111E-01 -7.7514E-05 -3.2816E+00  3.3310E+00
ac ID =   33377                -1.5690E+00  3.6715E+01 -5.2449E-01  3.6753E+01
                               -3.3426E-01  1.9852E+01 -4.5848E+01  2.5147E+03

           1    1.52005E+01     5.7460E-01  1.3592E-02 -3.1931E+00  3.2444E+00
ac ID =   33377                -1.9674E+00  3.6705E+01 -5.3050E-01  3.6761E+01
                               -3.3357E-01  1.9994E+01 -4.5715E+01  2.5147E+03

           1    1.53005E+01     5.5112E-01  9.1337E-03 -3.0968E+00  3.1455E+00
ac ID =   33377                -2.2850E+00  3.6142E+01 -6.5636E-01  3.6220E+01
                               -3.3283E-01  2.0135E+01 -4.5581E+01  2.5147E+03

