 LSTC 50th% Full_FE H-III Dummy (Beta Version, February 17, 2019)        
                    ls-dyna smp s R16 R16.0_619_d222963 date 03/18/2025

{BEGIN LEGEND}
 Entity #        Title
    22626                                                                                     
{END LEGEND}




 n o d a l   p r i n t   o u t   f o r   t i m e  s t e p       1                              ( at time 0.0000000E+00 )

 nodal point  x-disp     y-disp      z-disp      x-vel       y-vel       z-vel      x-accl      y-accl      z-accl      x-coor      y-coor      z-coor
    22626  0.00000E+00 0.00000E+00 0.00000E+00 0.00000E+00 0.00000E+00-3.12000E+00 0.00000E+00 0.00000E+00 0.00000E+00 4.79642E+01-2.20298E+01 7.33850E+00



 n o d a l   p r i n t   o u t   f o r   t i m e  s t e p       1                              ( at time 0.0000000E+00 )

 nodal point  x-rot      y-rot       z-rot       x-rot vel   y-rot vel   z-rot vel   x-rot acc   y-rot acc   z-rot acc
    22626  0.00000E+00 0.00000E+00 0.00000E+00 0.00000E+00 0.00000E+00 0.00000E+00 0.00000E+00 0.00000E+00 0.00000E+00



 n o d a l   p r i n t   o u t   f o r   t i m e  s t e p     201                              ( at time 9.9989993E-02 )

 nodal point  x-disp     y-disp      z-disp      x-vel       y-vel       z-vel      x-accl      y-accl      z-accl      x-coor      y-coor      z-coor
    22626  8.34653E-07-4.04377E-06-3.12016E-01 4.76960E-05-4.96364E-04-3.12074E+00 4.77007E-04-4.96414E-03-7.42748E-03 4.79642E+01-2.20298E+01 7.02648E+00



 n o d a l   p r i n t   o u t   f o r   t i m e  s t e p     201                              ( at time 9.9989993E-02 )

 nodal point  x-rot      y-rot       z-rot       x-rot vel   y-rot vel   z-rot vel   x-rot acc   y-rot acc   z-rot acc
    22626  9.61089E-09 3.04201E-08 5.27377E-08 1.30669E-06 2.72365E-06 5.21472E-06 1.30682E-05 2.72392E-05 5.21524E-05



 n o d a l   p r i n t   o u t   f o r   t i m e  s t e p     401                              ( at time 1.9997999E-01 )

 nodal point  x-disp     y-disp      z-disp      x-vel       y-vel       z-vel      x-accl      y-accl      z-accl      x-coor      y-coor      z-coor
    22626 -5.12651E-05-5.21513E-04-6.23853E-01-1.09595E-03-1.11126E-02-3.11558E+00-1.14376E-02-1.06173E-01 5.16061E-02 4.79641E+01-2.20303E+01 6.71465E+00



 n o d a l   p r i n t   o u t   f o r   t i m e  s t e p     401                              ( at time 1.9997999E-01 )

 nodal point  x-rot      y-rot       z-rot       x-rot vel   y-rot vel   z-rot vel   x-rot acc   y-rot acc   z-rot acc
    22626  4.60498E-07 1.33053E-06 2.50340E-06 2.65586E-06 1.90541E-05 3.49673E-05 1.34931E-05 1.63321E-04 2.97556E-04



 n o d a l   p r i n t   o u t   f o r   t i m e  s t e p     601                              ( at time 2.9996998E-01 )

 nodal point  x-disp     y-disp      z-disp      x-vel       y-vel       z-vel      x-accl      y-accl      z-accl      x-coor      y-coor      z-coor
    22626 -2.45274E-05-1.97555E-03-9.35239E-01 1.66291E-03-1.60319E-02-3.11416E+00 2.75914E-02-4.91979E-02 1.42708E-02 4.79642E+01-2.20318E+01 6.40326E+00



 n o d a l   p r i n t   o u t   f o r   t i m e  s t e p     601                              ( at time 2.9996998E-01 )

 nodal point  x-rot      y-rot       z-rot       x-rot vel   y-rot vel   z-rot vel   x-rot acc   y-rot acc   z-rot acc
    22626  6.75060E-07 2.41660E-06 4.83622E-06 8.25677E-06 5.51548E-06 1.49260E-05 5.60146E-05-1.35400E-04-2.00433E-04



 n o d a l   p r i n t   o u t   f o r   t i m e  s t e p     801                              ( at time 3.9995997E-01 )

 nodal point  x-disp     y-disp      z-disp      x-vel       y-vel       z-vel      x-accl      y-accl      z-accl      x-coor      y-coor      z-coor
    22626  5.94793E-05-3.57161E-03-1.24663E+00 1.85716E-04-1.73744E-02-3.11354E+00-1.47734E-02-1.34261E-02 6.13989E-03 4.79642E+01-2.20334E+01 6.09187E+00



 n o d a l   p r i n t   o u t   f o r   t i m e  s t e p     801                              ( at time 3.9995997E-01 )

 nodal point  x-rot      y-rot       z-rot       x-rot vel   y-rot vel   z-rot vel   x-rot acc   y-rot acc   z-rot acc
    22626  1.58420E-06 3.68977E-06 6.69888E-06 6.31268E-06 2.42252E-05 3.82456E-05-1.94429E-05 1.87115E-04 2.33219E-04



 n o d a l   p r i n t   o u t   f o r   t i m e  s t e p    1001                              ( at time 4.9994997E-01 )

 nodal point  x-disp     y-disp      z-disp      x-vel       y-vel       z-vel      x-accl      y-accl      z-accl      x-coor      y-coor      z-coor
    22626  7.16890E-05-5.62685E-03-1.55783E+00 8.83294E-04-2.38147E-02-3.11087E+00 6.97648E-03-6.44102E-02 2.67008E-02 4.79643E+01-2.20354E+01 5.78067E+00



 n o d a l   p r i n t   o u t   f o r   t i m e  s t e p    1001                              ( at time 4.9994997E-01 )

 nodal point  x-rot      y-rot       z-rot       x-rot vel   y-rot vel   z-rot vel   x-rot acc   y-rot acc   z-rot acc
    22626  1.50247E-06 6.66111E-06 1.18621E-05-4.80308E-06 4.38791E-05 7.21619E-05-1.11169E-04 1.96559E-04 3.39197E-04



 n o d a l   p r i n t   o u t   f o r   t i m e  s t e p    1201                              ( at time 5.9993996E-01 )

 nodal point  x-disp     y-disp      z-disp      x-vel       y-vel       z-vel      x-accl      y-accl      z-accl      x-coor      y-coor      z-coor
    22626  5.24587E-05-8.12804E-03-1.86888E+00-5.44355E-04-2.60656E-02-3.11087E+00-1.42779E-02-2.25105E-02 3.81508E-05 4.79642E+01-2.20379E+01 5.46962E+00



 n o d a l   p r i n t   o u t   f o r   t i m e  s t e p    1201                              ( at time 5.9993996E-01 )

 nodal point  x-rot      y-rot       z-rot       x-rot vel   y-rot vel   z-rot vel   x-rot acc   y-rot acc   z-rot acc
    22626  1.27008E-06 9.91387E-06 1.78071E-05-2.02439E-06 2.66519E-05 5.35856E-05 2.77896E-05-1.72289E-04-1.85781E-04



 n o d a l   p r i n t   o u t   f o r   t i m e  s t e p    1401                              ( at time 6.9992995E-01 )

 nodal point  x-disp     y-disp      z-disp      x-vel       y-vel       z-vel      x-accl      y-accl      z-accl      x-coor      y-coor      z-coor
    22626  1.93716E-05-1.10065E-02-2.17977E+00 6.94264E-04-3.21946E-02-3.10774E+00 1.23874E-02-6.12967E-02 3.13313E-02 4.79642E+01-2.20408E+01 5.15873E+00



 n o d a l   p r i n t   o u t   f o r   t i m e  s t e p    1401                              ( at time 6.9992995E-01 )

 nodal point  x-rot      y-rot       z-rot       x-rot vel   y-rot vel   z-rot vel   x-rot acc   y-rot acc   z-rot acc
    22626  1.12969E-06 1.31211E-05 2.28096E-05-2.12583E-06 3.77411E-05 5.91924E-05-1.01447E-06 1.10903E-04 5.60734E-05



 n o d a l   p r i n t   o u t   f o r   t i m e  s t e p    1601                              ( at time 7.9991994E-01 )

 nodal point  x-disp     y-disp      z-disp      x-vel       y-vel       z-vel      x-accl      y-accl      z-accl      x-coor      y-coor      z-coor
    22626  1.30588E-04-1.45510E-02-2.49040E+00 1.35291E-03-3.67451E-02-3.10606E+00 6.58713E-03-4.55089E-02 1.67887E-02 4.79643E+01-2.20443E+01 4.84811E+00



 n o d a l   p r i n t   o u t   f o r   t i m e  s t e p    1601                              ( at time 7.9991994E-01 )

 nodal point  x-rot      y-rot       z-rot       x-rot vel   y-rot vel   z-rot vel   x-rot acc   y-rot acc   z-rot acc
    22626  1.06569E-06 1.72680E-05 2.97901E-05 3.24537E-06 4.90093E-05 7.67536E-05 5.37174E-05 1.12693E-04 1.75629E-04



 n o d a l   p r i n t   o u t   f o r   t i m e  s t e p    1801                              ( at time 8.9990994E-01 )

 nodal point  x-disp     y-disp      z-disp      x-vel       y-vel       z-vel      x-accl      y-accl      z-accl      x-coor      y-coor      z-coor
    22626  2.03341E-04-1.81864E-02-2.80106E+00-5.19275E-04-3.63515E-02-3.10748E+00-1.87237E-02 3.93628E-03-1.41897E-02 4.79644E+01-2.20480E+01 4.53745E+00



 n o d a l   p r i n t   o u t   f o r   t i m e  s t e p    1801                              ( at time 8.9990994E-01 )

 nodal point  x-rot      y-rot       z-rot       x-rot vel   y-rot vel   z-rot vel   x-rot acc   y-rot acc   z-rot acc
    22626  1.12493E-06 2.14093E-05 3.68306E-05-1.39285E-06 3.82230E-05 6.87453E-05-4.63869E-05-1.07874E-04-8.00909E-05



 n o d a l   p r i n t   o u t   f o r   t i m e  s t e p    2001                              ( at time 9.9989993E-01 )

 nodal point  x-disp     y-disp      z-disp      x-vel       y-vel       z-vel      x-accl      y-accl      z-accl      x-coor      y-coor      z-coor
    22626  1.03942E-04-2.18885E-02-3.11178E+00-8.43128E-04-3.82523E-02-3.10767E+00-3.23886E-03-1.90107E-02-1.99338E-03 4.79643E+01-2.20517E+01 4.22672E+00



 n o d a l   p r i n t   o u t   f o r   t i m e  s t e p    2001                              ( at time 9.9989993E-01 )

 nodal point  x-rot      y-rot       z-rot       x-rot vel   y-rot vel   z-rot vel   x-rot acc   y-rot acc   z-rot acc
    22626  1.00950E-06 2.56562E-05 4.40931E-05-2.36864E-07 4.65426E-05 8.65027E-05 1.15610E-05 8.32045E-05 1.77592E-04



 n o d a l   p r i n t   o u t   f o r   t i m e  s t e p    2201                              ( at time 1.0998899E+00 )

 nodal point  x-disp     y-disp      z-disp      x-vel       y-vel       z-vel      x-accl      y-accl      z-accl      x-coor      y-coor      z-coor
    22626  8.29341E-05-2.58230E-02-3.42249E+00-2.60631E-04-4.01511E-02-3.10719E+00 5.82556E-03-1.89898E-02 4.86184E-03 4.79643E+01-2.20556E+01 3.91601E+00



 n o d a l   p r i n t   o u t   f o r   t i m e  s t e p    2201                              ( at time 1.0998899E+00 )

 nodal point  x-rot      y-rot       z-rot       x-rot vel   y-rot vel   z-rot vel   x-rot acc   y-rot acc   z-rot acc
    22626  1.14678E-06 3.04668E-05 5.27851E-05 5.98996E-06 4.64447E-05 7.51608E-05 6.22745E-05-9.79297E-07-1.13430E-04



 n o d a l   p r i n t   o u t   f o r   t i m e  s t e p    2401                              ( at time 1.1998799E+00 )

 nodal point  x-disp     y-disp      z-disp      x-vel       y-vel       z-vel      x-accl      y-accl      z-accl      x-coor      y-coor      z-coor
    22626  1.21447E-04-2.98262E-02-3.73324E+00 6.97700E-04-3.96404E-02-3.10860E+00 9.58426E-03 5.10837E-03-1.40872E-02 4.79643E+01-2.20596E+01 3.60526E+00



 n o d a l   p r i n t   o u t   f o r   t i m e  s t e p    2401                              ( at time 1.1998799E+00 )

 nodal point  x-rot      y-rot       z-rot       x-rot vel   y-rot vel   z-rot vel   x-rot acc   y-rot acc   z-rot acc
    22626  1.61191E-06 3.46410E-05 5.96870E-05 5.75794E-06 4.03101E-05 6.63928E-05-2.32048E-06-6.13521E-05-8.76892E-05



 n o d a l   p r i n t   o u t   f o r   t i m e  s t e p    2601                              ( at time 1.2998699E+00 )

 nodal point  x-disp     y-disp      z-disp      x-vel       y-vel       z-vel      x-accl      y-accl      z-accl      x-coor      y-coor      z-coor
    22626  1.30772E-04-3.36489E-02-4.04419E+00-4.57924E-04-3.64348E-02-3.11145E+00-1.15574E-02 3.20587E-02-2.85273E-02 4.79643E+01-2.20634E+01 3.29431E+00



 n o d a l   p r i n t   o u t   f o r   t i m e  s t e p    2601                              ( at time 1.2998699E+00 )

 nodal point  x-rot      y-rot       z-rot       x-rot vel   y-rot vel   z-rot vel   x-rot acc   y-rot acc   z-rot acc
    22626  1.99272E-06 3.87689E-05 6.65994E-05-1.64187E-06 4.57701E-05 8.07847E-05-7.40055E-05 5.46054E-05 1.43933E-04



 n o d a l   p r i n t   o u t   f o r   t i m e  s t e p    2801                              ( at time 1.3998599E+00 )

 nodal point  x-disp     y-disp      z-disp      x-vel       y-vel       z-vel      x-accl      y-accl      z-accl      x-coor      y-coor      z-coor
    22626  1.22321E-05-3.70264E-02-4.35550E+00-1.33823E-03-3.12521E-02-3.11525E+00-8.80399E-03 5.18327E-02-3.79624E-02 4.79642E+01-2.20668E+01 2.98300E+00



 n o d a l   p r i n t   o u t   f o r   t i m e  s t e p    2801                              ( at time 1.3998599E+00 )

 nodal point  x-rot      y-rot       z-rot       x-rot vel   y-rot vel   z-rot vel   x-rot acc   y-rot acc   z-rot acc
    22626  1.66201E-06 4.32161E-05 7.45300E-05-3.67591E-06 4.52779E-05 7.45319E-05-2.03424E-05-4.92253E-06-6.25341E-05



 n o d a l   p r i n t   o u t   f o r   t i m e  s t e p    3001                              ( at time 1.4998499E+00 )

 nodal point  x-disp     y-disp      z-disp      x-vel       y-vel       z-vel      x-accl      y-accl      z-accl      x-coor      y-coor      z-coor
    22626 -9.97357E-05-4.00514E-02-4.66711E+00-4.89739E-04-2.95697E-02-3.11726E+00 8.48580E-03 1.68251E-02-2.01937E-02 4.79641E+01-2.20698E+01 2.67140E+00



 n o d a l   p r i n t   o u t   f o r   t i m e  s t e p    3001                              ( at time 1.4998499E+00 )

 nodal point  x-rot      y-rot       z-rot       x-rot vel   y-rot vel   z-rot vel   x-rot acc   y-rot acc   z-rot acc
    22626  1.37636E-06 4.71936E-05 8.11912E-05-3.54295E-07 3.25187E-05 5.83734E-05 3.32195E-05-1.27604E-04-1.61600E-04



 n o d a l   p r i n t   o u t   f o r   t i m e  s t e p    3201                              ( at time 1.5998399E+00 )

 nodal point  x-disp     y-disp      z-disp      x-vel       y-vel       z-vel      x-accl      y-accl      z-accl      x-coor      y-coor      z-coor
    22626 -1.50800E-04-4.29258E-02-4.97889E+00-7.88691E-04-2.73586E-02-3.11955E+00-2.98982E-03 2.21131E-02-2.28213E-02 4.79640E+01-2.20727E+01 2.35962E+00



 n o d a l   p r i n t   o u t   f o r   t i m e  s t e p    3201                              ( at time 1.5998399E+00 )

 nodal point  x-rot      y-rot       z-rot       x-rot vel   y-rot vel   z-rot vel   x-rot acc   y-rot acc   z-rot acc
    22626  1.19972E-06 5.02768E-05 8.61449E-05-2.36389E-07 3.26448E-05 4.84838E-05 1.17917E-06 1.26079E-06-9.89065E-05



 n o d a l   p r i n t   o u t   f o r   t i m e  s t e p    3401                              ( at time 1.6998299E+00 )

 nodal point  x-disp     y-disp      z-disp      x-vel       y-vel       z-vel      x-accl      y-accl      z-accl      x-coor      y-coor      z-coor
    22626 -2.42084E-04-4.54249E-02-5.29100E+00-1.14744E-03-2.22896E-02-3.12336E+00-3.58781E-03 5.06955E-02-3.81150E-02 4.79639E+01-2.20752E+01 2.04751E+00



 n o d a l   p r i n t   o u t   f o r   t i m e  s t e p    3401                              ( at time 1.6998299E+00 )

 nodal point  x-rot      y-rot       z-rot       x-rot vel   y-rot vel   z-rot vel   x-rot acc   y-rot acc   z-rot acc
    22626  1.09012E-06 5.34168E-05 9.12594E-05-3.01798E-06 3.09775E-05 4.91345E-05-2.78187E-05-1.66745E-05 6.50743E-06



 n o d a l   p r i n t   o u t   f o r   t i m e  s t e p    3601                              ( at time 1.7998199E+00 )

 nodal point  x-disp     y-disp      z-disp      x-vel       y-vel       z-vel      x-accl      y-accl      z-accl      x-coor      y-coor      z-coor
    22626 -3.45441E-04-4.73985E-02-5.60351E+00-1.35721E-03-1.75384E-02-3.12744E+00-2.09792E-03 4.75169E-02-4.08762E-02 4.79638E+01-2.20772E+01 1.73499E+00



 n o d a l   p r i n t   o u t   f o r   t i m e  s t e p    3601                              ( at time 1.7998199E+00 )

 nodal point  x-rot      y-rot       z-rot       x-rot vel   y-rot vel   z-rot vel   x-rot acc   y-rot acc   z-rot acc
    22626  1.04441E-06 5.62786E-05 9.61312E-05 8.65881E-07 2.19265E-05 4.33042E-05 3.88425E-05-9.05191E-05-5.83089E-05



 n o d a l   p r i n t   o u t   f o r   t i m e  s t e p    3801                              ( at time 1.8998099E+00 )

 nodal point  x-disp     y-disp      z-disp      x-vel       y-vel       z-vel      x-accl      y-accl      z-accl      x-coor      y-coor      z-coor
    22626 -5.35754E-04-4.90179E-02-5.91635E+00-2.16626E-03-1.50044E-02-3.12999E+00-8.09130E-03 2.53419E-02-2.54347E-02 4.79636E+01-2.20788E+01 1.42215E+00



 n o d a l   p r i n t   o u t   f o r   t i m e  s t e p    3801                              ( at time 1.8998099E+00 )

 nodal point  x-rot      y-rot       z-rot       x-rot vel   y-rot vel   z-rot vel   x-rot acc   y-rot acc   z-rot acc
    22626  9.31483E-07 5.82402E-05 9.96511E-05 2.82705E-06 1.63694E-05 2.84513E-05 1.96137E-05-5.55766E-05-1.48544E-04



 n o d a l   p r i n t   o u t   f o r   t i m e  s t e p    4001                              ( at time 1.9997999E+00 )

 nodal point  x-disp     y-disp      z-disp      x-vel       y-vel       z-vel      x-accl      y-accl      z-accl      x-coor      y-coor      z-coor
    22626 -7.09337E-04-5.03952E-02-6.22944E+00-1.66108E-03-1.26937E-02-3.13219E+00 5.05228E-03 2.31093E-02-2.20512E-02 4.79635E+01-2.20802E+01 1.10907E+00



 n o d a l   p r i n t   o u t   f o r   t i m e  s t e p    4001                              ( at time 1.9997999E+00 )

 nodal point  x-rot      y-rot       z-rot       x-rot vel   y-rot vel   z-rot vel   x-rot acc   y-rot acc   z-rot acc
    22626  1.23747E-06 5.96654E-05 1.02065E-04 4.57132E-06 1.38819E-05 2.06295E-05 1.74444E-05-2.48774E-05-7.82255E-05



 n o d a l   p r i n t   o u t   f o r   t i m e  s t e p    4201                              ( at time 2.0997899E+00 )

 nodal point  x-disp     y-disp      z-disp      x-vel       y-vel       z-vel      x-accl      y-accl      z-accl      x-coor      y-coor      z-coor
    22626 -8.80918E-04-5.14773E-02-6.54278E+00-1.88390E-03-9.06273E-03-3.13527E+00-2.22842E-03 3.63136E-02-3.08139E-02 4.79633E+01-2.20813E+01 7.95718E-01



 n o d a l   p r i n t   o u t   f o r   t i m e  s t e p    4201                              ( at time 2.0997899E+00 )

 nodal point  x-rot      y-rot       z-rot       x-rot vel   y-rot vel   z-rot vel   x-rot acc   y-rot acc   z-rot acc
    22626  1.63486E-06 6.03317E-05 1.03202E-04-1.53800E-07 3.66772E-06 1.93580E-06-4.72559E-05-1.02152E-04-1.86956E-04



 n o d a l   p r i n t   o u t   f o r   t i m e  s t e p    4401                              ( at time 2.1997798E+00 )

 nodal point  x-disp     y-disp      z-disp      x-vel       y-vel       z-vel      x-accl      y-accl      z-accl      x-coor      y-coor      z-coor
    22626 -1.12269E-03-5.21532E-02-6.85645E+00-2.72922E-03-4.27333E-03-3.13905E+00-8.45404E-03 4.78989E-02-3.77169E-02 4.79631E+01-2.20819E+01 4.82046E-01



 n o d a l   p r i n t   o u t   f o r   t i m e  s t e p    4401                              ( at time 2.1997798E+00 )

 nodal point  x-rot      y-rot       z-rot       x-rot vel   y-rot vel   z-rot vel   x-rot acc   y-rot acc   z-rot acc
    22626  1.55508E-06 6.04335E-05 1.03263E-04-4.02628E-07-1.04219E-06-1.66027E-06-2.48853E-06-4.71039E-05-3.59643E-05



 n o d a l   p r i n t   o u t   f o r   t i m e  s t e p    4601                              ( at time 2.2997698E+00 )

 nodal point  x-disp     y-disp      z-disp      x-vel       y-vel       z-vel      x-accl      y-accl      z-accl      x-coor      y-coor      z-coor
    22626 -1.42936E-03-5.23367E-02-7.17051E+00-3.49804E-03-7.76244E-06-3.14237E+00-7.68895E-03 4.26599E-02-3.32531E-02 4.79627E+01-2.20821E+01 1.67987E-01



 n o d a l   p r i n t   o u t   f o r   t i m e  s t e p    4601                              ( at time 2.2997698E+00 )

 nodal point  x-rot      y-rot       z-rot       x-rot vel   y-rot vel   z-rot vel   x-rot acc   y-rot acc   z-rot acc
    22626  1.23742E-06 6.02136E-05 1.02987E-04-3.77967E-06-8.86281E-06-1.19720E-05-3.37737E-05-7.82139E-05-1.03127E-04



 n o d a l   p r i n t   o u t   f o r   t i m e  s t e p    4801                              ( at time 2.3997598E+00 )

 nodal point  x-disp     y-disp      z-disp      x-vel       y-vel       z-vel      x-accl      y-accl      z-accl      x-coor      y-coor      z-coor
    22626 -1.79671E-03-5.22417E-02-7.48482E+00-3.56329E-03 1.89976E-03-3.14447E+00-6.52585E-04 1.90771E-02-2.09663E-02 4.79624E+01-2.20820E+01-1.46322E-01



 n o d a l   p r i n t   o u t   f o r   t i m e  s t e p    4801                              ( at time 2.3997598E+00 )

 nodal point  x-rot      y-rot       z-rot       x-rot vel   y-rot vel   z-rot vel   x-rot acc   y-rot acc   z-rot acc
    22626  8.07297E-07 5.90066E-05 1.00550E-04-4.81930E-06-1.50432E-05-3.26668E-05-1.03974E-05-6.18098E-05-2.06969E-04



 n o d a l   p r i n t   o u t   f o r   t i m e  s t e p    5001                              ( at time 2.4997498E+00 )

 nodal point  x-disp     y-disp      z-disp      x-vel       y-vel       z-vel      x-accl      y-accl      z-accl      x-coor      y-coor      z-coor
    22626 -2.18645E-03-5.19324E-02-7.79935E+00-4.23067E-03 4.97126E-03-3.14716E+00-6.67451E-03 3.07181E-02-2.69487E-02 4.79620E+01-2.20817E+01-4.60853E-01



 n o d a l   p r i n t   o u t   f o r   t i m e  s t e p    5001                              ( at time 2.4997498E+00 )

 nodal point  x-rot      y-rot       z-rot       x-rot vel   y-rot vel   z-rot vel   x-rot acc   y-rot acc   z-rot acc
    22626  4.62329E-07 5.68561E-05 9.66471E-05-3.26427E-06-2.59965E-05-4.80170E-05 1.55519E-05-1.09544E-04-1.53517E-04



 n o d a l   p r i n t   o u t   f o r   t i m e  s t e p    5201                              ( at time 2.5997398E+00 )

 nodal point  x-disp     y-disp      z-disp      x-vel       y-vel       z-vel      x-accl      y-accl      z-accl      x-coor      y-coor      z-coor
    22626 -2.65750E-03-5.12121E-02-8.11423E+00-5.21553E-03 9.40145E-03-3.15080E+00-9.84959E-03 4.43064E-02-3.63601E-02 4.79615E+01-2.20810E+01-7.75726E-01



 n o d a l   p r i n t   o u t   f o r   t i m e  s t e p    5201                              ( at time 2.5997398E+00 )

 nodal point  x-rot      y-rot       z-rot       x-rot vel   y-rot vel   z-rot vel   x-rot acc   y-rot acc   z-rot acc
    22626  1.75506E-07 5.38378E-05 9.13186E-05-3.87581E-06-3.47564E-05-6.13357E-05-6.11611E-06-8.76084E-05-1.33201E-04



 n o d a l   p r i n t   o u t   f o r   t i m e  s t e p    5401                              ( at time 2.6997298E+00 )

 nodal point  x-disp     y-disp      z-disp      x-vel       y-vel       z-vel      x-accl      y-accl      z-accl      x-coor      y-coor      z-coor
    22626 -3.22287E-03-5.00673E-02-8.42945E+00-6.36525E-03 1.30206E-02-3.15423E+00-1.14983E-02 3.61952E-02-3.43834E-02 4.79610E+01-2.20799E+01-1.09095E+00



 n o d a l   p r i n t   o u t   f o r   t i m e  s t e p    5401                              ( at time 2.6997298E+00 )

 nodal point  x-rot      y-rot       z-rot       x-rot vel   y-rot vel   z-rot vel   x-rot acc   y-rot acc   z-rot acc
    22626 -7.32483E-08 5.02007E-05 8.49166E-05-1.25982E-06-4.05889E-05-6.61582E-05 2.61625E-05-5.83302E-05-4.82294E-05



 n o d a l   p r i n t   o u t   f o r   t i m e  s t e p    5601                              ( at time 2.7997198E+00 )

 nodal point  x-disp     y-disp      z-disp      x-vel       y-vel       z-vel      x-accl      y-accl      z-accl      x-coor      y-coor      z-coor
    22626 -3.92921E-03-4.86410E-02-8.74496E+00-7.58759E-03 1.51885E-02-3.15642E+00-1.22247E-02 2.16811E-02-2.18270E-02 4.79603E+01-2.20784E+01-1.40646E+00



 n o d a l   p r i n t   o u t   f o r   t i m e  s t e p    5601                              ( at time 2.7997198E+00 )

 nodal point  x-rot      y-rot       z-rot       x-rot vel   y-rot vel   z-rot vel   x-rot acc   y-rot acc   z-rot acc
    22626 -1.37583E-07 4.53994E-05 7.68924E-05 1.12957E-06-5.63564E-05-9.72036E-05 2.38963E-05-1.57691E-04-3.10486E-04



 n o d a l   p r i n t   o u t   f o r   t i m e  s t e p    5801                              ( at time 2.8997098E+00 )

 nodal point  x-disp     y-disp      z-disp      x-vel       y-vel       z-vel      x-accl      y-accl      z-accl      x-coor      y-coor      z-coor
    22626 -4.69297E-03-4.70667E-02-9.06066E+00-7.77723E-03 1.61969E-02-3.15811E+00-1.89658E-03 1.00848E-02-1.69509E-02 4.79595E+01-2.20769E+01-1.72216E+00



 n o d a l   p r i n t   o u t   f o r   t i m e  s t e p    5801                              ( at time 2.8997098E+00 )

 nodal point  x-rot      y-rot       z-rot       x-rot vel   y-rot vel   z-rot vel   x-rot acc   y-rot acc   z-rot acc
    22626  1.35643E-07 3.90664E-05 6.61025E-05 3.09138E-06-6.57589E-05-1.14986E-04 1.96201E-05-9.40350E-05-1.77845E-04



 n o d a l   p r i n t   o u t   f o r   t i m e  s t e p    6001                              ( at time 2.9996998E+00 )

 nodal point  x-disp     y-disp      z-disp      x-vel       y-vel       z-vel      x-accl      y-accl      z-accl      x-coor      y-coor      z-coor
    22626 -5.51046E-03-4.53325E-02-9.37654E+00-8.80970E-03 1.86584E-02-3.16047E+00-1.03257E-02 2.46172E-02-2.35605E-02 4.79587E+01-2.20751E+01-2.03804E+00



 n o d a l   p r i n t   o u t   f o r   t i m e  s t e p    6001                              ( at time 2.9996998E+00 )

 nodal point  x-rot      y-rot       z-rot       x-rot vel   y-rot vel   z-rot vel   x-rot acc   y-rot acc   z-rot acc
    22626  4.45351E-07 3.22660E-05 5.45799E-05 1.43305E-06-7.01718E-05-1.20354E-04-1.65850E-05-4.41330E-05-5.36797E-05



 n o d a l   p r i n t   o u t   f o r   t i m e  s t e p    6201                              ( at time 3.0996898E+00 )

 nodal point  x-disp     y-disp      z-disp      x-vel       y-vel       z-vel      x-accl      y-accl      z-accl      x-coor      y-coor      z-coor
    22626 -6.46783E-03-4.33424E-02-9.69268E+00-1.02715E-02 2.06927E-02-3.16246E+00-1.46198E-02 2.03458E-02-1.99481E-02 4.79577E+01-2.20731E+01-2.35418E+00



 n o d a l   p r i n t   o u t   f o r   t i m e  s t e p    6201                              ( at time 3.0996898E+00 )

 nodal point  x-rot      y-rot       z-rot       x-rot vel   y-rot vel   z-rot vel   x-rot acc   y-rot acc   z-rot acc
    22626  4.49354E-07 2.50618E-05 4.21269E-05-1.63858E-06-7.38296E-05-1.31111E-04-3.07194E-05-3.65823E-05-1.07584E-04



 n o d a l   p r i n t   o u t   f o r   t i m e  s t e p    6401                              ( at time 3.1996798E+00 )

 nodal point  x-disp     y-disp      z-disp      x-vel       y-vel       z-vel      x-accl      y-accl      z-accl      x-coor      y-coor      z-coor
    22626 -7.52769E-03-4.13025E-02-1.00089E+01-1.08588E-02 1.98060E-02-3.16305E+00-5.87363E-03-8.86830E-03-5.90383E-03 4.79567E+01-2.20711E+01-2.67043E+00



 n o d a l   p r i n t   o u t   f o r   t i m e  s t e p    6401                              ( at time 3.1996798E+00 )

 nodal point  x-rot      y-rot       z-rot       x-rot vel   y-rot vel   z-rot vel   x-rot acc   y-rot acc   z-rot acc
    22626  3.51273E-07 1.71032E-05 2.86706E-05-1.00126E-06-8.47426E-05-1.43175E-04 6.37382E-06-1.09140E-04-1.20654E-04



 n o d a l   p r i n t   o u t   f o r   t i m e  s t e p    6601                              ( at time 3.2996698E+00 )

 nodal point  x-disp     y-disp      z-disp      x-vel       y-vel       z-vel      x-accl      y-accl      z-accl      x-coor      y-coor      z-coor
    22626 -8.62655E-03-3.94181E-02-1.03252E+01-1.10869E-02 1.78774E-02-3.16276E+00-2.28120E-03-1.92879E-02 2.96384E-03 4.79556E+01-2.20692E+01-2.98669E+00



 n o d a l   p r i n t   o u t   f o r   t i m e  s t e p    6601                              ( at time 3.2996698E+00 )

 nodal point  x-rot      y-rot       z-rot       x-rot vel   y-rot vel   z-rot vel   x-rot acc   y-rot acc   z-rot acc
    22626  1.26224E-07 8.48992E-06 1.39941E-05-2.38259E-06-8.82468E-05-1.50093E-04-1.38147E-05-3.50456E-05-6.91865E-05



 n o d a l   p r i n t   o u t   f o r   t i m e  s t e p    6801                              ( at time 3.3996598E+00 )

 nodal point  x-disp     y-disp      z-disp      x-vel       y-vel       z-vel      x-accl      y-accl      z-accl      x-coor      y-coor      z-coor
    22626 -9.76395E-03-3.77194E-02-1.06414E+01-1.15862E-02 1.61154E-02-3.16268E+00-4.99302E-03-1.76220E-02 8.08319E-04 4.79544E+01-2.20675E+01-3.30293E+00



 n o d a l   p r i n t   o u t   f o r   t i m e  s t e p    6801                              ( at time 3.3996598E+00 )

 nodal point  x-rot      y-rot       z-rot       x-rot vel   y-rot vel   z-rot vel   x-rot acc   y-rot acc   z-rot acc
    22626  9.45777E-08-2.56409E-07-1.13637E-06-2.15907E-06-8.72164E-05-1.52073E-04 2.23542E-06 1.03049E-05-1.98016E-05



 n o d a l   p r i n t   o u t   f o r   t i m e  s t e p    7001                              ( at time 3.4996498E+00 )

 nodal point  x-disp     y-disp      z-disp      x-vel       y-vel       z-vel      x-accl      y-accl      z-accl      x-coor      y-coor      z-coor
    22626 -1.09567E-02-3.61780E-02-1.09577E+01-1.22783E-02 1.46897E-02-3.16295E+00-6.92222E-03-1.42578E-02-2.77547E-03 4.79532E+01-2.20660E+01-3.61918E+00



 n o d a l   p r i n t   o u t   f o r   t i m e  s t e p    7001                              ( at time 3.4996498E+00 )

 nodal point  x-rot      y-rot       z-rot       x-rot vel   y-rot vel   z-rot vel   x-rot acc   y-rot acc   z-rot acc
    22626  1.50616E-07-8.84493E-06-1.58441E-05 9.39229E-07-8.62574E-05-1.46015E-04 3.09861E-05 9.59075E-06 6.05841E-05



 n o d a l   p r i n t   o u t   f o r   t i m e  s t e p    7201                              ( at time 3.5996397E+00 )

 nodal point  x-disp     y-disp      z-disp      x-vel       y-vel       z-vel      x-accl      y-accl      z-accl      x-coor      y-coor      z-coor
    22626 -1.22002E-02-3.48184E-02-1.12739E+01-1.22692E-02 1.21669E-02-3.16266E+00 9.19215E-05-2.52309E-02 2.92092E-03 4.79520E+01-2.20646E+01-3.93544E+00



 n o d a l   p r i n t   o u t   f o r   t i m e  s t e p    7201                              ( at time 3.5996397E+00 )

 nodal point  x-rot      y-rot       z-rot       x-rot vel   y-rot vel   z-rot vel   x-rot acc   y-rot acc   z-rot acc
    22626  1.23317E-07-1.72921E-05-3.00934E-05 1.80467E-06-8.32149E-05-1.36904E-04 8.65525E-06 3.04286E-05 9.11230E-05



 n o d a l   p r i n t   o u t   f o r   t i m e  s t e p    7401                              ( at time 3.6996297E+00 )

 nodal point  x-disp     y-disp      z-disp      x-vel       y-vel       z-vel      x-accl      y-accl      z-accl      x-coor      y-coor      z-coor
    22626 -1.34149E-02-3.37707E-02-1.15901E+01-1.19841E-02 8.81162E-03-3.16167E+00 2.85091E-03-3.35561E-02 9.87866E-03 4.79508E+01-2.20636E+01-4.25162E+00



 n o d a l   p r i n t   o u t   f o r   t i m e  s t e p    7401                              ( at time 3.6996297E+00 )

 nodal point  x-rot      y-rot       z-rot       x-rot vel   y-rot vel   z-rot vel   x-rot acc   y-rot acc   z-rot acc
    22626  4.21713E-07-2.54810E-05-4.37534E-05 4.50735E-06-8.04300E-05-1.35559E-04 2.70295E-05 2.78516E-05 1.34565E-05



 n o d a l   p r i n t   o u t   f o r   t i m e  s t e p    7601                              ( at time 3.7996197E+00 )

 nodal point  x-disp     y-disp      z-disp      x-vel       y-vel       z-vel      x-accl      y-accl      z-accl      x-coor      y-coor      z-coor
    22626 -1.45875E-02-3.30203E-02-1.19062E+01-1.15007E-02 6.16622E-03-3.16098E+00 4.83443E-03-2.64566E-02 6.92199E-03 4.79496E+01-2.20628E+01-4.56772E+00



 n o d a l   p r i n t   o u t   f o r   t i m e  s t e p    7601                              ( at time 3.7996197E+00 )

 nodal point  x-rot      y-rot       z-rot       x-rot vel   y-rot vel   z-rot vel   x-rot acc   y-rot acc   z-rot acc
    22626  9.00811E-07-3.31825E-05-5.68674E-05 5.30878E-06-7.09574E-05-1.19981E-04 8.01517E-06 9.47358E-05 1.55787E-04



 n o d a l   p r i n t   o u t   f o r   t i m e  s t e p    7801                              ( at time 3.8996097E+00 )

 nodal point  x-disp     y-disp      z-disp      x-vel       y-vel       z-vel      x-accl      y-accl      z-accl      x-coor      y-coor      z-coor
    22626 -1.57062E-02-3.25081E-02-1.22223E+01-1.08496E-02 4.33824E-03-3.16091E+00 6.51204E-03-1.82817E-02 6.93867E-04 4.79485E+01-2.20623E+01-4.88378E+00



 n o d a l   p r i n t   o u t   f o r   t i m e  s t e p    7801                              ( at time 3.8996097E+00 )

 nodal point  x-rot      y-rot       z-rot       x-rot vel   y-rot vel   z-rot vel   x-rot acc   y-rot acc   z-rot acc
    22626  1.27170E-06-3.96678E-05-6.78150E-05 1.09774E-06-5.68563E-05-9.41876E-05-4.21146E-05 1.41024E-04 2.57963E-04



 n o d a l   p r i n t   o u t   f o r   t i m e  s t e p    8001                              ( at time 3.9995997E+00 )

 nodal point  x-disp     y-disp      z-disp      x-vel       y-vel       z-vel      x-accl      y-accl      z-accl      x-coor      y-coor      z-coor
    22626 -1.67631E-02-3.21185E-02-1.25384E+01-1.02598E-02 3.35619E-03-3.16124E+00 5.89849E-03-9.82153E-03-3.24759E-03 4.79474E+01-2.20619E+01-5.19986E+00



 n o d a l   p r i n t   o u t   f o r   t i m e  s t e p    8001                              ( at time 3.9995997E+00 )

 nodal point  x-rot      y-rot       z-rot       x-rot vel   y-rot vel   z-rot vel   x-rot acc   y-rot acc   z-rot acc
    22626  1.42429E-06-4.47817E-05-7.62964E-05-1.86344E-07-4.45221E-05-7.77422E-05-1.28421E-05 1.23355E-04 1.64471E-04



 n o d a l   p r i n t   o u t   f o r   t i m e  s t e p    8201                              ( at time 4.0995897E+00 )

 nodal point  x-disp     y-disp      z-disp      x-vel       y-vel       z-vel      x-accl      y-accl      z-accl      x-coor      y-coor      z-coor
    22626 -1.77053E-02-3.19048E-02-1.28544E+01-8.45782E-03 7.36779E-04-3.16077E+00 1.80213E-02-2.61967E-02 4.71400E-03 4.79465E+01-2.20617E+01-5.51593E+00



 n o d a l   p r i n t   o u t   f o r   t i m e  s t e p    8201                              ( at time 4.0995897E+00 )

 nodal point  x-rot      y-rot       z-rot       x-rot vel   y-rot vel   z-rot vel   x-rot acc   y-rot acc   z-rot acc
    22626  1.45140E-06-4.87692E-05-8.30860E-05 4.81842E-07-3.17877E-05-5.53921E-05 6.68252E-06 1.27356E-04 2.23523E-04



 n o d a l   p r i n t   o u t   f o r   t i m e  s t e p    8401                              ( at time 4.1995797E+00 )

 nodal point  x-disp     y-disp      z-disp      x-vel       y-vel       z-vel      x-accl      y-accl      z-accl      x-coor      y-coor      z-coor
    22626 -1.84707E-02-3.19547E-02-1.31704E+01-6.83076E-03-1.63167E-03-3.16016E+00 1.62722E-02-2.36868E-02 6.10413E-03 4.79457E+01-2.20617E+01-5.83194E+00



 n o d a l   p r i n t   o u t   f o r   t i m e  s t e p    8401                              ( at time 4.1995797E+00 )

 nodal point  x-rot      y-rot       z-rot       x-rot vel   y-rot vel   z-rot vel   x-rot acc   y-rot acc   z-rot acc
    22626  1.52267E-06-5.10488E-05-8.68828E-05 4.76171E-08-1.27660E-05-2.11268E-05-4.34269E-06 1.90237E-04 3.42688E-04



 n o d a l   p r i n t   o u t   f o r   t i m e  s t e p    8601                              ( at time 4.2995697E+00 )

 nodal point  x-disp     y-disp      z-disp      x-vel       y-vel       z-vel      x-accl      y-accl      z-accl      x-coor      y-coor      z-coor
    22626 -1.90929E-02-3.22370E-02-1.34864E+01-5.46863E-03-3.74754E-03-3.15996E+00 1.36227E-02-2.11609E-02 1.94569E-03 4.79451E+01-2.20620E+01-6.14791E+00



 n o d a l   p r i n t   o u t   f o r   t i m e  s t e p    8601                              ( at time 4.2995697E+00 )

 nodal point  x-rot      y-rot       z-rot       x-rot vel   y-rot vel   z-rot vel   x-rot acc   y-rot acc   z-rot acc
    22626  1.53040E-06-5.13785E-05-8.75833E-05 2.46638E-07 4.08719E-06 6.38117E-06 1.99041E-06 1.68549E-04 2.75107E-04



 n o d a l   p r i n t   o u t   f o r   t i m e  s t e p    8801                              ( at time 4.3995597E+00 )

 nodal point  x-disp     y-disp      z-disp      x-vel       y-vel       z-vel      x-accl      y-accl      z-accl      x-coor      y-coor      z-coor
    22626 -1.95521E-02-3.26476E-02-1.38024E+01-3.71127E-03-4.50731E-03-3.16064E+00 1.75754E-02-7.59841E-03-6.82900E-03 4.79446E+01-2.20624E+01-6.46390E+00



 n o d a l   p r i n t   o u t   f o r   t i m e  s t e p    8801                              ( at time 4.3995597E+00 )

 nodal point  x-rot      y-rot       z-rot       x-rot vel   y-rot vel   z-rot vel   x-rot acc   y-rot acc   z-rot acc
    22626  1.62513E-06-4.99968E-05-8.51013E-05 1.01518E-06 2.34249E-05 4.19871E-05 7.68625E-06 1.93397E-04 3.56095E-04



 n o d a l   p r i n t   o u t   f o r   t i m e  s t e p    9001                              ( at time 4.4995497E+00 )

 nodal point  x-disp     y-disp      z-disp      x-vel       y-vel       z-vel      x-accl      y-accl      z-accl      x-coor      y-coor      z-coor
    22626 -1.98381E-02-3.31978E-02-1.41184E+01-1.89548E-03-6.84369E-03-3.16022E+00 1.81596E-02-2.33661E-02 4.18942E-03 4.79443E+01-2.20630E+01-6.77992E+00



 n o d a l   p r i n t   o u t   f o r   t i m e  s t e p    9001                              ( at time 4.4995497E+00 )

 nodal point  x-rot      y-rot       z-rot       x-rot vel   y-rot vel   z-rot vel   x-rot acc   y-rot acc   z-rot acc
    22626  1.77934E-06-4.63610E-05-7.87713E-05 3.76090E-06 4.55634E-05 7.88329E-05 2.74598E-05 2.21407E-04 3.68493E-04



 n o d a l   p r i n t   o u t   f o r   t i m e  s t e p    9201                              ( at time 4.5995397E+00 )

 nodal point  x-disp     y-disp      z-disp      x-vel       y-vel       z-vel      x-accl      y-accl      z-accl      x-coor      y-coor      z-coor
    22626 -1.99321E-02-3.40389E-02-1.44344E+01 3.74793E-05-9.77023E-03-3.15960E+00 1.93315E-02-2.92684E-02 6.24958E-03 4.79442E+01-2.20638E+01-7.09588E+00



 n o d a l   p r i n t   o u t   f o r   t i m e  s t e p    9201                              ( at time 4.5995397E+00 )

 nodal point  x-rot      y-rot       z-rot       x-rot vel   y-rot vel   z-rot vel   x-rot acc   y-rot acc   z-rot acc
    22626  2.13199E-06-4.10676E-05-6.95344E-05 4.46345E-06 6.08224E-05 1.04199E-04 7.02627E-06 1.52606E-04 2.53691E-04



 n o d a l   p r i n t   o u t   f o r   t i m e  s t e p    9401                              ( at time 4.6995297E+00 )

 nodal point  x-disp     y-disp      z-disp      x-vel       y-vel       z-vel      x-accl      y-accl      z-accl      x-coor      y-coor      z-coor
    22626 -1.98157E-02-3.50932E-02-1.47503E+01 2.17227E-03-1.13027E-02-3.15946E+00 2.13500E-02-1.53266E-02 1.36628E-03 4.79444E+01-2.20649E+01-7.41180E+00



 n o d a l   p r i n t   o u t   f o r   t i m e  s t e p    9401                              ( at time 4.6995297E+00 )

 nodal point  x-rot      y-rot       z-rot       x-rot vel   y-rot vel   z-rot vel   x-rot acc   y-rot acc   z-rot acc
    22626  2.52624E-06-3.38281E-05-5.69583E-05 2.99280E-06 8.61433E-05 1.47454E-04-1.47080E-05 2.53234E-04 4.32593E-04



 n o d a l   p r i n t   o u t   f o r   t i m e  s t e p    9601                              ( at time 4.7995197E+00 )

 nodal point  x-disp     y-disp      z-disp      x-vel       y-vel       z-vel      x-accl      y-accl      z-accl      x-coor      y-coor      z-coor
    22626 -1.94990E-02-3.62926E-02-1.50662E+01 4.06539E-03-1.25246E-02-3.15979E+00 1.89332E-02-1.22199E-02-3.25236E-03 4.79447E+01-2.20661E+01-7.72773E+00



 n o d a l   p r i n t   o u t   f o r   t i m e  s t e p    9601                              ( at time 4.7995197E+00 )

 nodal point  x-rot      y-rot       z-rot       x-rot vel   y-rot vel   z-rot vel   x-rot acc   y-rot acc   z-rot acc
    22626  2.84054E-06-2.40022E-05-4.01381E-05-2.27705E-07 1.10486E-04 1.89339E-04-3.22084E-05 2.43451E-04 4.18886E-04



 n o d a l   p r i n t   o u t   f o r   t i m e  s t e p    9801                              ( at time 4.8995097E+00 )

 nodal point  x-disp     y-disp      z-disp      x-vel       y-vel       z-vel      x-accl      y-accl      z-accl      x-coor      y-coor      z-coor
    22626 -1.90009E-02-3.75932E-02-1.53822E+01 5.86689E-03-1.35853E-02-3.15995E+00 1.80168E-02-1.06077E-02-1.65002E-03 4.79452E+01-2.20674E+01-8.04369E+00



 n o d a l   p r i n t   o u t   f o r   t i m e  s t e p    9801                              ( at time 4.8995097E+00 )

 nodal point  x-rot      y-rot       z-rot       x-rot vel   y-rot vel   z-rot vel   x-rot acc   y-rot acc   z-rot acc
    22626  2.76632E-06-1.20638E-05-1.95525E-05-2.28992E-06 1.26939E-04 2.18471E-04-2.06242E-05 1.64550E-04 2.91352E-04



 n o d a l   p r i n t   o u t   f o r   t i m e  s t e p   10001                              ( at time 4.9994997E+00 )

 nodal point  x-disp     y-disp      z-disp      x-vel       y-vel       z-vel      x-accl      y-accl      z-accl      x-coor      y-coor      z-coor
    22626 -1.82972E-02-3.90501E-02-1.56981E+01 8.14126E-03-1.56090E-02-3.15975E+00 2.27459E-02-2.02396E-02 2.01483E-03 4.79459E+01-2.20688E+01-8.35964E+00



 n o d a l   p r i n t   o u t   f o r   t i m e  s t e p   10001                              ( at time 4.9994997E+00 )

 nodal point  x-rot      y-rot       z-rot       x-rot vel   y-rot vel   z-rot vel   x-rot acc   y-rot acc   z-rot acc
    22626  2.53640E-06 1.52401E-06 3.83180E-06-1.83858E-06 1.44480E-04 2.48985E-04 4.51385E-06 1.75422E-04 3.05166E-04



 n o d a l   p r i n t   o u t   f o r   t i m e  s t e p   10202                              ( at time 5.0999896E+00 )

 nodal point  x-disp     y-disp      z-disp      x-vel       y-vel       z-vel      x-accl      y-accl      z-accl      x-coor      y-coor      z-coor
    22626 -1.73760E-02-4.06847E-02-1.60157E+01 1.01189E-02-1.67808E-02-3.15991E+00 1.96801E-02-1.16602E-02-1.54929E-03 4.79468E+01-2.20705E+01-8.67717E+00



 n o d a l   p r i n t   o u t   f o r   t i m e  s t e p   10202                              ( at time 5.0999896E+00 )

 nodal point  x-rot      y-rot       z-rot       x-rot vel   y-rot vel   z-rot vel   x-rot acc   y-rot acc   z-rot acc
    22626  2.27850E-06 1.72623E-05 3.07359E-05-4.48649E-06 1.65780E-04 2.84678E-04-2.63501E-05 2.11964E-04 3.55192E-04



 n o d a l   p r i n t   o u t   f o r   t i m e  s t e p   10402                              ( at time 5.1999796E+00 )

 nodal point  x-disp     y-disp      z-disp      x-vel       y-vel       z-vel      x-accl      y-accl      z-accl      x-coor      y-coor      z-coor
    22626 -1.62916E-02-4.23645E-02-1.63317E+01 1.15519E-02-1.65029E-02-3.16107E+00 1.43311E-02 2.77915E-03-1.16312E-02 4.79479E+01-2.20722E+01-8.99317E+00



 n o d a l   p r i n t   o u t   f o r   t i m e  s t e p   10402                              ( at time 5.1999796E+00 )

 nodal point  x-rot      y-rot       z-rot       x-rot vel   y-rot vel   z-rot vel   x-rot acc   y-rot acc   z-rot acc
    22626  1.88800E-06 3.48178E-05 6.06807E-05-4.28747E-06 1.81158E-04 3.12496E-04 1.99033E-06 1.53795E-04 2.78214E-04



 n o d a l   p r i n t   o u t   f o r   t i m e  s t e p   10602                              ( at time 5.2999696E+00 )

 nodal point  x-disp     y-disp      z-disp      x-vel       y-vel       z-vel      x-accl      y-accl      z-accl      x-coor      y-coor      z-coor
    22626 -1.50607E-02-4.39840E-02-1.66478E+01 1.30524E-02-1.60944E-02-3.16164E+00 1.50070E-02 4.08473E-03-5.69640E-03 4.79491E+01-2.20738E+01-9.30931E+00



 n o d a l   p r i n t   o u t   f o r   t i m e  s t e p   10602                              ( at time 5.2999696E+00 )

 nodal point  x-rot      y-rot       z-rot       x-rot vel   y-rot vel   z-rot vel   x-rot acc   y-rot acc   z-rot acc
    22626  1.19455E-06 5.38838E-05 9.34085E-05-1.18584E-05 2.02833E-04 3.41172E-04-7.57169E-05 2.16774E-04 2.86787E-04



 n o d a l   p r i n t   o u t   f o r   t i m e  s t e p   10802                              ( at time 5.3999596E+00 )

 nodal point  x-disp     y-disp      z-disp      x-vel       y-vel       z-vel      x-accl      y-accl      z-accl      x-coor      y-coor      z-coor
    22626 -1.36945E-02-4.55406E-02-1.69639E+01 1.43066E-02-1.48264E-02-3.15989E+00 1.25430E-02 1.26820E-02 1.74612E-02 4.79505E+01-2.20753E+01-9.62536E+00



 n o d a l   p r i n t   o u t   f o r   t i m e  s t e p   10802                              ( at time 5.3999596E+00 )

 nodal point  x-rot      y-rot       z-rot       x-rot vel   y-rot vel   z-rot vel   x-rot acc   y-rot acc   z-rot acc
    22626  5.86156E-07 7.58440E-05 1.27989E-04 5.16585E-06 2.39998E-04 3.41427E-04 1.70260E-04 3.71689E-04 2.54946E-06



 n o d a l   p r i n t   o u t   f o r   t i m e  s t e p   11002                              ( at time 5.4999496E+00 )

 nodal point  x-disp     y-disp      z-disp      x-vel       y-vel       z-vel      x-accl      y-accl      z-accl      x-coor      y-coor      z-coor
    22626 -1.21732E-02-4.69547E-02-1.72795E+01 1.60320E-02-1.32731E-02-3.15317E+00 1.72559E-02 1.55345E-02 6.72957E-02 4.79520E+01-2.20767E+01-9.94104E+00



 n o d a l   p r i n t   o u t   f o r   t i m e  s t e p   11002                              ( at time 5.4999496E+00 )

 nodal point  x-rot      y-rot       z-rot       x-rot vel   y-rot vel   z-rot vel   x-rot acc   y-rot acc   z-rot acc
    22626  1.15102E-06 1.04669E-04 1.63383E-04 9.33989E-06 3.41220E-04 3.56499E-04 4.17446E-05 1.01232E-03 1.50731E-04



 n o d a l   p r i n t   o u t   f o r   t i m e  s t e p   11202                              ( at time 5.5999396E+00 )

 nodal point  x-disp     y-disp      z-disp      x-vel       y-vel       z-vel      x-accl      y-accl      z-accl      x-coor      y-coor      z-coor
    22626 -1.05428E-02-4.80427E-02-1.75943E+01 1.69513E-02-8.26912E-03-3.14184E+00 9.19407E-03 5.00446E-02 1.13222E-01 4.79536E+01-2.20778E+01-1.02558E+01



 n o d a l   p r i n t   o u t   f o r   t i m e  s t e p   11202                              ( at time 5.5999396E+00 )

 nodal point  x-rot      y-rot       z-rot       x-rot vel   y-rot vel   z-rot vel   x-rot acc   y-rot acc   z-rot acc
    22626  5.81672E-06 1.45452E-04 1.97532E-04 8.44845E-05 4.86615E-04 3.37043E-04 7.51522E-04 1.45409E-03-1.94576E-04



 n o d a l   p r i n t   o u t   f o r   t i m e  s t e p   11402                              ( at time 5.6999296E+00 )

 nodal point  x-disp     y-disp      z-disp      x-vel       y-vel       z-vel      x-accl      y-accl      z-accl      x-coor      y-coor      z-coor
    22626 -8.85519E-03-4.85981E-02-1.79076E+01 1.69340E-02-2.31448E-03-3.12494E+00-1.72833E-04 5.95521E-02 1.69036E-01 4.79553E+01-2.20784E+01-1.05691E+01



 n o d a l   p r i n t   o u t   f o r   t i m e  s t e p   11402                              ( at time 5.6999296E+00 )

 nodal point  x-rot      y-rot       z-rot       x-rot vel   y-rot vel   z-rot vel   x-rot acc   y-rot acc   z-rot acc
    22626  1.88800E-05 2.03667E-04 2.29333E-04 1.66020E-04 6.68460E-04 2.90829E-04 8.15429E-04 1.81863E-03-4.62191E-04



 n o d a l   p r i n t   o u t   f o r   t i m e  s t e p   11602                              ( at time 5.7999195E+00 )

 nodal point  x-disp     y-disp      z-disp      x-vel       y-vel       z-vel      x-accl      y-accl      z-accl      x-coor      y-coor      z-coor
    22626 -7.04052E-03-4.86749E-02-1.82191E+01 1.82414E-02 2.38666E-03-3.10305E+00 1.30748E-02 4.70161E-02 2.18974E-01 4.79571E+01-2.20785E+01-1.08806E+01



 n o d a l   p r i n t   o u t   f o r   t i m e  s t e p   11602                              ( at time 5.7999195E+00 )

 nodal point  x-rot      y-rot       z-rot       x-rot vel   y-rot vel   z-rot vel   x-rot acc   y-rot acc   z-rot acc
    22626  3.89467E-05 2.82314E-04 2.57718E-04 2.59612E-04 9.08238E-04 2.43688E-04 9.36016E-04 2.39802E-03-4.71454E-04



 n o d a l   p r i n t   o u t   f o r   t i m e  s t e p   11802                              ( at time 5.8999095E+00 )

 nodal point  x-disp     y-disp      z-disp      x-vel       y-vel       z-vel      x-accl      y-accl      z-accl      x-coor      y-coor      z-coor
    22626 -5.12579E-03-4.82257E-02-1.85282E+01 2.01648E-02 6.67595E-03-3.07861E+00 1.92358E-02 4.28972E-02 2.44351E-01 4.79591E+01-2.20780E+01-1.11897E+01



 n o d a l   p r i n t   o u t   f o r   t i m e  s t e p   11802                              ( at time 5.8999095E+00 )

 nodal point  x-rot      y-rot       z-rot       x-rot vel   y-rot vel   z-rot vel   x-rot acc   y-rot acc   z-rot acc
    22626  7.10433E-05 3.83652E-04 2.80777E-04 3.62306E-04 1.15025E-03 2.07997E-04 1.02705E-03 2.42035E-03-3.56950E-04



 n o d a l   p r i n t   o u t   f o r   t i m e  s t e p   12002                              ( at time 5.9998995E+00 )

 nodal point  x-disp     y-disp      z-disp      x-vel       y-vel       z-vel      x-accl      y-accl      z-accl      x-coor      y-coor      z-coor
    22626 -3.13592E-03-4.72179E-02-1.88346E+01 2.09158E-02 1.20758E-02-3.05062E+00 7.51053E-03 5.40043E-02 2.79984E-01 4.79610E+01-2.20770E+01-1.14961E+01



 n o d a l   p r i n t   o u t   f o r   t i m e  s t e p   12002                              ( at time 5.9998995E+00 )

 nodal point  x-rot      y-rot       z-rot       x-rot vel   y-rot vel   z-rot vel   x-rot acc   y-rot acc   z-rot acc
    22626  1.14767E-04 5.13363E-04 2.97212E-04 5.08103E-04 1.43178E-03 1.35842E-04 1.45812E-03 2.81562E-03-7.21617E-04



 n o d a l   p r i n t   o u t   f o r   t i m e  s t e p   12202                              ( at time 6.0998895E+00 )

 nodal point  x-disp     y-disp      z-disp      x-vel       y-vel       z-vel      x-accl      y-accl      z-accl      x-coor      y-coor      z-coor
    22626 -1.07110E-03-4.56728E-02-1.91380E+01 2.09770E-02 1.83932E-02-3.01828E+00 6.12832E-04 6.31797E-02 3.23424E-01 4.79631E+01-2.20755E+01-1.17995E+01



 n o d a l   p r i n t   o u t   f o r   t i m e  s t e p   12202                              ( at time 6.0998895E+00 )

 nodal point  x-rot      y-rot       z-rot       x-rot vel   y-rot vel   z-rot vel   x-rot acc   y-rot acc   z-rot acc
    22626  1.71661E-04 6.72678E-04 3.06578E-04 6.44008E-04 1.74093E-03 5.60964E-05 1.35918E-03 3.09180E-03-7.97534E-04



 n o d a l   p r i n t   o u t   f o r   t i m e  s t e p   12402                              ( at time 6.1998795E+00 )

 nodal point  x-disp     y-disp      z-disp      x-vel       y-vel       z-vel      x-accl      y-accl      z-accl      x-coor      y-coor      z-coor
    22626  1.10195E-03-4.35250E-02-1.94382E+01 2.25455E-02 2.41256E-02-2.98541E+00 1.56866E-02 5.73296E-02 3.28767E-01 4.79653E+01-2.20733E+01-1.20997E+01



 n o d a l   p r i n t   o u t   f o r   t i m e  s t e p   12402                              ( at time 6.1998795E+00 )

 nodal point  x-rot      y-rot       z-rot       x-rot vel   y-rot vel   z-rot vel   x-rot acc   y-rot acc   z-rot acc
    22626  2.43895E-04 8.61906E-04 3.07560E-04 7.94558E-04 2.05649E-03-3.40429E-05 1.50565E-03 3.15592E-03-9.01484E-04



 n o d a l   p r i n t   o u t   f o r   t i m e  s t e p   12602                              ( at time 6.2998695E+00 )

 nodal point  x-disp     y-disp      z-disp      x-vel       y-vel       z-vel      x-accl      y-accl      z-accl      x-coor      y-coor      z-coor
    22626  3.39128E-03-4.07676E-02-1.97349E+01 2.43522E-02 2.99178E-02-2.95035E+00 1.80684E-02 5.79277E-02 3.50566E-01 4.79676E+01-2.20706E+01-1.23964E+01



 n o d a l   p r i n t   o u t   f o r   t i m e  s t e p   12602                              ( at time 6.2998695E+00 )

 nodal point  x-rot      y-rot       z-rot       x-rot vel   y-rot vel   z-rot vel   x-rot acc   y-rot acc   z-rot acc
    22626  3.30765E-04 1.08463E-03 2.98941E-04 9.40759E-04 2.38906E-03-1.30241E-04 1.46216E-03 3.32600E-03-9.62079E-04



 n o d a l   p r i n t   o u t   f o r   t i m e  s t e p   12802                              ( at time 6.3998595E+00 )

 nodal point  x-disp     y-disp      z-disp      x-vel       y-vel       z-vel      x-accl      y-accl      z-accl      x-coor      y-coor      z-coor
    22626  5.86599E-03-3.74793E-02-2.00281E+01 2.67960E-02 3.64901E-02-2.91316E+00 2.44404E-02 6.57299E-02 3.72009E-01 4.79700E+01-2.20673E+01-1.26896E+01



 n o d a l   p r i n t   o u t   f o r   t i m e  s t e p   12802                              ( at time 6.3998595E+00 )

 nodal point  x-rot      y-rot       z-rot       x-rot vel   y-rot vel   z-rot vel   x-rot acc   y-rot acc   z-rot acc
    22626  4.34163E-04 1.33951E-03 2.80033E-04 1.11759E-03 2.73288E-03-2.49695E-04 1.76849E-03 3.43853E-03-1.19466E-03



 n o d a l   p r i n t   o u t   f o r   t i m e  s t e p   13002                              ( at time 6.4998495E+00 )

 nodal point  x-disp     y-disp      z-disp      x-vel       y-vel       z-vel      x-accl      y-accl      z-accl      x-coor      y-coor      z-coor
    22626  8.68612E-03-3.34901E-02-2.03176E+01 2.96802E-02 4.24696E-02-2.87613E+00 2.88446E-02 5.98016E-02 3.70292E-01 4.79729E+01-2.20633E+01-1.29791E+01



 n o d a l   p r i n t   o u t   f o r   t i m e  s t e p   13002                              ( at time 6.4998495E+00 )

 nodal point  x-rot      y-rot       z-rot       x-rot vel   y-rot vel   z-rot vel   x-rot acc   y-rot acc   z-rot acc
    22626  5.52733E-04 1.62837E-03 2.50911E-04 1.26346E-03 3.05162E-03-3.31693E-04 1.45883E-03 3.18771E-03-8.20061E-04



 n o d a l   p r i n t   o u t   f o r   t i m e  s t e p   13202                              ( at time 6.5998395E+00 )

 nodal point  x-disp     y-disp      z-disp      x-vel       y-vel       z-vel      x-accl      y-accl      z-accl      x-coor      y-coor      z-coor
    22626  1.18277E-02-2.88709E-02-2.06031E+01 3.32472E-02 4.97891E-02-2.83623E+00 3.56743E-02 7.32016E-02 3.99037E-01 4.79760E+01-2.20587E+01-1.32646E+01



 n o d a l   p r i n t   o u t   f o r   t i m e  s t e p   13202                              ( at time 6.5998395E+00 )

 nodal point  x-rot      y-rot       z-rot       x-rot vel   y-rot vel   z-rot vel   x-rot acc   y-rot acc   z-rot acc
    22626  6.88275E-04 1.95196E-03 2.11524E-04 1.44301E-03 3.38104E-03-4.51806E-04 1.79567E-03 3.29452E-03-1.20125E-03



 n o d a l   p r i n t   o u t   f o r   t i m e  s t e p   13402                              ( at time 6.6998295E+00 )

 nodal point  x-disp     y-disp      z-disp      x-vel       y-vel       z-vel      x-accl      y-accl      z-accl      x-coor      y-coor      z-coor
    22626  1.54098E-02-2.35243E-02-2.08846E+01 3.84066E-02 5.73810E-02-2.79271E+00 5.15985E-02 7.59271E-02 4.35294E-01 4.79796E+01-2.20533E+01-1.35461E+01



 n o d a l   p r i n t   o u t   f o r   t i m e  s t e p   13402                              ( at time 6.6998295E+00 )

 nodal point  x-rot      y-rot       z-rot       x-rot vel   y-rot vel   z-rot vel   x-rot acc   y-rot acc   z-rot acc
    22626  8.40692E-04 2.30734E-03 1.60406E-04 1.61781E-03 3.72401E-03-5.71176E-04 1.74821E-03 3.43010E-03-1.19382E-03



 n o d a l   p r i n t   o u t   f o r   t i m e  s t e p   13602                              ( at time 6.7998195E+00 )

 nodal point  x-disp     y-disp      z-disp      x-vel       y-vel       z-vel      x-accl      y-accl      z-accl      x-coor      y-coor      z-coor
    22626  1.95422E-02-1.75364E-02-2.11618E+01 4.43999E-02 6.27672E-02-2.74977E+00 5.99393E-02 5.38673E-02 4.29380E-01 4.79837E+01-2.20473E+01-1.38233E+01



 n o d a l   p r i n t   o u t   f o r   t i m e  s t e p   13602                              ( at time 6.7998195E+00 )

 nodal point  x-rot      y-rot       z-rot       x-rot vel   y-rot vel   z-rot vel   x-rot acc   y-rot acc   z-rot acc
    22626  1.01265E-03 2.69639E-03 9.74187E-05 1.80884E-03 4.05763E-03-6.92185E-04 1.91051E-03 3.33654E-03-1.21021E-03



 n o d a l   p r i n t   o u t   f o r   t i m e  s t e p   13802                              ( at time 6.8998095E+00 )

 nodal point  x-disp     y-disp      z-disp      x-vel       y-vel       z-vel      x-accl      y-accl      z-accl      x-coor      y-coor      z-coor
    22626  2.42591E-02-1.08486E-02-2.14344E+01 5.03646E-02 6.99196E-02-2.70390E+00 5.96527E-02 7.15314E-02 4.58735E-01 4.79884E+01-2.20406E+01-1.40959E+01



 n o d a l   p r i n t   o u t   f o r   t i m e  s t e p   13802                              ( at time 6.8998095E+00 )

 nodal point  x-rot      y-rot       z-rot       x-rot vel   y-rot vel   z-rot vel   x-rot acc   y-rot acc   z-rot acc
    22626  1.20421E-03 3.11878E-03 2.18141E-05 2.01412E-03 4.37499E-03-8.16016E-04 2.05296E-03 3.17386E-03-1.23844E-03



 n o d a l   p r i n t   o u t   f o r   t i m e  s t e p   14002                              ( at time 6.9997995E+00 )

 nodal point  x-disp     y-disp      z-disp      x-vel       y-vel       z-vel      x-accl      y-accl      z-accl      x-coor      y-coor      z-coor
    22626  2.96423E-02-3.48599E-03-2.17023E+01 5.70933E-02 7.76459E-02-2.65421E+00 6.72938E-02 7.72700E-02 4.96974E-01 4.79938E+01-2.20333E+01-1.43638E+01



 n o d a l   p r i n t   o u t   f o r   t i m e  s t e p   14002                              ( at time 6.9997995E+00 )

 nodal point  x-rot      y-rot       z-rot       x-rot vel   y-rot vel   z-rot vel   x-rot acc   y-rot acc   z-rot acc
    22626  1.41693E-03 3.57230E-03-6.52568E-05 2.23957E-03 4.69593E-03-9.40671E-04 2.25475E-03 3.20977E-03-1.24667E-03



 n o d a l   p r i n t   o u t   f o r   t i m e  s t e p   14202                              ( at time 7.0997895E+00 )

 nodal point  x-disp     y-disp      z-disp      x-vel       y-vel       z-vel      x-accl      y-accl      z-accl      x-coor      y-coor      z-coor
    22626  3.57506E-02 4.57545E-03-2.19652E+01 6.45680E-02 8.39436E-02-2.60444E+00 7.47549E-02 6.29834E-02 4.97768E-01 4.79999E+01-2.20252E+01-1.46267E+01



 n o d a l   p r i n t   o u t   f o r   t i m e  s t e p   14202                              ( at time 7.0997895E+00 )

 nodal point  x-rot      y-rot       z-rot       x-rot vel   y-rot vel   z-rot vel   x-rot acc   y-rot acc   z-rot acc
    22626  1.65243E-03 4.05694E-03-1.65113E-04 2.47560E-03 5.00733E-03-1.06982E-03 2.36057E-03 3.11430E-03-1.29157E-03



 n o d a l   p r i n t   o u t   f o r   t i m e  s t e p   14402                              ( at time 7.1997794E+00 )

 nodal point  x-disp     y-disp      z-disp      x-vel       y-vel       z-vel      x-accl      y-accl      z-accl      x-coor      y-coor      z-coor
    22626  4.26365E-02 1.32680E-02-2.22229E+01 7.30287E-02 8.98422E-02-2.55071E+00 8.46153E-02 5.89922E-02 5.37292E-01 4.80068E+01-2.20165E+01-1.48844E+01



 n o d a l   p r i n t   o u t   f o r   t i m e  s t e p   14402                              ( at time 7.1997794E+00 )

 nodal point  x-rot      y-rot       z-rot       x-rot vel   y-rot vel   z-rot vel   x-rot acc   y-rot acc   z-rot acc
    22626  1.91140E-03 4.57356E-03-2.77576E-04 2.70743E-03 5.30628E-03-1.18903E-03 2.31853E-03 2.98975E-03-1.19223E-03



 n o d a l   p r i n t   o u t   f o r   t i m e  s t e p   14602                              ( at time 7.2997694E+00 )

 nodal point  x-disp     y-disp      z-disp      x-vel       y-vel       z-vel      x-accl      y-accl      z-accl      x-coor      y-coor      z-coor
    22626  5.03546E-02 2.25848E-02-2.24751E+01 8.09040E-02 9.65886E-02-2.49456E+00 7.87609E-02 6.74706E-02 5.61594E-01 4.80145E+01-2.20072E+01-1.51366E+01



 n o d a l   p r i n t   o u t   f o r   t i m e  s t e p   14602                              ( at time 7.2997694E+00 )

 nodal point  x-rot      y-rot       z-rot       x-rot vel   y-rot vel   z-rot vel   x-rot acc   y-rot acc   z-rot acc
    22626  2.19421E-03 5.12176E-03-4.02397E-04 2.96813E-03 5.63411E-03-1.31379E-03 2.60718E-03 3.27863E-03-1.24779E-03



 n o d a l   p r i n t   o u t   f o r   t i m e  s t e p   14802                              ( at time 7.3997594E+00 )

 nodal point  x-disp     y-disp      z-disp      x-vel       y-vel       z-vel      x-accl      y-accl      z-accl      x-coor      y-coor      z-coor
    22626  5.89039E-02 3.25225E-02-2.27217E+01 8.99578E-02 1.02948E-01-2.43653E+00 9.05475E-02 6.35977E-02 5.80327E-01 4.80231E+01-2.19973E+01-1.53832E+01



 n o d a l   p r i n t   o u t   f o r   t i m e  s t e p   14802                              ( at time 7.3997594E+00 )

 nodal point  x-rot      y-rot       z-rot       x-rot vel   y-rot vel   z-rot vel   x-rot acc   y-rot acc   z-rot acc
    22626  2.50249E-03 5.70050E-03-5.39257E-04 3.20506E-03 5.93721E-03-1.44526E-03 2.36957E-03 3.03137E-03-1.31478E-03



 n o d a l   p r i n t   o u t   f o r   t i m e  s t e p   15002                              ( at time 7.4997494E+00 )

 nodal point  x-disp     y-disp      z-disp      x-vel       y-vel       z-vel      x-accl      y-accl      z-accl      x-coor      y-coor      z-coor
    22626  6.83909E-02 4.30244E-02-2.29623E+01 9.93219E-02 1.07412E-01-2.37715E+00 9.36496E-02 4.46518E-02 5.93948E-01 4.80326E+01-2.19868E+01-1.56238E+01



 n o d a l   p r i n t   o u t   f o r   t i m e  s t e p   15002                              ( at time 7.4997494E+00 )

 nodal point  x-rot      y-rot       z-rot       x-rot vel   y-rot vel   z-rot vel   x-rot acc   y-rot acc   z-rot acc
    22626  2.83683E-03 6.30944E-03-6.87448E-04 3.46964E-03 6.22147E-03-1.52841E-03 2.64609E-03 2.84289E-03-8.31588E-04



 n o d a l   p r i n t   o u t   f o r   t i m e  s t e p   15202                              ( at time 7.5997394E+00 )

 nodal point  x-disp     y-disp      z-disp      x-vel       y-vel       z-vel      x-accl      y-accl      z-accl      x-coor      y-coor      z-coor
    22626  7.87041E-02 5.39894E-02-2.31970E+01 1.07468E-01 1.11519E-01-2.31654E+00 8.14710E-02 4.10680E-02 6.06159E-01 4.80429E+01-2.19758E+01-1.58585E+01



 n o d a l   p r i n t   o u t   f o r   t i m e  s t e p   15202                              ( at time 7.5997394E+00 )

 nodal point  x-rot      y-rot       z-rot       x-rot vel   y-rot vel   z-rot vel   x-rot acc   y-rot acc   z-rot acc
    22626  3.19753E-03 6.94575E-03-8.46046E-04 3.74587E-03 6.50659E-03-1.64516E-03 2.76254E-03 2.85143E-03-1.16768E-03



 n o d a l   p r i n t   o u t   f o r   t i m e  s t e p   15402                              ( at time 7.6997294E+00 )

 nodal point  x-disp     y-disp      z-disp      x-vel       y-vel       z-vel      x-accl      y-accl      z-accl      x-coor      y-coor      z-coor
    22626  8.98411E-02 6.53856E-02-2.34255E+01 1.16461E-01 1.16337E-01-2.25402E+00 8.99397E-02 4.81881E-02 6.25218E-01 4.80540E+01-2.19644E+01-1.60870E+01



 n o d a l   p r i n t   o u t   f o r   t i m e  s t e p   15402                              ( at time 7.6997294E+00 )

 nodal point  x-rot      y-rot       z-rot       x-rot vel   y-rot vel   z-rot vel   x-rot acc   y-rot acc   z-rot acc
    22626  3.58729E-03 7.61137E-03-1.01604E-03 4.04030E-03 6.78613E-03-1.74699E-03 2.94456E-03 2.79569E-03-1.01837E-03



 n o d a l   p r i n t   o u t   f o r   t i m e  s t e p   15602                              ( at time 7.7997194E+00 )

 nodal point  x-disp     y-disp      z-disp      x-vel       y-vel       z-vel      x-accl      y-accl      z-accl      x-coor      y-coor      z-coor
    22626  1.01901E-01 7.71817E-02-2.36477E+01 1.25222E-01 1.19369E-01-2.19018E+00 8.76183E-02 3.03199E-02 6.38502E-01 4.80661E+01-2.19526E+01-1.63092E+01



 n o d a l   p r i n t   o u t   f o r   t i m e  s t e p   15602                              ( at time 7.7997194E+00 )

 nodal point  x-rot      y-rot       z-rot       x-rot vel   y-rot vel   z-rot vel   x-rot acc   y-rot acc   z-rot acc
    22626  4.00580E-03 8.30233E-03-1.19391E-03 4.33908E-03 7.02637E-03-1.83505E-03 2.98816E-03 2.40266E-03-8.80646E-04



 n o d a l   p r i n t   o u t   f o r   t i m e  s t e p   15802                              ( at time 7.8997094E+00 )

 nodal point  x-disp     y-disp      z-disp      x-vel       y-vel       z-vel      x-accl      y-accl      z-accl      x-coor      y-coor      z-coor
    22626  1.14815E-01 8.93378E-02-2.38634E+01 1.32761E-01 1.24018E-01-2.12449E+00 7.53986E-02 4.64933E-02 6.56941E-01 4.80790E+01-2.19405E+01-1.65249E+01



 n o d a l   p r i n t   o u t   f o r   t i m e  s t e p   15802                              ( at time 7.8997094E+00 )

 nodal point  x-rot      y-rot       z-rot       x-rot vel   y-rot vel   z-rot vel   x-rot acc   y-rot acc   z-rot acc
    22626  4.45427E-03 9.01821E-03-1.38173E-03 4.63814E-03 7.27708E-03-1.94007E-03 2.99088E-03 2.50731E-03-1.05029E-03



 n o d a l   p r i n t   o u t   f o r   t i m e  s t e p   16002                              ( at time 7.9996994E+00 )

 nodal point  x-disp     y-disp      z-disp      x-vel       y-vel       z-vel      x-accl      y-accl      z-accl      x-coor      y-coor      z-coor
    22626  1.28520E-01 1.01801E-01-2.40725E+01 1.41311E-01 1.25805E-01-2.05850E+00 8.55051E-02 1.78733E-02 6.59973E-01 4.80927E+01-2.19280E+01-1.67340E+01



 n o d a l   p r i n t   o u t   f o r   t i m e  s t e p   16002                              ( at time 7.9996994E+00 )

 nodal point  x-rot      y-rot       z-rot       x-rot vel   y-rot vel   z-rot vel   x-rot acc   y-rot acc   z-rot acc
    22626  4.93298E-03 9.75727E-03-1.57794E-03 4.95229E-03 7.50118E-03-2.00104E-03 3.14177E-03 2.24127E-03-6.09778E-04



 n o d a l   p r i n t   o u t   f o r   t i m e  s t e p   16202                              ( at time 8.0996894E+00 )

 nodal point  x-disp     y-disp      z-disp      x-vel       y-vel       z-vel      x-accl      y-accl      z-accl      x-coor      y-coor      z-coor
    22626  1.43024E-01 1.14502E-01-2.42750E+01 1.49035E-01 1.28486E-01-1.99086E+00 7.72498E-02 2.68160E-02 6.76407E-01 4.81072E+01-2.19153E+01-1.69365E+01



 n o d a l   p r i n t   o u t   f o r   t i m e  s t e p   16202                              ( at time 8.0996894E+00 )

 nodal point  x-rot      y-rot       z-rot       x-rot vel   y-rot vel   z-rot vel   x-rot acc   y-rot acc   z-rot acc
    22626  5.44326E-03 1.05189E-02-1.78169E-03 5.25767E-03 7.72273E-03-2.07533E-03 3.05411E-03 2.21576E-03-7.43035E-04



 n o d a l   p r i n t   o u t   f o r   t i m e  s t e p   16402                              ( at time 8.1996794E+00 )

 nodal point  x-disp     y-disp      z-disp      x-vel       y-vel       z-vel      x-accl      y-accl      z-accl      x-coor      y-coor      z-coor
    22626  1.58336E-01 1.27437E-01-2.44707E+01 1.57603E-01 1.30687E-01-1.92346E+00 8.56851E-02 2.20127E-02 6.74062E-01 4.81225E+01-2.19024E+01-1.71322E+01



 n o d a l   p r i n t   o u t   f o r   t i m e  s t e p   16402                              ( at time 8.1996794E+00 )

 nodal point  x-rot      y-rot       z-rot       x-rot vel   y-rot vel   z-rot vel   x-rot acc   y-rot acc   z-rot acc
    22626  5.98487E-03 1.13005E-02-1.99274E-03 5.58918E-03 7.89229E-03-2.14972E-03 3.31544E-03 1.69577E-03-7.43925E-04



 n o d a l   p r i n t   o u t   f o r   t i m e  s t e p   16602                              ( at time 8.2996694E+00 )

 nodal point  x-disp     y-disp      z-disp      x-vel       y-vel       z-vel      x-accl      y-accl      z-accl      x-coor      y-coor      z-coor
    22626  1.74492E-01 1.40560E-01-2.46596E+01 1.65522E-01 1.31335E-01-1.85464E+00 7.91998E-02 6.47402E-03 6.88359E-01 4.81387E+01-2.18892E+01-1.73211E+01



 n o d a l   p r i n t   o u t   f o r   t i m e  s t e p   16602                              ( at time 8.2996694E+00 )

 nodal point  x-rot      y-rot       z-rot       x-rot vel   y-rot vel   z-rot vel   x-rot acc   y-rot acc   z-rot acc
    22626  6.55851E-03 1.20998E-02-2.21079E-03 5.87532E-03 8.07390E-03-2.22209E-03 2.86173E-03 1.81622E-03-7.23795E-04



 n o d a l   p r i n t   o u t   f o r   t i m e  s t e p   16802                              ( at time 8.3996594E+00 )

 nodal point  x-disp     y-disp      z-disp      x-vel       y-vel       z-vel      x-accl      y-accl      z-accl      x-coor      y-coor      z-coor
    22626  1.91458E-01 1.53785E-01-2.48415E+01 1.73718E-01 1.32848E-01-1.78376E+00 8.19693E-02 1.51329E-02 7.08782E-01 4.81556E+01-2.18760E+01-1.75030E+01



 n o d a l   p r i n t   o u t   f o r   t i m e  s t e p   16802                              ( at time 8.3996594E+00 )

 nodal point  x-rot      y-rot       z-rot       x-rot vel   y-rot vel   z-rot vel   x-rot acc   y-rot acc   z-rot acc
    22626  7.16382E-03 1.29153E-02-2.43455E-03 6.21594E-03 8.22453E-03-2.27002E-03 3.40657E-03 1.50645E-03-4.79333E-04



 n o d a l   p r i n t   o u t   f o r   t i m e  s t e p   17002                              ( at time 8.4996494E+00 )

 nodal point  x-disp     y-disp      z-disp      x-vel       y-vel       z-vel      x-accl      y-accl      z-accl      x-coor      y-coor      z-coor
    22626  2.09170E-01 1.67032E-01-2.50163E+01 1.80992E-01 1.31923E-01-1.71213E+00 7.27426E-02-9.24711E-03 7.16388E-01 4.81734E+01-2.18628E+01-1.76778E+01



 n o d a l   p r i n t   o u t   f o r   t i m e  s t e p   17002                              ( at time 8.4996494E+00 )

 nodal point  x-rot      y-rot       z-rot       x-rot vel   y-rot vel   z-rot vel   x-rot acc   y-rot acc   z-rot acc
    22626  7.80148E-03 1.37456E-02-2.66438E-03 6.53185E-03 8.38166E-03-2.34891E-03 3.15939E-03 1.57145E-03-7.88982E-04



 n o d a l   p r i n t   o u t   f o r   t i m e  s t e p   17202                              ( at time 8.5996394E+00 )

 nodal point  x-disp     y-disp      z-disp      x-vel       y-vel       z-vel      x-accl      y-accl      z-accl      x-coor      y-coor      z-coor
    22626  2.27686E-01 1.80061E-01-2.51838E+01 1.89207E-01 1.28847E-01-1.63814E+00 8.21602E-02-3.07663E-02 7.39965E-01 4.81919E+01-2.18497E+01-1.78452E+01



 n o d a l   p r i n t   o u t   f o r   t i m e  s t e p   17202                              ( at time 8.5996394E+00 )

 nodal point  x-rot      y-rot       z-rot       x-rot vel   y-rot vel   z-rot vel   x-rot acc   y-rot acc   z-rot acc
    22626  8.47077E-03 1.45889E-02-2.90160E-03 6.86535E-03 8.47500E-03-2.41594E-03 3.33529E-03 9.33522E-04-6.70343E-04



 n o d a l   p r i n t   o u t   f o r   t i m e  s t e p   17402                              ( at time 8.6996293E+00 )

 nodal point  x-disp     y-disp      z-disp      x-vel       y-vel       z-vel      x-accl      y-accl      z-accl      x-coor      y-coor      z-coor
    22626  2.47013E-01 1.92796E-01-2.53439E+01 1.97445E-01 1.25398E-01-1.56567E+00 8.23879E-02-3.44953E-02 7.24848E-01 4.82112E+01-2.18370E+01-1.80054E+01



 n o d a l   p r i n t   o u t   f o r   t i m e  s t e p   17402                              ( at time 8.6996293E+00 )

 nodal point  x-rot      y-rot       z-rot       x-rot vel   y-rot vel   z-rot vel   x-rot acc   y-rot acc   z-rot acc
    22626  9.17605E-03 1.54419E-02-3.14589E-03 7.22693E-03 8.58805E-03-2.49873E-03 3.61620E-03 1.13058E-03-8.27973E-04



 n o d a l   p r i n t   o u t   f o r   t i m e  s t e p   17602                              ( at time 8.7996193E+00 )

 nodal point  x-disp     y-disp      z-disp      x-vel       y-vel       z-vel      x-accl      y-accl      z-accl      x-coor      y-coor      z-coor
    22626  2.67198E-01 2.04996E-01-2.54966E+01 2.05419E-01 1.18419E-01-1.48877E+00 7.97531E-02-6.97887E-02 7.69036E-01 4.82314E+01-2.18248E+01-1.81581E+01



 n o d a l   p r i n t   o u t   f o r   t i m e  s t e p   17602                              ( at time 8.7996193E+00 )

 nodal point  x-rot      y-rot       z-rot       x-rot vel   y-rot vel   z-rot vel   x-rot acc   y-rot acc   z-rot acc
    22626  9.91598E-03 1.63077E-02-3.39840E-03 7.57927E-03 8.70673E-03-2.56962E-03 3.52375E-03 1.18690E-03-7.08964E-04



 n o d a l   p r i n t   o u t   f o r   t i m e  s t e p   17802                              ( at time 8.8996093E+00 )

 nodal point  x-disp     y-disp      z-disp      x-vel       y-vel       z-vel      x-accl      y-accl      z-accl      x-coor      y-coor      z-coor
    22626  2.88188E-01 2.16547E-01-2.56417E+01 2.14372E-01 1.12805E-01-1.41332E+00 8.95369E-02-5.61462E-02 7.54542E-01 4.82524E+01-2.18132E+01-1.83032E+01



 n o d a l   p r i n t   o u t   f o r   t i m e  s t e p   17802                              ( at time 8.8996093E+00 )

 nodal point  x-rot      y-rot       z-rot       x-rot vel   y-rot vel   z-rot vel   x-rot acc   y-rot acc   z-rot acc
    22626  1.06939E-02 1.71816E-02-3.65859E-03 7.98075E-03 8.77875E-03-2.64520E-03 4.01519E-03 7.20283E-04-7.55942E-04



 n o d a l   p r i n t   o u t   f o r   t i m e  s t e p   18002                              ( at time 8.9995993E+00 )

 nodal point  x-disp     y-disp      z-disp      x-vel       y-vel       z-vel      x-accl      y-accl      z-accl      x-coor      y-coor      z-coor
    22626  3.10114E-01 2.27539E-01-2.57790E+01 2.23988E-01 1.07195E-01-1.33415E+00 9.61650E-02-5.61073E-02 7.91805E-01 4.82743E+01-2.18023E+01-1.84405E+01



 n o d a l   p r i n t   o u t   f o r   t i m e  s t e p   18002                              ( at time 8.9995993E+00 )

 nodal point  x-rot      y-rot       z-rot       x-rot vel   y-rot vel   z-rot vel   x-rot acc   y-rot acc   z-rot acc
    22626  1.15110E-02 1.80627E-02-3.92682E-03 8.37008E-03 8.83933E-03-2.73870E-03 3.89367E-03 6.05915E-04-9.35082E-04



 n o d a l   p r i n t   o u t   f o r   t i m e  s t e p   18202                              ( at time 9.0995893E+00 )

 nodal point  x-disp     y-disp      z-disp      x-vel       y-vel       z-vel      x-accl      y-accl      z-accl      x-coor      y-coor      z-coor
    22626  3.32895E-01 2.37899E-01-2.59085E+01 2.31255E-01 1.00296E-01-1.25548E+00 7.26767E-02-6.89947E-02 7.86787E-01 4.82971E+01-2.17919E+01-1.85700E+01



 n o d a l   p r i n t   o u t   f o r   t i m e  s t e p   18202                              ( at time 9.0995893E+00 )

 nodal point  x-rot      y-rot       z-rot       x-rot vel   y-rot vel   z-rot vel   x-rot acc   y-rot acc   z-rot acc
    22626  1.23681E-02 1.89512E-02-4.20391E-03 8.78591E-03 8.93129E-03-2.81012E-03 4.15870E-03 9.19653E-04-7.14269E-04



 n o d a l   p r i n t   o u t   f o r   t i m e  s t e p   18402                              ( at time 9.1995793E+00 )

 nodal point  x-disp     y-disp      z-disp      x-vel       y-vel       z-vel      x-accl      y-accl      z-accl      x-coor      y-coor      z-coor
    22626  3.56532E-01 2.47639E-01-2.60300E+01 2.41477E-01 9.46572E-02-1.17714E+00 1.02231E-01-5.63983E-02 7.83445E-01 4.83207E+01-2.17822E+01-1.86915E+01



 n o d a l   p r i n t   o u t   f o r   t i m e  s t e p   18402                              ( at time 9.1995793E+00 )

 nodal point  x-rot      y-rot       z-rot       x-rot vel   y-rot vel   z-rot vel   x-rot acc   y-rot acc   z-rot acc
    22626  1.32683E-02 1.98457E-02-4.48939E-03 9.20788E-03 8.97525E-03-2.90481E-03 4.22017E-03 4.39619E-04-9.47030E-04



 n o d a l   p r i n t   o u t   f o r   t i m e  s t e p   18602                              ( at time 9.2995693E+00 )

 nodal point  x-disp     y-disp      z-disp      x-vel       y-vel       z-vel      x-accl      y-accl      z-accl      x-coor      y-coor      z-coor
    22626  3.81082E-01 2.56698E-01-2.61438E+01 2.48823E-01 8.65801E-02-1.10010E+00 7.34658E-02-8.07793E-02 7.70466E-01 4.83453E+01-2.17731E+01-1.88053E+01



 n o d a l   p r i n t   o u t   f o r   t i m e  s t e p   18602                              ( at time 9.2995693E+00 )

 nodal point  x-rot      y-rot       z-rot       x-rot vel   y-rot vel   z-rot vel   x-rot acc   y-rot acc   z-rot acc
    22626  1.42074E-02 2.07485E-02-4.78211E-03 9.58571E-03 9.06614E-03-2.94611E-03 3.77867E-03 9.09091E-04-4.13051E-04



 n o d a l   p r i n t   o u t   f o r   t i m e  s t e p   18802                              ( at time 9.3995593E+00 )

 nodal point  x-disp     y-disp      z-disp      x-vel       y-vel       z-vel      x-accl      y-accl      z-accl      x-coor      y-coor      z-coor
    22626  4.06348E-01 2.65083E-01-2.62500E+01 2.56642E-01 8.03535E-02-1.02323E+00 7.81977E-02-6.22718E-02 7.68845E-01 4.83705E+01-2.17647E+01-1.89115E+01



 n o d a l   p r i n t   o u t   f o r   t i m e  s t e p   18802                              ( at time 9.3995593E+00 )

 nodal point  x-rot      y-rot       z-rot       x-rot vel   y-rot vel   z-rot vel   x-rot acc   y-rot acc   z-rot acc
    22626  1.51877E-02 2.16588E-02-5.08259E-03 1.00302E-02 9.13883E-03-3.05362E-03 4.44506E-03 7.26961E-04-1.07517E-03



 n o d a l   p r i n t   o u t   f o r   t i m e  s t e p   19002                              ( at time 9.4995493E+00 )

 nodal point  x-disp     y-disp      z-disp      x-vel       y-vel       z-vel      x-accl      y-accl      z-accl      x-coor      y-coor      z-coor
    22626  4.32441E-01 2.72790E-01-2.63484E+01 2.65260E-01 7.52503E-02-9.46273E-01 8.61899E-02-5.10375E-02 7.69629E-01 4.83966E+01-2.17570E+01-1.90099E+01



 n o d a l   p r i n t   o u t   f o r   t i m e  s t e p   19002                              ( at time 9.4995493E+00 )

 nodal point  x-rot      y-rot       z-rot       x-rot vel   y-rot vel   z-rot vel   x-rot acc   y-rot acc   z-rot acc
    22626  1.62100E-02 2.25763E-02-5.39121E-03 1.04149E-02 9.22211E-03-3.12180E-03 3.84770E-03 8.32845E-04-6.81825E-04



 n o d a l   p r i n t   o u t   f o r   t i m e  s t e p   19202                              ( at time 9.5995393E+00 )

 nodal point  x-disp     y-disp      z-disp      x-vel       y-vel       z-vel      x-accl      y-accl      z-accl      x-coor      y-coor      z-coor
    22626  4.59272E-01 2.79945E-01-2.64394E+01 2.71255E-01 6.74385E-02-8.74215E-01 5.99564E-02-7.81254E-02 7.20641E-01 4.84235E+01-2.17498E+01-1.91009E+01



 n o d a l   p r i n t   o u t   f o r   t i m e  s t e p   19202                              ( at time 9.5995393E+00 )

 nodal point  x-rot      y-rot       z-rot       x-rot vel   y-rot vel   z-rot vel   x-rot acc   y-rot acc   z-rot acc
    22626  1.72706E-02 2.35030E-02-5.70677E-03 1.08165E-02 9.32694E-03-3.17513E-03 4.01641E-03 1.04836E-03-5.33429E-04



 n o d a l   p r i n t   o u t   f o r   t i m e  s t e p   19402                              ( at time 9.6995293E+00 )

 nodal point  x-disp     y-disp      z-disp      x-vel       y-vel       z-vel      x-accl      y-accl      z-accl      x-coor      y-coor      z-coor
    22626  4.86745E-01 2.86527E-01-2.65231E+01 2.79882E-01 6.44410E-02-7.99712E-01 8.62793E-02-2.99772E-02 7.45105E-01 4.84509E+01-2.17433E+01-1.91846E+01



 n o d a l   p r i n t   o u t   f o r   t i m e  s t e p   19402                              ( at time 9.6995293E+00 )

 nodal point  x-rot      y-rot       z-rot       x-rot vel   y-rot vel   z-rot vel   x-rot acc   y-rot acc   z-rot acc
    22626  1.83724E-02 2.44384E-02-6.02889E-03 1.12340E-02 9.37296E-03-3.25764E-03 4.17571E-03 4.60315E-04-8.25121E-04



 n o d a l   p r i n t   o u t   f o r   t i m e  s t e p   19602                              ( at time 9.7995193E+00 )

 nodal point  x-disp     y-disp      z-disp      x-vel       y-vel       z-vel      x-accl      y-accl      z-accl      x-coor      y-coor      z-coor
    22626  5.15118E-01 2.92795E-01-2.65994E+01 2.87675E-01 6.10276E-02-7.25335E-01 7.79409E-02-3.41377E-02 7.43850E-01 4.84793E+01-2.17370E+01-1.92609E+01



 n o d a l   p r i n t   o u t   f o r   t i m e  s t e p   19602                              ( at time 9.7995193E+00 )

 nodal point  x-rot      y-rot       z-rot       x-rot vel   y-rot vel   z-rot vel   x-rot acc   y-rot acc   z-rot acc
    22626  1.95178E-02 2.53796E-02-6.35914E-03 1.16807E-02 9.45514E-03-3.33758E-03 4.46759E-03 8.21873E-04-7.99502E-04



 n o d a l   p r i n t   o u t   f o r   t i m e  s t e p   19802                              ( at time 9.8995093E+00 )

 nodal point  x-disp     y-disp      z-disp      x-vel       y-vel       z-vel      x-accl      y-accl      z-accl      x-coor      y-coor      z-coor
    22626  5.44257E-01 2.98638E-01-2.66684E+01 2.95354E-01 5.70860E-02-6.54594E-01 7.67982E-02-3.94205E-02 7.07483E-01 4.85084E+01-2.17312E+01-1.93299E+01



 n o d a l   p r i n t   o u t   f o r   t i m e  s t e p   19802                              ( at time 9.8995093E+00 )

 nodal point  x-rot      y-rot       z-rot       x-rot vel   y-rot vel   z-rot vel   x-rot acc   y-rot acc   z-rot acc
    22626  2.07043E-02 2.63299E-02-6.69504E-03 1.20452E-02 9.54420E-03-3.38986E-03 3.64520E-03 8.90630E-04-5.22807E-04



 n o d a l   p r i n t   o u t   f o r   t i m e  s t e p   20003                              ( at time 9.9999992E+00 )

 nodal point  x-disp     y-disp      z-disp      x-vel       y-vel       z-vel      x-accl      y-accl      z-accl      x-coor      y-coor      z-coor
[...]
    22626  2.36725E-01 1.43073E-01-6.34219E-02 1.60167E-02 6.68729E-03-4.65340E-03 2.46451E-05 6.96693E-06 2.97403E-04



 n o d a l   p r i n t   o u t   f o r   t i m e  s t e p   45205                              ( at time 2.2599738E+01 )

 nodal point  x-disp     y-disp      z-disp      x-vel       y-vel       z-vel      x-accl      y-accl      z-accl      x-coor      y-coor      z-coor
    22626  4.57900E+00 2.74878E-01-2.15208E+01 2.77348E-01-6.70119E-02 4.41466E-01 5.16909E-03-2.26115E-02-4.62455E-03 5.25432E+01-2.17549E+01-1.41823E+01



 n o d a l   p r i n t   o u t   f o r   t i m e  s t e p   45205                              ( at time 2.2599738E+01 )

 nodal point  x-rot      y-rot       z-rot       x-rot vel   y-rot vel   z-rot vel   x-rot acc   y-rot acc   z-rot acc
    22626  2.38327E-01 1.43742E-01-6.38861E-02 1.60215E-02 6.68446E-03-4.63080E-03 4.84146E-05-2.82962E-05 2.26053E-04



 n o d a l   p r i n t   o u t   f o r   t i m e  s t e p   45405                              ( at time 2.2699728E+01 )

 nodal point  x-disp     y-disp      z-disp      x-vel       y-vel       z-vel      x-accl      y-accl      z-accl      x-coor      y-coor      z-coor
    22626  4.60684E+00 2.68136E-01-2.14767E+01 2.79094E-01-6.81201E-02 4.41585E-01 1.74655E-02-1.10838E-02 1.18835E-03 5.25710E+01-2.17617E+01-1.41382E+01



 n o d a l   p r i n t   o u t   f o r   t i m e  s t e p   45405                              ( at time 2.2699728E+01 )

 nodal point  x-rot      y-rot       z-rot       x-rot vel   y-rot vel   z-rot vel   x-rot acc   y-rot acc   z-rot acc
    22626  2.39931E-01 1.44410E-01-6.43479E-02 1.60491E-02 6.68898E-03-4.59752E-03 2.75721E-04 4.52626E-05 3.32836E-04



 n o d a l   p r i n t   o u t   f o r   t i m e  s t e p   45605                              ( at time 2.2799718E+01 )

 nodal point  x-disp     y-disp      z-disp      x-vel       y-vel       z-vel      x-accl      y-accl      z-accl      x-coor      y-coor      z-coor
    22626  4.63483E+00 2.61247E-01-2.14326E+01 2.80676E-01-6.95274E-02 4.40526E-01 1.58122E-02-1.40743E-02-1.05876E-02 5.25990E+01-2.17685E+01-1.40941E+01



 n o d a l   p r i n t   o u t   f o r   t i m e  s t e p   45605                              ( at time 2.2799718E+01 )

 nodal point  x-rot      y-rot       z-rot       x-rot vel   y-rot vel   z-rot vel   x-rot acc   y-rot acc   z-rot acc
    22626  2.41536E-01 1.45079E-01-6.48063E-02 1.60640E-02 6.68327E-03-4.57184E-03 1.49472E-04-5.70813E-05 2.56757E-04



 n o d a l   p r i n t   o u t   f o r   t i m e  s t e p   45805                              ( at time 2.2899708E+01 )

 nodal point  x-disp     y-disp      z-disp      x-vel       y-vel       z-vel      x-accl      y-accl      z-accl      x-coor      y-coor      z-coor
    22626  4.66292E+00 2.54202E-01-2.13886E+01 2.81338E-01-7.14520E-02 4.39855E-01 6.62609E-03-1.92481E-02-6.71401E-03 5.26271E+01-2.17756E+01-1.40501E+01



 n o d a l   p r i n t   o u t   f o r   t i m e  s t e p   45805                              ( at time 2.2899708E+01 )

 nodal point  x-rot      y-rot       z-rot       x-rot vel   y-rot vel   z-rot vel   x-rot acc   y-rot acc   z-rot acc
    22626  2.43143E-01 1.45746E-01-6.52618E-02 1.60885E-02 6.67473E-03-4.54032E-03 2.45151E-04-8.54630E-05 3.15288E-04



 n o d a l   p r i n t   o u t   f o r   t i m e  s t e p   46005                              ( at time 2.2999698E+01 )

 nodal point  x-disp     y-disp      z-disp      x-vel       y-vel       z-vel      x-accl      y-accl      z-accl      x-coor      y-coor      z-coor
    22626  4.69116E+00 2.46954E-01-2.13446E+01 2.83037E-01-7.31245E-02 4.40744E-01 1.69862E-02-1.67258E-02 8.89562E-03 5.26553E+01-2.17828E+01-1.40061E+01



 n o d a l   p r i n t   o u t   f o r   t i m e  s t e p   46005                              ( at time 2.2999698E+01 )

 nodal point  x-rot      y-rot       z-rot       x-rot vel   y-rot vel   z-rot vel   x-rot acc   y-rot acc   z-rot acc
    22626  2.44754E-01 1.46414E-01-6.57141E-02 1.61246E-02 6.69264E-03-4.50957E-03 3.60473E-04 1.79100E-04 3.07518E-04



 n o d a l   p r i n t   o u t   f o r   t i m e  s t e p   46205                              ( at time 2.3099688E+01 )

 nodal point  x-disp     y-disp      z-disp      x-vel       y-vel       z-vel      x-accl      y-accl      z-accl      x-coor      y-coor      z-coor
    22626  4.71953E+00 2.39622E-01-2.13006E+01 2.83892E-01-7.33717E-02 4.39252E-01 8.55779E-03-2.47245E-03-1.49255E-02 5.26837E+01-2.17902E+01-1.39621E+01



 n o d a l   p r i n t   o u t   f o r   t i m e  s t e p   46205                              ( at time 2.3099688E+01 )

 nodal point  x-rot      y-rot       z-rot       x-rot vel   y-rot vel   z-rot vel   x-rot acc   y-rot acc   z-rot acc
    22626  2.46369E-01 1.47081E-01-6.61630E-02 1.61775E-02 6.65726E-03-4.47341E-03 5.29478E-04-3.53825E-04 3.61589E-04



 n o d a l   p r i n t   o u t   f o r   t i m e  s t e p   46405                              ( at time 2.3199678E+01 )

 nodal point  x-disp     y-disp      z-disp      x-vel       y-vel       z-vel      x-accl      y-accl      z-accl      x-coor      y-coor      z-coor
    22626  4.74796E+00 2.32281E-01-2.12565E+01 2.85243E-01-7.42119E-02 4.41329E-01 1.35085E-02-8.40271E-03 2.07759E-02 5.27121E+01-2.17975E+01-1.39180E+01



 n o d a l   p r i n t   o u t   f o r   t i m e  s t e p   46405                              ( at time 2.3199678E+01 )

 nodal point  x-rot      y-rot       z-rot       x-rot vel   y-rot vel   z-rot vel   x-rot acc   y-rot acc   z-rot acc
    22626  2.47989E-01 1.47747E-01-6.66087E-02 1.62132E-02 6.66054E-03-4.42936E-03 3.57418E-04 3.27856E-05 4.40584E-04



 n o d a l   p r i n t   o u t   f o r   t i m e  s t e p   46605                              ( at time 2.3299668E+01 )

 nodal point  x-disp     y-disp      z-disp      x-vel       y-vel       z-vel      x-accl      y-accl      z-accl      x-coor      y-coor      z-coor
    22626  4.77651E+00 2.24849E-01-2.12123E+01 2.85673E-01-7.37463E-02 4.43540E-01 4.30125E-03 4.65661E-03 2.21038E-02 5.27407E+01-2.18049E+01-1.38738E+01



 n o d a l   p r i n t   o u t   f o r   t i m e  s t e p   46605                              ( at time 2.3299668E+01 )

 nodal point  x-rot      y-rot       z-rot       x-rot vel   y-rot vel   z-rot vel   x-rot acc   y-rot acc   z-rot acc
    22626  2.49611E-01 1.48413E-01-6.70501E-02 1.62457E-02 6.65202E-03-4.40538E-03 3.24397E-04-8.52301E-05 2.39847E-04



 n o d a l   p r i n t   o u t   f o r   t i m e  s t e p   46805                              ( at time 2.3399658E+01 )

 nodal point  x-disp     y-disp      z-disp      x-vel       y-vel       z-vel      x-accl      y-accl      z-accl      x-coor      y-coor      z-coor
    22626  4.80504E+00 2.17545E-01-2.11678E+01 2.85293E-01-7.20154E-02 4.47687E-01-3.80074E-03 1.73097E-02 4.14815E-02 5.27692E+01-2.18122E+01-1.38293E+01



 n o d a l   p r i n t   o u t   f o r   t i m e  s t e p   46805                              ( at time 2.3399658E+01 )

 nodal point  x-rot      y-rot       z-rot       x-rot vel   y-rot vel   z-rot vel   x-rot acc   y-rot acc   z-rot acc
    22626  2.51236E-01 1.49077E-01-6.74878E-02 1.62678E-02 6.62765E-03-4.36214E-03 2.21563E-04-2.43721E-04 4.32425E-04



 n o d a l   p r i n t   o u t   f o r   t i m e  s t e p   47005                              ( at time 2.3499648E+01 )

 nodal point  x-disp     y-disp      z-disp      x-vel       y-vel       z-vel      x-accl      y-accl      z-accl      x-coor      y-coor      z-coor
    22626  4.83357E+00 2.10361E-01-2.11229E+01 2.85135E-01-7.19831E-02 4.50335E-01-1.58414E-03 3.23534E-04 2.64812E-02 5.27978E+01-2.18194E+01-1.37844E+01



 n o d a l   p r i n t   o u t   f o r   t i m e  s t e p   47005                              ( at time 2.3499648E+01 )

 nodal point  x-rot      y-rot       z-rot       x-rot vel   y-rot vel   z-rot vel   x-rot acc   y-rot acc   z-rot acc
    22626  2.52863E-01 1.49739E-01-6.79216E-02 1.62664E-02 6.61843E-03-4.31202E-03-1.46417E-05-9.21861E-05 5.01209E-04



 n o d a l   p r i n t   o u t   f o r   t i m e  s t e p   47205                              ( at time 2.3599638E+01 )

 nodal point  x-disp     y-disp      z-disp      x-vel       y-vel       z-vel      x-accl      y-accl      z-accl      x-coor      y-coor      z-coor
    22626  4.86209E+00 2.03155E-01-2.10776E+01 2.85347E-01-7.17251E-02 4.54984E-01 2.12067E-03 2.58057E-03 4.64911E-02 5.28263E+01-2.18266E+01-1.37391E+01



 n o d a l   p r i n t   o u t   f o r   t i m e  s t e p   47205                              ( at time 2.3599638E+01 )

 nodal point  x-rot      y-rot       z-rot       x-rot vel   y-rot vel   z-rot vel   x-rot acc   y-rot acc   z-rot acc
    22626  2.54490E-01 1.50400E-01-6.83510E-02 1.62814E-02 6.60101E-03-4.28125E-03 1.50518E-04-1.74167E-04 3.07780E-04



 n o d a l   p r i n t   o u t   f o r   t i m e  s t e p   47405                              ( at time 2.3699628E+01 )

 nodal point  x-disp     y-disp      z-disp      x-vel       y-vel       z-vel      x-accl      y-accl      z-accl      x-coor      y-coor      z-coor
    22626  4.89065E+00 1.95999E-01-2.10320E+01 2.85714E-01-7.18765E-02 4.56600E-01 3.67615E-03-1.51439E-03 1.61600E-02 5.28548E+01-2.18338E+01-1.36935E+01



 n o d a l   p r i n t   o u t   f o r   t i m e  s t e p   47405                              ( at time 2.3699628E+01 )

 nodal point  x-rot      y-rot       z-rot       x-rot vel   y-rot vel   z-rot vel   x-rot acc   y-rot acc   z-rot acc
    22626  2.56120E-01 1.51060E-01-6.87779E-02 1.63249E-02 6.59586E-03-4.24839E-03 4.34800E-04-5.15022E-05 3.28652E-04



 n o d a l   p r i n t   o u t   f o r   t i m e  s t e p   47605                              ( at time 2.3799618E+01 )

 nodal point  x-disp     y-disp      z-disp      x-vel       y-vel       z-vel      x-accl      y-accl      z-accl      x-coor      y-coor      z-coor
    22626  4.91926E+00 1.88793E-01-2.09863E+01 2.86736E-01-7.22888E-02 4.57406E-01 1.02209E-02-4.12316E-03 8.06361E-03 5.28834E+01-2.18410E+01-1.36478E+01



 n o d a l   p r i n t   o u t   f o r   t i m e  s t e p   47605                              ( at time 2.3799618E+01 )

 nodal point  x-rot      y-rot       z-rot       x-rot vel   y-rot vel   z-rot vel   x-rot acc   y-rot acc   z-rot acc
    22626  2.57753E-01 1.51718E-01-6.92013E-02 1.63384E-02 6.57733E-03-4.22499E-03 1.35057E-04-1.85400E-04 2.34007E-04



 n o d a l   p r i n t   o u t   f o r   t i m e  s t e p   47805                              ( at time 2.3899608E+01 )

 nodal point  x-disp     y-disp      z-disp      x-vel       y-vel       z-vel      x-accl      y-accl      z-accl      x-coor      y-coor      z-coor
    22626  4.94798E+00 1.81517E-01-2.09405E+01 2.87706E-01-7.29686E-02 4.58777E-01 9.69499E-03-6.79935E-03 1.37091E-02 5.29122E+01-2.18483E+01-1.36020E+01



 n o d a l   p r i n t   o u t   f o r   t i m e  s t e p   47805                              ( at time 2.3899608E+01 )

 nodal point  x-rot      y-rot       z-rot       x-rot vel   y-rot vel   z-rot vel   x-rot acc   y-rot acc   z-rot acc
    22626  2.59390E-01 1.52377E-01-6.96225E-02 1.64011E-02 6.59384E-03-4.20493E-03 6.26521E-04 1.65171E-04 2.00546E-04



 n o d a l   p r i n t   o u t   f o r   t i m e  s t e p   48005                              ( at time 2.3999598E+01 )

 nodal point  x-disp     y-disp      z-disp      x-vel       y-vel       z-vel      x-accl      y-accl      z-accl      x-coor      y-coor      z-coor
    22626  4.97680E+00 1.74194E-01-2.08947E+01 2.88990E-01-7.34879E-02 4.56834E-01 1.28450E-02-5.19348E-03-1.94279E-02 5.29410E+01-2.18556E+01-1.35562E+01



 n o d a l   p r i n t   o u t   f o r   t i m e  s t e p   48005                              ( at time 2.3999598E+01 )

 nodal point  x-rot      y-rot       z-rot       x-rot vel   y-rot vel   z-rot vel   x-rot acc   y-rot acc   z-rot acc
    22626  2.61032E-01 1.53036E-01-7.00413E-02 1.64365E-02 6.58693E-03-4.17222E-03 3.54873E-04-6.91537E-05 3.27145E-04



 n o d a l   p r i n t   o u t   f o r   t i m e  s t e p   48205                              ( at time 2.4099588E+01 )

 nodal point  x-disp     y-disp      z-disp      x-vel       y-vel       z-vel      x-accl      y-accl      z-accl      x-coor      y-coor      z-coor
    22626  5.00572E+00 1.66842E-01-2.08490E+01 2.90011E-01-7.37600E-02 4.57492E-01 1.02079E-02-2.72083E-03 6.57440E-03 5.29699E+01-2.18629E+01-1.35105E+01



 n o d a l   p r i n t   o u t   f o r   t i m e  s t e p   48205                              ( at time 2.4099588E+01 )

 nodal point  x-rot      y-rot       z-rot       x-rot vel   y-rot vel   z-rot vel   x-rot acc   y-rot acc   z-rot acc
    22626  2.62678E-01 1.53695E-01-7.04583E-02 1.64813E-02 6.59653E-03-4.16020E-03 4.47709E-04 9.60701E-05 1.20217E-04



 n o d a l   p r i n t   o u t   f o r   t i m e  s t e p   48405                              ( at time 2.4199578E+01 )

 nodal point  x-disp     y-disp      z-disp      x-vel       y-vel       z-vel      x-accl      y-accl      z-accl      x-coor      y-coor      z-coor
    22626  5.03477E+00 1.59456E-01-2.08033E+01 2.91230E-01-7.40119E-02 4.57900E-01 1.21911E-02-2.51895E-03 4.08218E-03 5.29990E+01-2.18703E+01-1.34648E+01



 n o d a l   p r i n t   o u t   f o r   t i m e  s t e p   48405                              ( at time 2.4199578E+01 )

 nodal point  x-rot      y-rot       z-rot       x-rot vel   y-rot vel   z-rot vel   x-rot acc   y-rot acc   z-rot acc
    22626  2.64328E-01 1.54355E-01-7.08733E-02 1.65249E-02 6.61434E-03-4.14113E-03 4.35982E-04 1.78112E-04 1.90742E-04



 n o d a l   p r i n t   o u t   f o r   t i m e  s t e p   48605                              ( at time 2.4299568E+01 )

 nodal point  x-disp     y-disp      z-disp      x-vel       y-vel       z-vel      x-accl      y-accl      z-accl      x-coor      y-coor      z-coor
    22626  5.06397E+00 1.52072E-01-2.07574E+01 2.92216E-01-7.34064E-02 4.58313E-01 9.86547E-03 6.05527E-03 4.13754E-03 5.30282E+01-2.18777E+01-1.34189E+01



 n o d a l   p r i n t   o u t   f o r   t i m e  s t e p   48605                              ( at time 2.4299568E+01 )

 nodal point  x-rot      y-rot       z-rot       x-rot vel   y-rot vel   z-rot vel   x-rot acc   y-rot acc   z-rot acc
    22626  2.65982E-01 1.55017E-01-7.12860E-02 1.65626E-02 6.62338E-03-4.12808E-03 3.76773E-04 9.03559E-05 1.30504E-04



 n o d a l   p r i n t   o u t   f o r   t i m e  s t e p   48805                              ( at time 2.4399558E+01 )

 nodal point  x-disp     y-disp      z-disp      x-vel       y-vel       z-vel      x-accl      y-accl      z-accl      x-coor      y-coor      z-coor
    22626  5.09328E+00 1.44706E-01-2.07116E+01 2.94093E-01-7.36284E-02 4.58087E-01 1.87691E-02-2.22010E-03-2.26608E-03 5.30575E+01-2.18851E+01-1.33731E+01



 n o d a l   p r i n t   o u t   f o r   t i m e  s t e p   48805                              ( at time 2.4399558E+01 )

 nodal point  x-rot      y-rot       z-rot       x-rot vel   y-rot vel   z-rot vel   x-rot acc   y-rot acc   z-rot acc
    22626  2.67641E-01 1.55680E-01-7.16971E-02 1.66244E-02 6.63382E-03-4.10066E-03 6.18250E-04 1.04429E-04 2.74225E-04



 n o d a l   p r i n t   o u t   f o r   t i m e  s t e p   49006                              ( at time 2.4500048E+01 )

 nodal point  x-disp     y-disp      z-disp      x-vel       y-vel       z-vel      x-accl      y-accl      z-accl      x-coor      y-coor      z-coor
    22626  5.12296E+00 1.37316E-01-2.06655E+01 2.96476E-01-7.37102E-02 4.60077E-01 2.37141E-02-8.14021E-04 1.98022E-02 5.30871E+01-2.18925E+01-1.33270E+01



 n o d a l   p r i n t   o u t   f o r   t i m e  s t e p   49006                              ( at time 2.4500048E+01 )

 nodal point  x-rot      y-rot       z-rot       x-rot vel   y-rot vel   z-rot vel   x-rot acc   y-rot acc   z-rot acc
    22626  2.69314E-01 1.56349E-01-7.21087E-02 1.66831E-02 6.66859E-03-4.08774E-03 5.83787E-04 3.46046E-04 1.28607E-04



 n o d a l   p r i n t   o u t   f o r   t i m e  s t e p   49206                              ( at time 2.4600038E+01 )

 nodal point  x-disp     y-disp      z-disp      x-vel       y-vel       z-vel      x-accl      y-accl      z-accl      x-coor      y-coor      z-coor
    22626  5.15266E+00 1.29952E-01-2.06195E+01 2.97671E-01-7.36937E-02 4.60132E-01 1.19551E-02 1.65120E-04 5.47817E-04 5.31168E+01-2.18998E+01-1.32810E+01



 n o d a l   p r i n t   o u t   f o r   t i m e  s t e p   49206                              ( at time 2.4600038E+01 )

 nodal point  x-rot      y-rot       z-rot       x-rot vel   y-rot vel   z-rot vel   x-rot acc   y-rot acc   z-rot acc
    22626  2.70987E-01 1.57016E-01-7.25173E-02 1.67627E-02 6.68681E-03-4.07473E-03 7.96186E-04 1.82155E-04 1.30052E-04



 n o d a l   p r i n t   o u t   f o r   t i m e  s t e p   49406                              ( at time 2.4700028E+01 )

 nodal point  x-disp     y-disp      z-disp      x-vel       y-vel       z-vel      x-accl      y-accl      z-accl      x-coor      y-coor      z-coor
    22626  5.18254E+00 1.22571E-01-2.05734E+01 2.99966E-01-7.40145E-02 4.61047E-01 2.29509E-02-3.20872E-03 9.15450E-03 5.31467E+01-2.19072E+01-1.32349E+01



 n o d a l   p r i n t   o u t   f o r   t i m e  s t e p   49406                              ( at time 2.4700028E+01 )

 nodal point  x-rot      y-rot       z-rot       x-rot vel   y-rot vel   z-rot vel   x-rot acc   y-rot acc   z-rot acc
    22626  2.72667E-01 1.57686E-01-7.29245E-02 1.68409E-02 6.72355E-03-4.07139E-03 7.82845E-04 3.67433E-04 3.34009E-05



 n o d a l   p r i n t   o u t   f o r   t i m e  s t e p   49606                              ( at time 2.4800018E+01 )

 nodal point  x-disp     y-disp      z-disp      x-vel       y-vel       z-vel      x-accl      y-accl      z-accl      x-coor      y-coor      z-coor
    22626  5.21261E+00 1.15157E-01-2.05273E+01 3.01476E-01-7.41467E-02 4.62561E-01 1.50980E-02-1.32230E-03 1.51383E-02 5.31768E+01-2.19146E+01-1.31888E+01



 n o d a l   p r i n t   o u t   f o r   t i m e  s t e p   49606                              ( at time 2.4800018E+01 )

 nodal point  x-rot      y-rot       z-rot       x-rot vel   y-rot vel   z-rot vel   x-rot acc   y-rot acc   z-rot acc
    22626  2.74356E-01 1.58360E-01-7.33314E-02 1.69382E-02 6.74755E-03-4.06693E-03 9.72408E-04 2.40108E-04 4.46750E-05



 n o d a l   p r i n t   o u t   f o r   t i m e  s t e p   49806                              ( at time 2.4900008E+01 )

 nodal point  x-disp     y-disp      z-disp      x-vel       y-vel       z-vel      x-accl      y-accl      z-accl      x-coor      y-coor      z-coor
    22626  5.24287E+00 1.07721E-01-2.04810E+01 3.03727E-01-7.47937E-02 4.63919E-01 2.25167E-02-6.47013E-03 1.35860E-02 5.32070E+01-2.19221E+01-1.31425E+01



 n o d a l   p r i n t   o u t   f o r   t i m e  s t e p   49806                              ( at time 2.4900008E+01 )

 nodal point  x-rot      y-rot       z-rot       x-rot vel   y-rot vel   z-rot vel   x-rot acc   y-rot acc   z-rot acc
    22626  2.76053E-01 1.59036E-01-7.37382E-02 1.70131E-02 6.78681E-03-4.07034E-03 7.49667E-04 3.92591E-04-3.41228E-05



 n o d a l   p r i n t   o u t   f o r   t i m e  s t e p   50006                              ( at time 2.4999998E+01 )

 nodal point  x-disp     y-disp      z-disp      x-vel       y-vel       z-vel      x-accl      y-accl      z-accl      x-coor      y-coor      z-coor
    22626  5.27331E+00 1.00220E-01-2.04345E+01 3.05523E-01-7.52294E-02 4.64322E-01 1.79569E-02-4.35742E-03 4.02994E-03 5.32375E+01-2.19296E+01-1.30960E+01



 n o d a l   p r i n t   o u t   f o r   t i m e  s t e p   50006                              ( at time 2.4999998E+01 )

 nodal point  x-rot      y-rot       z-rot       x-rot vel   y-rot vel   z-rot vel   x-rot acc   y-rot acc   z-rot acc
    22626  2.77759E-01 1.59716E-01-7.41455E-02 1.71021E-02 6.80691E-03-4.06967E-03 8.89979E-04 2.00998E-04 6.72011E-06
