 LSTC 50th% Full_FE H-III Dummy (Beta Version, February 17, 2019)        
                    ls-dyna smp s R16 R16.0_619_d222963 date 03/18/2025

{BEGIN LEGEND}
 Entity #        Title
    22626                                                                                     
{END LEGEND}




 n o d a l   p r i n t   o u t   f o r   t i m e  s t e p       1                              ( at time 0.0000000E+00 )

 nodal point  x-disp     y-disp      z-disp      x-vel       y-vel       z-vel      x-accl      y-accl      z-accl      x-coor      y-coor      z-coor
    22626  0.00000E+00 0.00000E+00 0.00000E+00 0.00000E+00 0.00000E+00 0.00000E+00 0.00000E+00 0.00000E+00 0.00000E+00 4.65938E+00-2.81908E+01-4.49817E+01



 n o d a l   p r i n t   o u t   f o r   t i m e  s t e p       1                              ( at time 0.0000000E+00 )

 nodal point  x-rot      y-rot       z-rot       x-rot vel   y-rot vel   z-rot vel   x-rot acc   y-rot acc   z-rot acc
    22626  0.00000E+00 0.00000E+00 0.00000E+00 0.00000E+00 0.00000E+00 0.00000E+00 0.00000E+00 0.00000E+00 0.00000E+00



 n o d a l   p r i n t   o u t   f o r   t i m e  s t e p     201                              ( at time 9.9989993E-02 )

 nodal point  x-disp     y-disp      z-disp      x-vel       y-vel       z-vel      x-accl      y-accl      z-accl      x-coor      y-coor      z-coor
    22626  2.73575E-07 1.73669E-06-5.34278E-05 4.19752E-05 2.55596E-04-1.46819E-03 4.19794E-04 2.55621E-03-1.46834E-02 4.65938E+00-2.81908E+01-4.49818E+01



 n o d a l   p r i n t   o u t   f o r   t i m e  s t e p     201                              ( at time 9.9989993E-02 )

 nodal point  x-rot      y-rot       z-rot       x-rot vel   y-rot vel   z-rot vel   x-rot acc   y-rot acc   z-rot acc
    22626 -5.98980E-08-8.38467E-09-5.45921E-09-5.86955E-06-9.69950E-07-9.27111E-07-5.87014E-05-9.70047E-06-9.27203E-06



 n o d a l   p r i n t   o u t   f o r   t i m e  s t e p     401                              ( at time 1.9997999E-01 )

 nodal point  x-disp     y-disp      z-disp      x-vel       y-vel       z-vel      x-accl      y-accl      z-accl      x-coor      y-coor      z-coor
    22626  1.73193E-05 3.61743E-04-6.67583E-04 3.11013E-05 7.81108E-03-1.21538E-02-1.08749E-04 7.55624E-02-1.06867E-01 4.65939E+00-2.81905E+01-4.49824E+01



 n o d a l   p r i n t   o u t   f o r   t i m e  s t e p     401                              ( at time 1.9997999E-01 )

 nodal point  x-rot      y-rot       z-rot       x-rot vel   y-rot vel   z-rot vel   x-rot acc   y-rot acc   z-rot acc
    22626 -2.81966E-06-3.37270E-07-3.34733E-07-3.94152E-05-1.76800E-06-2.29358E-06-3.35490E-04-7.98130E-06-1.36661E-05



 n o d a l   p r i n t   o u t   f o r   t i m e  s t e p     601                              ( at time 2.9996998E-01 )

 nodal point  x-disp     y-disp      z-disp      x-vel       y-vel       z-vel      x-accl      y-accl      z-accl      x-coor      y-coor      z-coor
    22626  2.73785E-05 1.24008E-03-2.33844E-03 4.21312E-04 8.44862E-03-1.92519E-02 3.90250E-03 6.37602E-03-7.09885E-02 4.65940E+00-2.81896E+01-4.49841E+01



 n o d a l   p r i n t   o u t   f o r   t i m e  s t e p     601                              ( at time 2.9996998E-01 )

 nodal point  x-rot      y-rot       z-rot       x-rot vel   y-rot vel   z-rot vel   x-rot acc   y-rot acc   z-rot acc
    22626 -5.38402E-06-3.90791E-07-6.42456E-07-1.53738E-05-5.48730E-06-6.67009E-06 2.40437E-04-3.71967E-05-4.37695E-05



 n o d a l   p r i n t   o u t   f o r   t i m e  s t e p     801                              ( at time 3.9995997E-01 )

 nodal point  x-disp     y-disp      z-disp      x-vel       y-vel       z-vel      x-accl      y-accl      z-accl      x-coor      y-coor      z-coor
    22626  2.60335E-05 2.16245E-03-4.28288E-03-3.15076E-04 1.07375E-02-2.10883E-02-7.36462E-03 2.28914E-02-1.83658E-02 4.65940E+00-2.81887E+01-4.49860E+01



 n o d a l   p r i n t   o u t   f o r   t i m e  s t e p     801                              ( at time 3.9995997E-01 )

 nodal point  x-rot      y-rot       z-rot       x-rot vel   y-rot vel   z-rot vel   x-rot acc   y-rot acc   z-rot acc
    22626 -7.61686E-06-1.25021E-06-9.81266E-07-4.50709E-05-6.17307E-06-1.48362E-06-2.97000E-04-6.85834E-06 5.18699E-05



 n o d a l   p r i n t   o u t   f o r   t i m e  s t e p    1001                              ( at time 4.9994997E-01 )

 nodal point  x-disp     y-disp      z-disp      x-vel       y-vel       z-vel      x-accl      y-accl      z-accl      x-coor      y-coor      z-coor
    22626  3.69429E-06 3.43651E-03-6.74480E-03-2.42436E-04 1.41534E-02-2.87065E-02 7.26475E-04 3.41618E-02-7.61893E-02 4.65938E+00-2.81874E+01-4.49885E+01



 n o d a l   p r i n t   o u t   f o r   t i m e  s t e p    1001                              ( at time 4.9994997E-01 )

 nodal point  x-rot      y-rot       z-rot       x-rot vel   y-rot vel   z-rot vel   x-rot acc   y-rot acc   z-rot acc
    22626 -1.35612E-05-1.16586E-06-9.49886E-07-8.41963E-05 3.24474E-06 4.10666E-06-3.91293E-04 9.41875E-05 5.59084E-05



 n o d a l   p r i n t   o u t   f o r   t i m e  s t e p    1201                              ( at time 5.9993996E-01 )

 nodal point  x-disp     y-disp      z-disp      x-vel       y-vel       z-vel      x-accl      y-accl      z-accl      x-coor      y-coor      z-coor
    22626 -8.89063E-07 5.01223E-03-9.71616E-03 4.70510E-05 1.67049E-02-3.09906E-02 2.89516E-03 2.55184E-02-2.28432E-02 4.65937E+00-2.81858E+01-4.49914E+01



 n o d a l   p r i n t   o u t   f o r   t i m e  s t e p    1201                              ( at time 5.9993996E-01 )

 nodal point  x-rot      y-rot       z-rot       x-rot vel   y-rot vel   z-rot vel   x-rot acc   y-rot acc   z-rot acc
    22626 -2.02872E-05-8.87217E-07-9.58055E-07-5.89171E-05 3.83957E-06-2.02373E-06 2.52817E-04 5.94891E-06-6.13101E-05



 n o d a l   p r i n t   o u t   f o r   t i m e  s t e p    1401                              ( at time 6.9992995E-01 )

 nodal point  x-disp     y-disp      z-disp      x-vel       y-vel       z-vel      x-accl      y-accl      z-accl      x-coor      y-coor      z-coor
    22626 -5.09829E-05 6.85038E-03-1.31710E-02-4.90350E-04 1.96591E-02-3.89684E-02-5.37455E-03 2.95447E-02-7.97866E-02 4.65932E+00-2.81840E+01-4.49949E+01



 n o d a l   p r i n t   o u t   f o r   t i m e  s t e p    1401                              ( at time 6.9992995E-01 )

 nodal point  x-rot      y-rot       z-rot       x-rot vel   y-rot vel   z-rot vel   x-rot acc   y-rot acc   z-rot acc
    22626 -2.62098E-05-9.01139E-07-6.32909E-07-7.09330E-05 3.34405E-07 3.81237E-06-1.20171E-04-3.50552E-05 5.83668E-05



 n o d a l   p r i n t   o u t   f o r   t i m e  s t e p    1601                              ( at time 7.9991994E-01 )

 nodal point  x-disp     y-disp      z-disp      x-vel       y-vel       z-vel      x-accl      y-accl      z-accl      x-coor      y-coor      z-coor
    22626 -8.02769E-05 8.98674E-03-1.74643E-02-4.95892E-04 2.21650E-02-4.51154E-02-5.54256E-05 2.50617E-02-6.14757E-02 4.65929E+00-2.81818E+01-4.49992E+01



 n o d a l   p r i n t   o u t   f o r   t i m e  s t e p    1601                              ( at time 7.9991994E-01 )

 nodal point  x-rot      y-rot       z-rot       x-rot vel   y-rot vel   z-rot vel   x-rot acc   y-rot acc   z-rot acc
    22626 -3.43992E-05-8.78961E-07-5.14870E-07-9.18045E-05-4.87252E-06 1.53956E-06-2.08736E-04-5.20744E-05-2.27303E-05



 n o d a l   p r i n t   o u t   f o r   t i m e  s t e p    1801                              ( at time 8.9990994E-01 )

 nodal point  x-disp     y-disp      z-disp      x-vel       y-vel       z-vel      x-accl      y-accl      z-accl      x-coor      y-coor      z-coor
    22626 -1.16857E-04 1.12542E-02-2.19906E-02-2.87457E-04 2.40407E-02-4.55854E-02 2.08456E-03 1.87583E-02-4.70045E-03 4.65926E+00-2.81796E+01-4.50037E+01



 n o d a l   p r i n t   o u t   f o r   t i m e  s t e p    1801                              ( at time 8.9990994E-01 )

 nodal point  x-rot      y-rot       z-rot       x-rot vel   y-rot vel   z-rot vel   x-rot acc   y-rot acc   z-rot acc
    22626 -4.28182E-05-9.58299E-07-5.02718E-07-8.25363E-05 1.95454E-06-7.16594E-07 9.26917E-05 6.82774E-05-2.25638E-05



 n o d a l   p r i n t   o u t   f o r   t i m e  s t e p    2001                              ( at time 9.9989993E-01 )

 nodal point  x-disp     y-disp      z-disp      x-vel       y-vel       z-vel      x-accl      y-accl      z-accl      x-coor      y-coor      z-coor
    22626 -1.52036E-04 1.37912E-02-2.67304E-02-3.85875E-05 2.65001E-02-5.00351E-02 2.48894E-03 2.45961E-02-4.45018E-02 4.65922E+00-2.81770E+01-4.50084E+01



 n o d a l   p r i n t   o u t   f o r   t i m e  s t e p    2001                              ( at time 9.9989993E-01 )

 nodal point  x-rot      y-rot       z-rot       x-rot vel   y-rot vel   z-rot vel   x-rot acc   y-rot acc   z-rot acc
    22626 -5.18510E-05-9.08609E-07-4.38337E-07-1.06280E-04 1.26504E-06-2.95345E-06-2.37461E-04-6.89570E-06-2.23708E-05



 n o d a l   p r i n t   o u t   f o r   t i m e  s t e p    2201                              ( at time 1.0998899E+00 )

 nodal point  x-disp     y-disp      z-disp      x-vel       y-vel       z-vel      x-accl      y-accl      z-accl      x-coor      y-coor      z-coor
    22626 -1.59799E-04 1.65321E-02-3.20559E-02-3.41755E-04 2.88846E-02-5.60779E-02-3.03198E-03 2.38481E-02-6.04340E-02 4.65921E+00-2.81743E+01-4.50138E+01



 n o d a l   p r i n t   o u t   f o r   t i m e  s t e p    2201                              ( at time 1.0998899E+00 )

 nodal point  x-rot      y-rot       z-rot       x-rot vel   y-rot vel   z-rot vel   x-rot acc   y-rot acc   z-rot acc
    22626 -6.29455E-05-1.00493E-06-7.49822E-07-1.03712E-04-7.55487E-06-1.98956E-06 2.56829E-05-8.82080E-05 9.63986E-06



 n o d a l   p r i n t   o u t   f o r   t i m e  s t e p    2401                              ( at time 1.1998799E+00 )

 nodal point  x-disp     y-disp      z-disp      x-vel       y-vel       z-vel      x-accl      y-accl      z-accl      x-coor      y-coor      z-coor
    22626 -1.89767E-04 1.94752E-02-3.79327E-02-1.97987E-04 3.02227E-02-6.12095E-02 1.43783E-03 1.33823E-02-5.13206E-02 4.65919E+00-2.81714E+01-4.50197E+01



 n o d a l   p r i n t   o u t   f o r   t i m e  s t e p    2401                              ( at time 1.1998799E+00 )

 nodal point  x-rot      y-rot       z-rot       x-rot vel   y-rot vel   z-rot vel   x-rot acc   y-rot acc   z-rot acc
    22626 -7.29520E-05-1.61463E-06-9.90799E-07-1.01328E-04-7.20214E-06-2.93346E-06 2.38375E-05 3.52765E-06-9.43992E-06



 n o d a l   p r i n t   o u t   f o r   t i m e  s t e p    2601                              ( at time 1.2998699E+00 )

 nodal point  x-disp     y-disp      z-disp      x-vel       y-vel       z-vel      x-accl      y-accl      z-accl      x-coor      y-coor      z-coor
    22626 -2.23845E-04 2.26249E-02-4.42079E-02-2.47206E-04 3.25974E-02-6.40512E-02-4.92241E-04 2.37488E-02-2.84200E-02 4.65915E+00-2.81682E+01-4.50259E+01



 n o d a l   p r i n t   o u t   f o r   t i m e  s t e p    2601                              ( at time 1.2998699E+00 )

 nodal point  x-rot      y-rot       z-rot       x-rot vel   y-rot vel   z-rot vel   x-rot acc   y-rot acc   z-rot acc
    22626 -8.39954E-05-2.17219E-06-1.24647E-06-1.29424E-04 1.94326E-08-1.47439E-06-2.80984E-04 7.22230E-05 1.45922E-05



 n o d a l   p r i n t   o u t   f o r   t i m e  s t e p    2801                              ( at time 1.3998599E+00 )

 nodal point  x-disp     y-disp      z-disp      x-vel       y-vel       z-vel      x-accl      y-accl      z-accl      x-coor      y-coor      z-coor
    22626 -2.51411E-04 2.59923E-02-5.07122E-02-4.48766E-04 3.45181E-02-6.66719E-02-2.01580E-03 1.92095E-02-2.62100E-02 4.65912E+00-2.81648E+01-4.50324E+01



 n o d a l   p r i n t   o u t   f o r   t i m e  s t e p    2801                              ( at time 1.3998599E+00 )

 nodal point  x-rot      y-rot       z-rot       x-rot vel   y-rot vel   z-rot vel   x-rot acc   y-rot acc   z-rot acc
    22626 -9.73984E-05-2.01229E-06-1.34544E-06-1.36833E-04-1.88308E-07 1.73833E-06-7.40972E-05-2.07762E-06 3.21303E-05



 n o d a l   p r i n t   o u t   f o r   t i m e  s t e p    3001                              ( at time 1.4998499E+00 )

 nodal point  x-disp     y-disp      z-disp      x-vel       y-vel       z-vel      x-accl      y-accl      z-accl      x-coor      y-coor      z-coor
    22626 -2.96333E-04 2.95912E-02-5.77244E-02-4.49113E-04 3.72809E-02-7.39885E-02-3.47185E-06 2.76306E-02-7.31731E-02 4.65908E+00-2.81612E+01-4.50394E+01



 n o d a l   p r i n t   o u t   f o r   t i m e  s t e p    3001                              ( at time 1.4998499E+00 )

 nodal point  x-rot      y-rot       z-rot       x-rot vel   y-rot vel   z-rot vel   x-rot acc   y-rot acc   z-rot acc
    22626 -1.10706E-04-2.03133E-06-1.27095E-06-1.28706E-04-1.02909E-06-1.72295E-06 8.12737E-05-8.40864E-06-3.46162E-05



 n o d a l   p r i n t   o u t   f o r   t i m e  s t e p    3201                              ( at time 1.5998399E+00 )

 nodal point  x-disp     y-disp      z-disp      x-vel       y-vel       z-vel      x-accl      y-accl      z-accl      x-coor      y-coor      z-coor
    22626 -3.60041E-04 3.34892E-02-6.54466E-02-5.83141E-04 4.05431E-02-7.97027E-02-1.34041E-03 3.26252E-02-5.71481E-02 4.65902E+00-2.81573E+01-4.50472E+01



 n o d a l   p r i n t   o u t   f o r   t i m e  s t e p    3201                              ( at time 1.5998399E+00 )

 nodal point  x-rot      y-rot       z-rot       x-rot vel   y-rot vel   z-rot vel   x-rot acc   y-rot acc   z-rot acc
    22626 -1.23311E-04-2.14912E-06-1.09813E-06-1.34707E-04-2.95194E-06 3.13741E-06-6.00108E-05-1.92304E-05 4.86085E-05



 n o d a l   p r i n t   o u t   f o r   t i m e  s t e p    3401                              ( at time 1.6998299E+00 )

 nodal point  x-disp     y-disp      z-disp      x-vel       y-vel       z-vel      x-accl      y-accl      z-accl      x-coor      y-coor      z-coor
    22626 -4.21666E-04 3.76417E-02-7.35824E-02-7.25483E-04 4.22418E-02-8.25964E-02-1.42357E-03 1.69886E-02-2.89392E-02 4.65895E+00-2.81532E+01-4.50553E+01



 n o d a l   p r i n t   o u t   f o r   t i m e  s t e p    3401                              ( at time 1.6998299E+00 )

 nodal point  x-rot      y-rot       z-rot       x-rot vel   y-rot vel   z-rot vel   x-rot acc   y-rot acc   z-rot acc
    22626 -1.37608E-04-2.15260E-06-9.09451E-07-1.47593E-04 1.59894E-06 3.82784E-06-1.28875E-04 4.55134E-05 6.90495E-06



 n o d a l   p r i n t   o u t   f o r   t i m e  s t e p    3601                              ( at time 1.7998199E+00 )

 nodal point  x-disp     y-disp      z-disp      x-vel       y-vel       z-vel      x-accl      y-accl      z-accl      x-coor      y-coor      z-coor
    22626 -4.84886E-04 4.19002E-02-8.19600E-02-5.10797E-04 4.32773E-02-8.48732E-02 2.14708E-03 1.03558E-02-2.27704E-02 4.65889E+00-2.81489E+01-4.50637E+01



 n o d a l   p r i n t   o u t   f o r   t i m e  s t e p    3601                              ( at time 1.7998199E+00 )

 nodal point  x-rot      y-rot       z-rot       x-rot vel   y-rot vel   z-rot vel   x-rot acc   y-rot acc   z-rot acc
    22626 -1.52820E-04-2.06412E-06-7.77154E-07-1.49796E-04 1.60574E-06-1.40745E-06-2.20260E-05 6.79609E-08-5.23581E-05



 n o d a l   p r i n t   o u t   f o r   t i m e  s t e p    3801                              ( at time 1.8998099E+00 )

 nodal point  x-disp     y-disp      z-disp      x-vel       y-vel       z-vel      x-accl      y-accl      z-accl      x-coor      y-coor      z-coor
    22626 -5.44090E-04 4.63776E-02-9.06359E-02-5.28171E-04 4.60787E-02-8.88764E-02-1.73766E-04 2.80168E-02-4.00360E-02 4.65883E+00-2.81445E+01-4.50724E+01



 n o d a l   p r i n t   o u t   f o r   t i m e  s t e p    3801                              ( at time 1.8998099E+00 )

 nodal point  x-rot      y-rot       z-rot       x-rot vel   y-rot vel   z-rot vel   x-rot acc   y-rot acc   z-rot acc
    22626 -1.67674E-04-1.85376E-06-6.47942E-07-1.49771E-04-1.49824E-06-4.58253E-07 2.46243E-07-3.10429E-05 9.49288E-06



 n o d a l   p r i n t   o u t   f o r   t i m e  s t e p    4001                              ( at time 1.9997999E+00 )

 nodal point  x-disp     y-disp      z-disp      x-vel       y-vel       z-vel      x-accl      y-accl      z-accl      x-coor      y-coor      z-coor
    22626 -5.95007E-04 5.10272E-02-9.97455E-02-5.46549E-04 4.71698E-02-9.31142E-02-1.83789E-04 1.09125E-02-4.23820E-02 4.65878E+00-2.81398E+01-4.50815E+01



 n o d a l   p r i n t   o u t   f o r   t i m e  s t e p    4001                              ( at time 1.9997999E+00 )

 nodal point  x-rot      y-rot       z-rot       x-rot vel   y-rot vel   z-rot vel   x-rot acc   y-rot acc   z-rot acc
    22626 -1.82765E-04-2.08697E-06-6.97406E-07-1.56157E-04-4.58298E-06-1.64378E-07-6.38711E-05-3.08505E-05 2.93905E-06



 n o d a l   p r i n t   o u t   f o r   t i m e  s t e p    4201                              ( at time 2.0997899E+00 )

 nodal point  x-disp     y-disp      z-disp      x-vel       y-vel       z-vel      x-accl      y-accl      z-accl      x-coor      y-coor      z-coor
    22626 -6.49168E-04 5.57836E-02-1.09162E-01-5.56357E-04 4.81925E-02-9.52960E-02-9.80955E-05 1.02280E-02-2.18211E-02 4.65873E+00-2.81350E+01-4.50909E+01



 n o d a l   p r i n t   o u t   f o r   t i m e  s t e p    4201                              ( at time 2.0997899E+00 )

 nodal point  x-rot      y-rot       z-rot       x-rot vel   y-rot vel   z-rot vel   x-rot acc   y-rot acc   z-rot acc
    22626 -1.97944E-04-2.47856E-06-8.60260E-07-1.49919E-04-1.55715E-06 1.99363E-06 6.23941E-05 3.02613E-05 2.15823E-05



 n o d a l   p r i n t   o u t   f o r   t i m e  s t e p    4401                              ( at time 2.1997798E+00 )

 nodal point  x-disp     y-disp      z-disp      x-vel       y-vel       z-vel      x-accl      y-accl      z-accl      x-coor      y-coor      z-coor
    22626 -7.07844E-04 6.06673E-02-1.18761E-01-4.97166E-04 4.91630E-02-9.67342E-02 5.91973E-04 9.70555E-03-1.43833E-02 4.65867E+00-2.81302E+01-4.51005E+01



 n o d a l   p r i n t   o u t   f o r   t i m e  s t e p    4401                              ( at time 2.1997798E+00 )

 nodal point  x-rot      y-rot       z-rot       x-rot vel   y-rot vel   z-rot vel   x-rot acc   y-rot acc   z-rot acc
    22626 -2.13318E-04-2.58518E-06-8.58615E-07-1.59213E-04-1.64944E-06-1.04301E-06-9.29519E-05-9.23053E-07-3.03695E-05



 n o d a l   p r i n t   o u t   f o r   t i m e  s t e p    4601                              ( at time 2.2997698E+00 )

 nodal point  x-disp     y-disp      z-disp      x-vel       y-vel       z-vel      x-accl      y-accl      z-accl      x-coor      y-coor      z-coor
    22626 -7.62984E-04 6.56143E-02-1.28510E-01-6.47549E-04 5.01847E-02-9.87431E-02-1.50398E-03 1.02181E-02-2.00905E-02 4.65861E+00-2.81252E+01-4.51102E+01



 n o d a l   p r i n t   o u t   f o r   t i m e  s t e p    4601                              ( at time 2.2997698E+00 )

 nodal point  x-rot      y-rot       z-rot       x-rot vel   y-rot vel   z-rot vel   x-rot acc   y-rot acc   z-rot acc
    22626 -2.29836E-04-2.51747E-06-8.66609E-07-1.61371E-04 9.10981E-07-9.77199E-07-2.15784E-05 2.56068E-05 6.58157E-07



 n o d a l   p r i n t   o u t   f o r   t i m e  s t e p    4801                              ( at time 2.3997598E+00 )

 nodal point  x-disp     y-disp      z-disp      x-vel       y-vel       z-vel      x-accl      y-accl      z-accl      x-coor      y-coor      z-coor
    22626 -8.37503E-04 7.07391E-02-1.38609E-01-7.64673E-04 5.20348E-02-1.03261E-01-1.17137E-03 1.85032E-02-4.51863E-02 4.65854E+00-2.81201E+01-4.51203E+01



 n o d a l   p r i n t   o u t   f o r   t i m e  s t e p    4801                              ( at time 2.3997598E+00 )

 nodal point  x-rot      y-rot       z-rot       x-rot vel   y-rot vel   z-rot vel   x-rot acc   y-rot acc   z-rot acc
    22626 -2.45587E-04-2.50964E-06-5.93509E-07-1.55215E-04 1.48760E-08 4.24056E-06 6.15615E-05-8.96196E-06 5.21828E-05



 n o d a l   p r i n t   o u t   f o r   t i m e  s t e p    5001                              ( at time 2.4997498E+00 )

 nodal point  x-disp     y-disp      z-disp      x-vel       y-vel       z-vel      x-accl      y-accl      z-accl      x-coor      y-coor      z-coor
    22626 -9.18744E-04 7.60401E-02-1.49107E-01-9.27909E-04 5.34283E-02-1.05956E-01-1.63252E-03 1.39366E-02-2.69525E-02 4.65846E+00-2.81148E+01-4.51308E+01



 n o d a l   p r i n t   o u t   f o r   t i m e  s t e p    5001                              ( at time 2.4997498E+00 )

 nodal point  x-rot      y-rot       z-rot       x-rot vel   y-rot vel   z-rot vel   x-rot acc   y-rot acc   z-rot acc
    22626 -2.61159E-04-2.38744E-06-3.31676E-07-1.54796E-04 1.72761E-06 4.36913E-06 4.18991E-06 1.71291E-05 1.28583E-06



 n o d a l   p r i n t   o u t   f o r   t i m e  s t e p    5201                              ( at time 2.5997398E+00 )

 nodal point  x-disp     y-disp      z-disp      x-vel       y-vel       z-vel      x-accl      y-accl      z-accl      x-coor      y-coor      z-coor
    22626 -1.00945E-03 8.13921E-02-1.59711E-01-9.89237E-04 5.34909E-02-1.06026E-01-6.13342E-04 6.25800E-04-7.01171E-04 4.65837E+00-2.81094E+01-4.51414E+01



 n o d a l   p r i n t   o u t   f o r   t i m e  s t e p    5201                              ( at time 2.5997398E+00 )

 nodal point  x-rot      y-rot       z-rot       x-rot vel   y-rot vel   z-rot vel   x-rot acc   y-rot acc   z-rot acc
    22626 -2.76669E-04-2.05997E-06 5.99030E-08-1.51725E-04 5.17233E-06 4.95996E-06 3.07149E-05 3.44506E-05 5.90890E-06



 n o d a l   p r i n t   o u t   f o r   t i m e  s t e p    5401                              ( at time 2.6997298E+00 )

 nodal point  x-disp     y-disp      z-disp      x-vel       y-vel       z-vel      x-accl      y-accl      z-accl      x-coor      y-coor      z-coor
    22626 -1.10765E-03 8.67281E-02-1.70315E-01-8.15457E-04 5.35663E-02-1.06229E-01 1.73798E-03 7.54036E-04-2.02370E-03 4.65827E+00-2.81041E+01-4.51520E+01



 n o d a l   p r i n t   o u t   f o r   t i m e  s t e p    5401                              ( at time 2.6997298E+00 )

 nodal point  x-rot      y-rot       z-rot       x-rot vel   y-rot vel   z-rot vel   x-rot acc   y-rot acc   z-rot acc
    22626 -2.92382E-04-1.62191E-06 5.85354E-07-1.62973E-04 5.45652E-06 3.59983E-06-1.12489E-04 2.84222E-06-1.36026E-05



 n o d a l   p r i n t   o u t   f o r   t i m e  s t e p    5601                              ( at time 2.7997198E+00 )

 nodal point  x-disp     y-disp      z-disp      x-vel       y-vel       z-vel      x-accl      y-accl      z-accl      x-coor      y-coor      z-coor
    22626 -1.19475E-03 9.21213E-02-1.80983E-01-8.86810E-04 5.42808E-02-1.07485E-01-7.13610E-04 7.14620E-03-1.25653E-02 4.65818E+00-2.80987E+01-4.51627E+01



 n o d a l   p r i n t   o u t   f o r   t i m e  s t e p    5601                              ( at time 2.7997198E+00 )

 nodal point  x-rot      y-rot       z-rot       x-rot vel   y-rot vel   z-rot vel   x-rot acc   y-rot acc   z-rot acc
    22626 -3.07870E-04-1.10911E-06 1.00237E-06-1.44665E-04 3.06979E-06 4.44719E-06 1.83093E-04-2.38697E-05 8.47443E-06



 n o d a l   p r i n t   o u t   f o r   t i m e  s t e p    5801                              ( at time 2.8997098E+00 )

 nodal point  x-disp     y-disp      z-disp      x-vel       y-vel       z-vel      x-accl      y-accl      z-accl      x-coor      y-coor      z-coor
    22626 -1.27586E-03 9.75421E-02-1.91833E-01-7.40705E-04 5.41935E-02-1.09474E-01 1.46120E-03-8.73036E-04-1.98948E-02 4.65810E+00-2.80933E+01-4.51736E+01



 n o d a l   p r i n t   o u t   f o r   t i m e  s t e p    5801                              ( at time 2.8997098E+00 )

 nodal point  x-rot      y-rot       z-rot       x-rot vel   y-rot vel   z-rot vel   x-rot acc   y-rot acc   z-rot acc
    22626 -3.21821E-04-9.14363E-07 1.30111E-06-1.40039E-04 6.45348E-07 3.61123E-06 4.62642E-05-2.42469E-05-8.36039E-06



 n o d a l   p r i n t   o u t   f o r   t i m e  s t e p    6001                              ( at time 2.9996998E+00 )

 nodal point  x-disp     y-disp      z-disp      x-vel       y-vel       z-vel      x-accl      y-accl      z-accl      x-coor      y-coor      z-coor
    22626 -1.35949E-03 1.02933E-01-2.02796E-01-7.24103E-04 5.35802E-02-1.09338E-01 1.66043E-04-6.13411E-03 1.36314E-03 4.65802E+00-2.80879E+01-4.51845E+01



 n o d a l   p r i n t   o u t   f o r   t i m e  s t e p    6001                              ( at time 2.9996998E+00 )

 nodal point  x-rot      y-rot       z-rot       x-rot vel   y-rot vel   z-rot vel   x-rot acc   y-rot acc   z-rot acc
    22626 -3.36597E-04-8.76074E-07 1.48444E-06-1.50257E-04 2.94505E-07 2.44360E-06-1.02183E-04-3.50878E-06-1.16775E-05



 n o d a l   p r i n t   o u t   f o r   t i m e  s t e p    6201                              ( at time 3.0996898E+00 )

 nodal point  x-disp     y-disp      z-disp      x-vel       y-vel       z-vel      x-accl      y-accl      z-accl      x-coor      y-coor      z-coor
    22626 -1.42838E-03 1.08282E-01-2.13684E-01-7.43084E-04 5.35953E-02-1.08920E-01-1.89827E-04 1.50740E-04 4.18579E-03 4.65795E+00-2.80825E+01-4.51954E+01



 n o d a l   p r i n t   o u t   f o r   t i m e  s t e p    6201                              ( at time 3.0996898E+00 )

 nodal point  x-rot      y-rot       z-rot       x-rot vel   y-rot vel   z-rot vel   x-rot acc   y-rot acc   z-rot acc
    22626 -3.51633E-04-8.02869E-07 1.74357E-06-1.49207E-04 1.22077E-07 4.51546E-06 1.04976E-05-1.72445E-06 2.07206E-05



 n o d a l   p r i n t   o u t   f o r   t i m e  s t e p    6401                              ( at time 3.1996798E+00 )

 nodal point  x-disp     y-disp      z-disp      x-vel       y-vel       z-vel      x-accl      y-accl      z-accl      x-coor      y-coor      z-coor
    22626 -1.49399E-03 1.13660E-01-2.24665E-01-6.52882E-04 5.40025E-02-1.10856E-01 9.02110E-04 4.07319E-03-1.93617E-02 4.65788E+00-2.80772E+01-4.52064E+01



 n o d a l   p r i n t   o u t   f o r   t i m e  s t e p    6401                              ( at time 3.1996798E+00 )

 nodal point  x-rot      y-rot       z-rot       x-rot vel   y-rot vel   z-rot vel   x-rot acc   y-rot acc   z-rot acc
    22626 -3.66473E-04-6.78596E-07 1.89146E-06-1.42183E-04 1.46119E-06 1.21760E-06 7.02480E-05 1.33925E-05-3.29819E-05



 n o d a l   p r i n t   o u t   f o r   t i m e  s t e p    6601                              ( at time 3.2996698E+00 )

 nodal point  x-disp     y-disp      z-disp      x-vel       y-vel       z-vel      x-accl      y-accl      z-accl      x-coor      y-coor      z-coor
    22626 -1.57215E-03 1.19081E-01-2.35856E-01-8.24051E-04 5.43011E-02-1.12738E-01-1.71187E-03 2.98556E-03-1.88238E-02 4.65780E+00-2.80717E+01-4.52176E+01



 n o d a l   p r i n t   o u t   f o r   t i m e  s t e p    6601                              ( at time 3.2996698E+00 )

 nodal point  x-rot      y-rot       z-rot       x-rot vel   y-rot vel   z-rot vel   x-rot acc   y-rot acc   z-rot acc
    22626 -3.80616E-04-5.07195E-07 2.14853E-06-1.38059E-04 2.49234E-06 2.75805E-06 4.12392E-05 1.03125E-05 1.54062E-05



 n o d a l   p r i n t   o u t   f o r   t i m e  s t e p    6801                              ( at time 3.3996598E+00 )

 nodal point  x-disp     y-disp      z-disp      x-vel       y-vel       z-vel      x-accl      y-accl      z-accl      x-coor      y-coor      z-coor
    22626 -1.65959E-03 1.24510E-01-2.47150E-01-9.65882E-04 5.40582E-02-1.13026E-01-1.41845E-03-2.42920E-03-2.88671E-03 4.65772E+00-2.80663E+01-4.52289E+01



 n o d a l   p r i n t   o u t   f o r   t i m e  s t e p    6801                              ( at time 3.3996598E+00 )

 nodal point  x-rot      y-rot       z-rot       x-rot vel   y-rot vel   z-rot vel   x-rot acc   y-rot acc   z-rot acc
    22626 -3.94338E-04-3.62049E-07 2.49926E-06-1.36933E-04 3.63080E-06 6.22981E-06 1.12663E-05 1.13857E-05 3.47210E-05



 n o d a l   p r i n t   o u t   f o r   t i m e  s t e p    7001                              ( at time 3.4996498E+00 )

 nodal point  x-disp     y-disp      z-disp      x-vel       y-vel       z-vel      x-accl      y-accl      z-accl      x-coor      y-coor      z-coor
    22626 -1.75283E-03 1.29862E-01-2.58388E-01-9.62641E-04 5.30921E-02-1.11676E-01 3.24145E-05-9.66177E-03 1.35057E-02 4.65762E+00-2.80610E+01-4.52401E+01



 n o d a l   p r i n t   o u t   f o r   t i m e  s t e p    7001                              ( at time 3.4996498E+00 )

 nodal point  x-rot      y-rot       z-rot       x-rot vel   y-rot vel   z-rot vel   x-rot acc   y-rot acc   z-rot acc
    22626 -4.08258E-04-2.46369E-08 2.94971E-06-1.37237E-04 4.52090E-06 4.25688E-06-3.04762E-06 8.90193E-06-1.97313E-05



 n o d a l   p r i n t   o u t   f o r   t i m e  s t e p    7201                              ( at time 3.5996397E+00 )

 nodal point  x-disp     y-disp      z-disp      x-vel       y-vel       z-vel      x-accl      y-accl      z-accl      x-coor      y-coor      z-coor
    22626 -1.84501E-03 1.35128E-01-2.69484E-01-8.04850E-04 5.20805E-02-1.10684E-01 1.57807E-03-1.01174E-02 9.91862E-03 4.65753E+00-2.80557E+01-4.52512E+01



 n o d a l   p r i n t   o u t   f o r   t i m e  s t e p    7201                              ( at time 3.5996397E+00 )

 nodal point  x-rot      y-rot       z-rot       x-rot vel   y-rot vel   z-rot vel   x-rot acc   y-rot acc   z-rot acc
    22626 -4.21645E-04 6.08894E-07 3.50497E-06-1.34616E-04 6.02265E-06 3.37305E-06 2.62197E-05 1.50190E-05-8.83926E-06



 n o d a l   p r i n t   o u t   f o r   t i m e  s t e p    7401                              ( at time 3.6996297E+00 )

 nodal point  x-disp     y-disp      z-disp      x-vel       y-vel       z-vel      x-accl      y-accl      z-accl      x-coor      y-coor      z-coor
    22626 -1.92963E-03 1.40290E-01-2.80550E-01-8.07820E-04 5.11602E-02-1.10737E-01-2.97040E-05-9.20383E-03-5.33067E-04 4.65745E+00-2.80505E+01-4.52623E+01



 n o d a l   p r i n t   o u t   f o r   t i m e  s t e p    7401                              ( at time 3.6996297E+00 )

 nodal point  x-rot      y-rot       z-rot       x-rot vel   y-rot vel   z-rot vel   x-rot acc   y-rot acc   z-rot acc
    22626 -4.34723E-04 1.09548E-06 3.91965E-06-1.26883E-04 2.88139E-06 3.63743E-06 7.73383E-05-3.14156E-05 2.64413E-06



 n o d a l   p r i n t   o u t   f o r   t i m e  s t e p    7601                              ( at time 3.7996197E+00 )

 nodal point  x-disp     y-disp      z-disp      x-vel       y-vel       z-vel      x-accl      y-accl      z-accl      x-coor      y-coor      z-coor
    22626 -2.00958E-03 1.45339E-01-2.91590E-01-7.73730E-04 4.97871E-02-1.09921E-01 3.40939E-04-1.37316E-02 8.16905E-03 4.65737E+00-2.80455E+01-4.52733E+01



 n o d a l   p r i n t   o u t   f o r   t i m e  s t e p    7601                              ( at time 3.7996197E+00 )

 nodal point  x-rot      y-rot       z-rot       x-rot vel   y-rot vel   z-rot vel   x-rot acc   y-rot acc   z-rot acc
    22626 -4.46953E-04 1.21690E-06 4.24005E-06-1.23730E-04-1.24907E-07 2.03626E-06 3.15260E-05-3.00660E-05-1.60134E-05



 n o d a l   p r i n t   o u t   f o r   t i m e  s t e p    7801                              ( at time 3.8996097E+00 )

 nodal point  x-disp     y-disp      z-disp      x-vel       y-vel       z-vel      x-accl      y-accl      z-accl      x-coor      y-coor      z-coor
    22626 -2.07529E-03 1.50235E-01-3.02491E-01-5.79499E-04 4.80357E-02-1.07943E-01 1.94251E-03-1.75167E-02 1.97826E-02 4.65730E+00-2.80406E+01-4.52842E+01



 n o d a l   p r i n t   o u t   f o r   t i m e  s t e p    7801                              ( at time 3.8996097E+00 )

 nodal point  x-rot      y-rot       z-rot       x-rot vel   y-rot vel   z-rot vel   x-rot acc   y-rot acc   z-rot acc
    22626 -4.59343E-04 1.21688E-06 4.43103E-06-1.29301E-04 1.23290E-06 1.73517E-06-5.57131E-05 1.35795E-05-3.01114E-06



 n o d a l   p r i n t   o u t   f o r   t i m e  s t e p    8001                              ( at time 3.9995997E+00 )

 nodal point  x-disp     y-disp      z-disp      x-vel       y-vel       z-vel      x-accl      y-accl      z-accl      x-coor      y-coor      z-coor
    22626 -2.12378E-03 1.54945E-01-3.13148E-01-4.48404E-04 4.64052E-02-1.05339E-01 1.31108E-03-1.63059E-02 2.60384E-02 4.65725E+00-2.80359E+01-4.52949E+01



 n o d a l   p r i n t   o u t   f o r   t i m e  s t e p    8001                              ( at time 3.9995997E+00 )

 nodal point  x-rot      y-rot       z-rot       x-rot vel   y-rot vel   z-rot vel   x-rot acc   y-rot acc   z-rot acc
    22626 -4.71964E-04 1.20384E-06 4.46810E-06-1.20157E-04-1.91933E-07 1.46340E-06 9.14489E-05-1.42498E-05-2.71804E-06



 n o d a l   p r i n t   o u t   f o r   t i m e  s t e p    8201                              ( at time 4.0995897E+00 )

 nodal point  x-disp     y-disp      z-disp      x-vel       y-vel       z-vel      x-accl      y-accl      z-accl      x-coor      y-coor      z-coor
    22626 -2.17226E-03 1.59503E-01-3.23624E-01-4.43791E-04 4.47559E-02-1.04346E-01 4.61335E-05-1.64952E-02 9.92888E-03 4.65720E+00-2.80313E+01-4.53053E+01



 n o d a l   p r i n t   o u t   f o r   t i m e  s t e p    8201                              ( at time 4.0995897E+00 )

 nodal point  x-rot      y-rot       z-rot       x-rot vel   y-rot vel   z-rot vel   x-rot acc   y-rot acc   z-rot acc
    22626 -4.83060E-04 1.14284E-06 4.52851E-06-1.05718E-04-9.65437E-07 1.07247E-06 1.44403E-04-7.73580E-06-3.90963E-06



 n o d a l   p r i n t   o u t   f o r   t i m e  s t e p    8401                              ( at time 4.1995797E+00 )

 nodal point  x-disp     y-disp      z-disp      x-vel       y-vel       z-vel      x-accl      y-accl      z-accl      x-coor      y-coor      z-coor
    22626 -2.22304E-03 1.63913E-01-3.33998E-01-6.04873E-04 4.34085E-02-1.02915E-01-1.61098E-03-1.34750E-02 1.43165E-02 4.65715E+00-2.80269E+01-4.53157E+01



 n o d a l   p r i n t   o u t   f o r   t i m e  s t e p    8401                              ( at time 4.1995797E+00 )

 nodal point  x-rot      y-rot       z-rot       x-rot vel   y-rot vel   z-rot vel   x-rot acc   y-rot acc   z-rot acc
    22626 -4.93515E-04 1.07949E-06 4.52926E-06-1.01919E-04 4.03489E-07 4.94756E-07 3.79978E-05 1.36906E-05-5.77776E-06



 n o d a l   p r i n t   o u t   f o r   t i m e  s t e p    8601                              ( at time 4.2995697E+00 )

 nodal point  x-disp     y-disp      z-disp      x-vel       y-vel       z-vel      x-accl      y-accl      z-accl      x-coor      y-coor      z-coor
    22626 -2.28447E-03 1.68169E-01-3.44180E-01-6.21650E-04 4.15141E-02-1.00476E-01-1.67785E-04-1.89462E-02 2.43910E-02 4.65709E+00-2.80227E+01-4.53259E+01



 n o d a l   p r i n t   o u t   f o r   t i m e  s t e p    8601                              ( at time 4.2995697E+00 )

 nodal point  x-rot      y-rot       z-rot       x-rot vel   y-rot vel   z-rot vel   x-rot acc   y-rot acc   z-rot acc
    22626 -5.03264E-04 1.15971E-06 4.75203E-06-9.22022E-05 2.19378E-06 2.72826E-06 9.71770E-05 1.79047E-05 2.23373E-05



 n o d a l   p r i n t   o u t   f o r   t i m e  s t e p    8801                              ( at time 4.3995597E+00 )

 nodal point  x-disp     y-disp      z-disp      x-vel       y-vel       z-vel      x-accl      y-accl      z-accl      x-coor      y-coor      z-coor
    22626 -2.35213E-03 1.72176E-01-3.54038E-01-6.08778E-04 3.86651E-02-9.67407E-02 1.28738E-04-2.84930E-02 3.73555E-02 4.65702E+00-2.80187E+01-4.53358E+01



 n o d a l   p r i n t   o u t   f o r   t i m e  s t e p    8801                              ( at time 4.3995597E+00 )

 nodal point  x-rot      y-rot       z-rot       x-rot vel   y-rot vel   z-rot vel   x-rot acc   y-rot acc   z-rot acc
    22626 -5.12240E-04 1.47796E-06 4.97380E-06-8.64155E-05 3.48258E-06 2.26620E-06 5.78731E-05 1.28894E-05-4.62104E-06



 n o d a l   p r i n t   o u t   f o r   t i m e  s t e p    9001                              ( at time 4.4995497E+00 )

 nodal point  x-disp     y-disp      z-disp      x-vel       y-vel       z-vel      x-accl      y-accl      z-accl      x-coor      y-coor      z-coor
    22626 -2.41741E-03 1.75946E-01-3.63585E-01-6.66706E-04 3.68031E-02-9.45511E-02-5.79336E-04-1.86211E-02 2.18976E-02 4.65696E+00-2.80149E+01-4.53453E+01



 n o d a l   p r i n t   o u t   f o r   t i m e  s t e p    9001                              ( at time 4.4995497E+00 )

 nodal point  x-rot      y-rot       z-rot       x-rot vel   y-rot vel   z-rot vel   x-rot acc   y-rot acc   z-rot acc
    22626 -5.21016E-04 1.84550E-06 5.23461E-06-8.28702E-05 2.19032E-06 1.65193E-06 3.54571E-05-1.29239E-05-6.14333E-06



 n o d a l   p r i n t   o u t   f o r   t i m e  s t e p    9201                              ( at time 4.5995397E+00 )

 nodal point  x-disp     y-disp      z-disp      x-vel       y-vel       z-vel      x-accl      y-accl      z-accl      x-coor      y-coor      z-coor
    22626 -2.47599E-03 1.79539E-01-3.72957E-01-5.37658E-04 3.49962E-02-9.28049E-02 1.29061E-03-1.80712E-02 1.74640E-02 4.65690E+00-2.80113E+01-4.53547E+01



 n o d a l   p r i n t   o u t   f o r   t i m e  s t e p    9201                              ( at time 4.5995397E+00 )

 nodal point  x-rot      y-rot       z-rot       x-rot vel   y-rot vel   z-rot vel   x-rot acc   y-rot acc   z-rot acc
    22626 -5.28536E-04 2.05267E-06 5.37295E-06-6.74551E-05 4.47840E-07 6.17932E-07 1.54166E-04-1.74265E-05-1.03410E-05



 n o d a l   p r i n t   o u t   f o r   t i m e  s t e p    9401                              ( at time 4.6995297E+00 )

 nodal point  x-disp     y-disp      z-disp      x-vel       y-vel       z-vel      x-accl      y-accl      z-accl      x-coor      y-coor      z-coor
    22626 -2.52927E-03 1.82895E-01-3.82092E-01-5.23613E-04 3.22743E-02-8.99234E-02 1.40466E-04-2.72216E-02 2.88183E-02 4.65685E+00-2.80079E+01-4.53638E+01



 n o d a l   p r i n t   o u t   f o r   t i m e  s t e p    9401                              ( at time 4.6995297E+00 )

 nodal point  x-rot      y-rot       z-rot       x-rot vel   y-rot vel   z-rot vel   x-rot acc   y-rot acc   z-rot acc
    22626 -5.35134E-04 1.99054E-06 5.24820E-06-6.67255E-05-1.38593E-06-1.56657E-06 7.29670E-06-1.83395E-05-2.18472E-05



 n o d a l   p r i n t   o u t   f o r   t i m e  s t e p    9601                              ( at time 4.7995197E+00 )

 nodal point  x-disp     y-disp      z-disp      x-vel       y-vel       z-vel      x-accl      y-accl      z-accl      x-coor      y-coor      z-coor
    22626 -2.57197E-03 1.85999E-01-3.90911E-01-3.13412E-04 2.98560E-02-8.62977E-02 2.10222E-03-2.41857E-02 3.62605E-02 4.65680E+00-2.80048E+01-4.53726E+01



 n o d a l   p r i n t   o u t   f o r   t i m e  s t e p    9601                              ( at time 4.7995197E+00 )

 nodal point  x-rot      y-rot       z-rot       x-rot vel   y-rot vel   z-rot vel   x-rot acc   y-rot acc   z-rot acc
    22626 -5.41607E-04 1.69756E-06 4.97433E-06-6.21484E-05-1.88777E-06-2.87453E-06 4.57763E-05-5.01895E-06-1.30809E-05



 n o d a l   p r i n t   o u t   f o r   t i m e  s t e p    9801                              ( at time 4.8995097E+00 )

 nodal point  x-disp     y-disp      z-disp      x-vel       y-vel       z-vel      x-accl      y-accl      z-accl      x-coor      y-coor      z-coor
    22626 -2.59784E-03 1.88856E-01-3.99345E-01-2.71762E-04 2.73966E-02-8.25330E-02 4.16538E-04-2.45959E-02 3.76503E-02 4.65678E+00-2.80020E+01-4.53811E+01



 n o d a l   p r i n t   o u t   f o r   t i m e  s t e p    9801                              ( at time 4.8995097E+00 )

 nodal point  x-rot      y-rot       z-rot       x-rot vel   y-rot vel   z-rot vel   x-rot acc   y-rot acc   z-rot acc
    22626 -5.47131E-04 1.38754E-06 4.52066E-06-4.53738E-05-3.26732E-06-4.97407E-06 1.67763E-04-1.37969E-05-2.09975E-05



 n o d a l   p r i n t   o u t   f o r   t i m e  s t e p   10001                              ( at time 4.9994997E+00 )

 nodal point  x-disp     y-disp      z-disp      x-vel       y-vel       z-vel      x-accl      y-accl      z-accl      x-coor      y-coor      z-coor
    22626 -2.62193E-03 1.91474E-01-4.07481E-01-1.98139E-04 2.51132E-02-8.02707E-02 7.36303E-04-2.28363E-02 2.26255E-02 4.65675E+00-2.79994E+01-4.53892E+01



 n o d a l   p r i n t   o u t   f o r   t i m e  s t e p   10001                              ( at time 4.9994997E+00 )

 nodal point  x-rot      y-rot       z-rot       x-rot vel   y-rot vel   z-rot vel   x-rot acc   y-rot acc   z-rot acc
    22626 -5.51071E-04 1.09534E-06 3.98780E-06-3.36629E-05-3.28811E-06-5.98266E-06 1.17120E-04-2.07933E-07-1.00869E-05



 n o d a l   p r i n t   o u t   f o r   t i m e  s t e p   10202                              ( at time 5.0999896E+00 )

 nodal point  x-disp     y-disp      z-disp      x-vel       y-vel       z-vel      x-accl      y-accl      z-accl      x-coor      y-coor      z-coor
    22626 -2.64819E-03 1.93878E-01-4.15416E-01-3.01049E-04 2.26255E-02-7.74045E-02-1.02409E-03-2.47557E-02 2.85225E-02 4.65673E+00-2.79970E+01-4.53971E+01



 n o d a l   p r i n t   o u t   f o r   t i m e  s t e p   10202                              ( at time 5.0999896E+00 )

 nodal point  x-rot      y-rot       z-rot       x-rot vel   y-rot vel   z-rot vel   x-rot acc   y-rot acc   z-rot acc
    22626 -5.54283E-04 7.97741E-07 3.50131E-06-3.01691E-05-1.70637E-06-4.01539E-06 3.47679E-05 1.57404E-05 1.95769E-05



 n o d a l   p r i n t   o u t   f o r   t i m e  s t e p   10402                              ( at time 5.1999796E+00 )

 nodal point  x-disp     y-disp      z-disp      x-vel       y-vel       z-vel      x-accl      y-accl      z-accl      x-coor      y-coor      z-coor
    22626 -2.67846E-03 1.95995E-01-4.22952E-01-2.23429E-04 1.96915E-02-7.32169E-02 7.76275E-04-2.93428E-02 4.18797E-02 4.65670E+00-2.79948E+01-4.54047E+01



 n o d a l   p r i n t   o u t   f o r   t i m e  s t e p   10402                              ( at time 5.1999796E+00 )

 nodal point  x-rot      y-rot       z-rot       x-rot vel   y-rot vel   z-rot vel   x-rot acc   y-rot acc   z-rot acc
    22626 -5.56991E-04 6.43339E-07 3.26966E-06-2.45186E-05 2.24253E-07-2.66354E-06 5.65106E-05 1.93081E-05 1.35198E-05



 n o d a l   p r i n t   o u t   f o r   t i m e  s t e p   10602                              ( at time 5.2999696E+00 )

 nodal point  x-disp     y-disp      z-disp      x-vel       y-vel       z-vel      x-accl      y-accl      z-accl      x-coor      y-coor      z-coor
    22626 -2.68994E-03 1.97806E-01-4.30057E-01-1.90155E-05 1.67437E-02-6.91287E-02 2.04434E-03-2.94812E-02 4.08860E-02 4.65668E+00-2.79930E+01-4.54118E+01



 n o d a l   p r i n t   o u t   f o r   t i m e  s t e p   10602                              ( at time 5.2999696E+00 )

 nodal point  x-rot      y-rot       z-rot       x-rot vel   y-rot vel   z-rot vel   x-rot acc   y-rot acc   z-rot acc
    22626 -5.59142E-04 7.05506E-07 3.17232E-06-1.89828E-05 2.64598E-06 6.39257E-07 5.53632E-05 2.42197E-05 3.30313E-05



 n o d a l   p r i n t   o u t   f o r   t i m e  s t e p   10802                              ( at time 5.3999596E+00 )

 nodal point  x-disp     y-disp      z-disp      x-vel       y-vel       z-vel      x-accl      y-accl      z-accl      x-coor      y-coor      z-coor
    22626 -2.70479E-03 1.99343E-01-4.36792E-01-1.50201E-04 1.39413E-02-6.56936E-02-1.31199E-03-2.80266E-02 3.43545E-02 4.65667E+00-2.79915E+01-4.54185E+01



 n o d a l   p r i n t   o u t   f o r   t i m e  s t e p   10802                              ( at time 5.3999596E+00 )

 nodal point  x-rot      y-rot       z-rot       x-rot vel   y-rot vel   z-rot vel   x-rot acc   y-rot acc   z-rot acc
    22626 -5.60780E-04 8.61189E-07 3.21708E-06-1.11153E-05-5.43664E-07 1.51812E-06 7.86831E-05-3.18997E-05 8.78952E-06



 n o d a l   p r i n t   o u t   f o r   t i m e  s t e p   11002                              ( at time 5.4999496E+00 )

 nodal point  x-disp     y-disp      z-disp      x-vel       y-vel       z-vel      x-accl      y-accl      z-accl      x-coor      y-coor      z-coor
    22626 -2.70433E-03 2.00562E-01-4.43169E-01 3.16497E-05 1.05527E-02-6.17758E-02 1.81869E-03-3.38900E-02 3.91822E-02 4.65667E+00-2.79903E+01-4.54249E+01



 n o d a l   p r i n t   o u t   f o r   t i m e  s t e p   11002                              ( at time 5.4999496E+00 )

 nodal point  x-rot      y-rot       z-rot       x-rot vel   y-rot vel   z-rot vel   x-rot acc   y-rot acc   z-rot acc
    22626 -5.61385E-04 9.14515E-07 3.17707E-06-2.23916E-06-8.27742E-07-1.76622E-06 8.87707E-05-2.84107E-06-3.28467E-05



 n o d a l   p r i n t   o u t   f o r   t i m e  s t e p   11202                              ( at time 5.5999396E+00 )

 nodal point  x-disp     y-disp      z-disp      x-vel       y-vel       z-vel      x-accl      y-accl      z-accl      x-coor      y-coor      z-coor
    22626 -2.70418E-03 2.01447E-01-4.49091E-01-3.22719E-05 7.05630E-03-5.66173E-02-6.39281E-04-3.49674E-02 5.15901E-02 4.65667E+00-2.79894E+01-4.54308E+01



 n o d a l   p r i n t   o u t   f o r   t i m e  s t e p   11202                              ( at time 5.5999396E+00 )

 nodal point  x-rot      y-rot       z-rot       x-rot vel   y-rot vel   z-rot vel   x-rot acc   y-rot acc   z-rot acc
    22626 -5.61469E-04 8.77157E-07 3.10817E-06-6.65334E-07 3.62547E-07 1.17522E-07 1.57399E-05 1.19041E-05 1.88393E-05



 n o d a l   p r i n t   o u t   f o r   t i m e  s t e p   11402                              ( at time 5.6999296E+00 )

 nodal point  x-disp     y-disp      z-disp      x-vel       y-vel       z-vel      x-accl      y-accl      z-accl      x-coor      y-coor      z-coor
    22626 -2.69774E-03 2.01956E-01-4.54450E-01 2.09443E-04 3.31320E-03-5.03623E-02 2.41738E-03-3.74346E-02 6.25557E-02 4.65668E+00-2.79889E+01-4.54362E+01



 n o d a l   p r i n t   o u t   f o r   t i m e  s t e p   11402                              ( at time 5.6999296E+00 )

 nodal point  x-rot      y-rot       z-rot       x-rot vel   y-rot vel   z-rot vel   x-rot acc   y-rot acc   z-rot acc
    22626 -5.61522E-04 7.86057E-07 2.99660E-06 2.23544E-06 4.50510E-07-2.42328E-06 2.90105E-05 8.79711E-07-2.54105E-05



 n o d a l   p r i n t   o u t   f o r   t i m e  s t e p   11602                              ( at time 5.7999195E+00 )

 nodal point  x-disp     y-disp      z-disp      x-vel       y-vel       z-vel      x-accl      y-accl      z-accl      x-coor      y-coor      z-coor
    22626 -2.68296E-03 2.02100E-01-4.59186E-01-1.84800E-05-2.12396E-04-4.46549E-02-2.27946E-03-3.52595E-02 5.70804E-02 4.65669E+00-2.79887E+01-4.54409E+01



 n o d a l   p r i n t   o u t   f o r   t i m e  s t e p   11602                              ( at time 5.7999195E+00 )

 nodal point  x-rot      y-rot       z-rot       x-rot vel   y-rot vel   z-rot vel   x-rot acc   y-rot acc   z-rot acc
    22626 -5.61302E-04 9.81993E-07 2.62437E-06 5.69248E-06 1.35509E-06-5.97346E-06 3.45739E-05 9.04675E-06-3.55053E-05



 n o d a l   p r i n t   o u t   f o r   t i m e  s t e p   11802                              ( at time 5.8999095E+00 )

 nodal point  x-disp     y-disp      z-disp      x-vel       y-vel       z-vel      x-accl      y-accl      z-accl      x-coor      y-coor      z-coor
    22626 -2.68555E-03 2.01933E-01-4.63432E-01-1.24404E-04-3.01950E-03-4.02941E-02-1.05935E-03-2.80739E-02 4.36123E-02 4.65669E+00-2.79889E+01-4.54452E+01



 n o d a l   p r i n t   o u t   f o r   t i m e  s t e p   11802                              ( at time 5.8999095E+00 )

 nodal point  x-rot      y-rot       z-rot       x-rot vel   y-rot vel   z-rot vel   x-rot acc   y-rot acc   z-rot acc
    22626 -5.61110E-04 1.06957E-06 1.90827E-06-5.18770E-06 2.12108E-06-1.03808E-05-1.08813E-04 7.66066E-06-4.40777E-05



 n o d a l   p r i n t   o u t   f o r   t i m e  s t e p   12002                              ( at time 5.9998995E+00 )

 nodal point  x-disp     y-disp      z-disp      x-vel       y-vel       z-vel      x-accl      y-accl      z-accl      x-coor      y-coor      z-coor
    22626 -2.71783E-03 2.01500E-01-4.67233E-01-6.37150E-04-5.73490E-03-3.54342E-02-5.12798E-03-2.71567E-02 4.86039E-02 4.65666E+00-2.79893E+01-4.54490E+01



 n o d a l   p r i n t   o u t   f o r   t i m e  s t e p   12002                              ( at time 5.9998995E+00 )

 nodal point  x-rot      y-rot       z-rot       x-rot vel   y-rot vel   z-rot vel   x-rot acc   y-rot acc   z-rot acc
    22626 -5.62063E-04 1.34662E-06 4.59128E-07-9.78985E-06 3.12261E-06-1.86006E-05-4.60261E-05 1.00163E-05-8.22064E-05



 n o d a l   p r i n t   o u t   f o r   t i m e  s t e p   12202                              ( at time 6.0998895E+00 )

 nodal point  x-disp     y-disp      z-disp      x-vel       y-vel       z-vel      x-accl      y-accl      z-accl      x-coor      y-coor      z-coor
    22626 -2.79907E-03 2.00842E-01-4.70541E-01-8.73888E-04-7.10742E-03-3.05799E-02-2.36761E-03-1.37266E-02 4.85472E-02 4.65658E+00-2.79900E+01-4.54523E+01



 n o d a l   p r i n t   o u t   f o r   t i m e  s t e p   12202                              ( at time 6.0998895E+00 )

 nodal point  x-rot      y-rot       z-rot       x-rot vel   y-rot vel   z-rot vel   x-rot acc   y-rot acc   z-rot acc
    22626 -5.63687E-04 1.41207E-06-1.78368E-06-2.46655E-05-1.54881E-06-2.61709E-05-1.48771E-04-4.67187E-05-7.57104E-05



 n o d a l   p r i n t   o u t   f o r   t i m e  s t e p   12402                              ( at time 6.1998795E+00 )

 nodal point  x-disp     y-disp      z-disp      x-vel       y-vel       z-vel      x-accl      y-accl      z-accl      x-coor      y-coor      z-coor
    22626 -2.87475E-03 2.00083E-01-4.73386E-01-6.29108E-04-7.77475E-03-2.67030E-02 2.44804E-03-6.67403E-03 3.87733E-02 4.65650E+00-2.79907E+01-4.54551E+01



 n o d a l   p r i n t   o u t   f o r   t i m e  s t e p   12402                              ( at time 6.1998795E+00 )

 nodal point  x-rot      y-rot       z-rot       x-rot vel   y-rot vel   z-rot vel   x-rot acc   y-rot acc   z-rot acc
    22626 -5.66556E-04 1.46191E-06-4.44592E-06-3.99838E-05 2.09301E-06-2.65418E-05-1.53198E-04 3.64219E-05-3.70980E-06



 n o d a l   p r i n t   o u t   f o r   t i m e  s t e p   12602                              ( at time 6.2998695E+00 )

 nodal point  x-disp     y-disp      z-disp      x-vel       y-vel       z-vel      x-accl      y-accl      z-accl      x-coor      y-coor      z-coor
    22626 -2.93748E-03 1.99330E-01-4.75914E-01-7.36247E-04-7.18554E-03-2.42500E-02-1.07150E-03 5.89276E-03 2.45330E-02 4.65644E+00-2.79915E+01-4.54576E+01



 n o d a l   p r i n t   o u t   f o r   t i m e  s t e p   12602                              ( at time 6.2998695E+00 )

 nodal point  x-rot      y-rot       z-rot       x-rot vel   y-rot vel   z-rot vel   x-rot acc   y-rot acc   z-rot acc
    22626 -5.70253E-04 1.30415E-06-7.52669E-06-3.70791E-05-4.94458E-06-3.65280E-05 2.90499E-05-7.03831E-05-9.98718E-05



 n o d a l   p r i n t   o u t   f o r   t i m e  s t e p   12802                              ( at time 6.3998595E+00 )

 nodal point  x-disp     y-disp      z-disp      x-vel       y-vel       z-vel      x-accl      y-accl      z-accl      x-coor      y-coor      z-coor
    22626 -3.03522E-03 1.98651E-01-4.78189E-01-1.40441E-03-6.48303E-03-2.12001E-02-6.68226E-03 7.02579E-03 3.05013E-02 4.65634E+00-2.79922E+01-4.54599E+01



 n o d a l   p r i n t   o u t   f o r   t i m e  s t e p   12802                              ( at time 6.3998595E+00 )

 nodal point  x-rot      y-rot       z-rot       x-rot vel   y-rot vel   z-rot vel   x-rot acc   y-rot acc   z-rot acc
    22626 -5.73857E-04 5.67529E-07-1.15623E-05-4.29537E-05-7.51033E-06-4.42676E-05-5.87523E-05-2.56601E-05-7.74035E-05



 n o d a l   p r i n t   o u t   f o r   t i m e  s t e p   13002                              ( at time 6.4998495E+00 )

 nodal point  x-disp     y-disp      z-disp      x-vel       y-vel       z-vel      x-accl      y-accl      z-accl      x-coor      y-coor      z-coor
    22626 -3.17921E-03 1.98094E-01-4.80083E-01-1.19688E-03-4.56590E-03-1.67663E-02 2.07549E-03 1.91732E-02 4.43431E-02 4.65620E+00-2.79927E+01-4.54618E+01



 n o d a l   p r i n t   o u t   f o r   t i m e  s t e p   13002                              ( at time 6.4998495E+00 )

 nodal point  x-rot      y-rot       z-rot       x-rot vel   y-rot vel   z-rot vel   x-rot acc   y-rot acc   z-rot acc
    22626 -5.79504E-04-2.90893E-07-1.62545E-05-7.05196E-05-6.56491E-06-4.63645E-05-2.75687E-04 9.45511E-06-2.09710E-05



 n o d a l   p r i n t   o u t   f o r   t i m e  s t e p   13202                              ( at time 6.5998395E+00 )

 nodal point  x-disp     y-disp      z-disp      x-vel       y-vel       z-vel      x-accl      y-accl      z-accl      x-coor      y-coor      z-coor
    22626 -3.28272E-03 1.97777E-01-4.81561E-01-1.06747E-03-1.49116E-03-1.28548E-02 1.29420E-03 3.07504E-02 3.91188E-02 4.65609E+00-2.79931E+01-4.54633E+01



 n o d a l   p r i n t   o u t   f o r   t i m e  s t e p   13202                              ( at time 6.5998395E+00 )

 nodal point  x-rot      y-rot       z-rot       x-rot vel   y-rot vel   z-rot vel   x-rot acc   y-rot acc   z-rot acc
    22626 -5.88043E-04-1.00393E-06-2.08710E-05-9.83041E-05-8.53697E-06-4.58646E-05-2.77871E-04-1.97224E-05 4.99954E-06



 n o d a l   p r i n t   o u t   f o r   t i m e  s t e p   13402                              ( at time 6.6998295E+00 )

 nodal point  x-disp     y-disp      z-disp      x-vel       y-vel       z-vel      x-accl      y-accl      z-accl      x-coor      y-coor      z-coor
    22626 -3.41325E-03 1.97859E-01-4.82707E-01-1.48834E-03 2.90855E-03-1.02724E-02-4.20915E-03 4.40016E-02 2.58260E-02 4.65596E+00-2.79930E+01-4.54644E+01



 n o d a l   p r i n t   o u t   f o r   t i m e  s t e p   13402                              ( at time 6.6998295E+00 )

 nodal point  x-rot      y-rot       z-rot       x-rot vel   y-rot vel   z-rot vel   x-rot acc   y-rot acc   z-rot acc
    22626 -5.99022E-04-2.15559E-06-2.62939E-05-1.28392E-04-1.73065E-05-6.46061E-05-3.00912E-04-8.77040E-05-1.87434E-04



 n o d a l   p r i n t   o u t   f o r   t i m e  s t e p   13602                              ( at time 6.7998195E+00 )

 nodal point  x-disp     y-disp      z-disp      x-vel       y-vel       z-vel      x-accl      y-accl      z-accl      x-coor      y-coor      z-coor
    22626 -3.58818E-03 1.98410E-01-4.83604E-01-1.77317E-03 8.53791E-03-7.85325E-03-2.84861E-03 5.62993E-02 2.41943E-02 4.65579E+00-2.79924E+01-4.54653E+01



 n o d a l   p r i n t   o u t   f o r   t i m e  s t e p   13602                              ( at time 6.7998195E+00 )

 nodal point  x-rot      y-rot       z-rot       x-rot vel   y-rot vel   z-rot vel   x-rot acc   y-rot acc   z-rot acc
    22626 -6.14187E-04-4.41311E-06-3.36756E-05-1.82592E-04-2.62542E-05-7.83597E-05-5.42049E-04-8.94865E-05-1.37550E-04



 n o d a l   p r i n t   o u t   f o r   t i m e  s t e p   13802                              ( at time 6.8998095E+00 )

 nodal point  x-disp     y-disp      z-disp      x-vel       y-vel       z-vel      x-accl      y-accl      z-accl      x-coor      y-coor      z-coor
    22626 -3.76962E-03 1.99622E-01-4.84266E-01-1.95734E-03 1.60609E-02-5.40833E-03-1.84180E-03 7.52378E-02 2.44517E-02 4.65561E+00-2.79912E+01-4.54660E+01



 n o d a l   p r i n t   o u t   f o r   t i m e  s t e p   13802                              ( at time 6.8998095E+00 )

 nodal point  x-rot      y-rot       z-rot       x-rot vel   y-rot vel   z-rot vel   x-rot acc   y-rot acc   z-rot acc
    22626 -6.35027E-04-6.88258E-06-4.16668E-05-2.34945E-04-2.66440E-05-7.93779E-05-5.23590E-04-3.89834E-06-1.01833E-05



 n o d a l   p r i n t   o u t   f o r   t i m e  s t e p   14002                              ( at time 6.9997995E+00 )

 nodal point  x-disp     y-disp      z-disp      x-vel       y-vel       z-vel      x-accl      y-accl      z-accl      x-coor      y-coor      z-coor
    22626 -3.97824E-03 2.01663E-01-4.84690E-01-2.26850E-03 2.52110E-02-2.83956E-03-3.11194E-03 9.15099E-02 2.56904E-02 4.65540E+00-2.79892E+01-4.54664E+01



 n o d a l   p r i n t   o u t   f o r   t i m e  s t e p   14002                              ( at time 6.9997995E+00 )

 nodal point  x-rot      y-rot       z-rot       x-rot vel   y-rot vel   z-rot vel   x-rot acc   y-rot acc   z-rot acc
    22626 -6.62220E-04-9.82082E-06-5.01922E-05-3.07849E-04-3.23191E-05-9.08021E-05-7.29107E-04-5.67567E-05-1.14254E-04



 n o d a l   p r i n t   o u t   f o r   t i m e  s t e p   14202                              ( at time 7.0997895E+00 )

 nodal point  x-disp     y-disp      z-disp      x-vel       y-vel       z-vel      x-accl      y-accl      z-accl      x-coor      y-coor      z-coor
    22626 -4.24275E-03 2.04702E-01-4.84905E-01-2.94498E-03 3.55871E-02-1.65550E-03-6.76548E-03 1.03771E-01 1.18417E-02 4.65513E+00-2.79861E+01-4.54666E+01



 n o d a l   p r i n t   o u t   f o r   t i m e  s t e p   14202                              ( at time 7.0997895E+00 )

 nodal point  x-rot      y-rot       z-rot       x-rot vel   y-rot vel   z-rot vel   x-rot acc   y-rot acc   z-rot acc
    22626 -6.96922E-04-1.28607E-05-5.94881E-05-3.85848E-04-2.89760E-05-9.68537E-05-7.80074E-04 3.34346E-05-6.05220E-05



 n o d a l   p r i n t   o u t   f o r   t i m e  s t e p   14402                              ( at time 7.1997794E+00 )

 nodal point  x-disp     y-disp      z-disp      x-vel       y-vel       z-vel      x-accl      y-accl      z-accl      x-coor      y-coor      z-coor
    22626 -4.55486E-03 2.08884E-01-4.85012E-01-3.35059E-03 4.79821E-02-7.86217E-04-4.05645E-03 1.23962E-01 8.69368E-03 4.65482E+00-2.79819E+01-4.54667E+01



 n o d a l   p r i n t   o u t   f o r   t i m e  s t e p   14402                              ( at time 7.1997794E+00 )

 nodal point  x-rot      y-rot       z-rot       x-rot vel   y-rot vel   z-rot vel   x-rot acc   y-rot acc   z-rot acc
    22626 -7.39320E-04-1.60069E-05-6.93449E-05-4.66502E-04-3.35320E-05-1.01104E-04-8.06617E-04-4.55643E-05-4.25053E-05



 n o d a l   p r i n t   o u t   f o r   t i m e  s t e p   14602                              ( at time 7.2997694E+00 )

 nodal point  x-disp     y-disp      z-disp      x-vel       y-vel       z-vel      x-accl      y-accl      z-accl      x-coor      y-coor      z-coor
    22626 -4.86876E-03 2.14350E-01-4.85018E-01-3.07773E-03 6.12763E-02 8.52871E-04 2.72880E-03 1.32955E-01 1.63925E-02 4.65451E+00-2.79765E+01-4.54667E+01



 n o d a l   p r i n t   o u t   f o r   t i m e  s t e p   14602                              ( at time 7.2997694E+00 )

 nodal point  x-rot      y-rot       z-rot       x-rot vel   y-rot vel   z-rot vel   x-rot acc   y-rot acc   z-rot acc
    22626 -7.91250E-04-1.96116E-05-7.98384E-05-5.69877E-04-3.50658E-05-1.05343E-04-1.03386E-03-1.53396E-05-4.23969E-05



 n o d a l   p r i n t   o u t   f o r   t i m e  s t e p   14802                              ( at time 7.3997594E+00 )

 nodal point  x-disp     y-disp      z-disp      x-vel       y-vel       z-vel      x-accl      y-accl      z-accl      x-coor      y-coor      z-coor
    22626 -5.21019E-03 2.21178E-01-4.84832E-01-3.49972E-03 7.57584E-02 2.42005E-03-4.22032E-03 1.44835E-01 1.56734E-02 4.65416E+00-2.79697E+01-4.54666E+01



 n o d a l   p r i n t   o u t   f o r   t i m e  s t e p   14802                              ( at time 7.3997594E+00 )

 nodal point  x-rot      y-rot       z-rot       x-rot vel   y-rot vel   z-rot vel   x-rot acc   y-rot acc   z-rot acc
    22626 -8.53150E-04-2.35389E-05-9.07710E-05-6.69022E-04-3.90659E-05-1.18028E-04-9.91544E-04-4.00058E-05-1.26862E-04



 n o d a l   p r i n t   o u t   f o r   t i m e  s t e p   15002                              ( at time 7.4997494E+00 )

 nodal point  x-disp     y-disp      z-disp      x-vel       y-vel       z-vel      x-accl      y-accl      z-accl      x-coor      y-coor      z-coor
    22626 -5.57533E-03 2.29578E-01-4.84591E-01-3.94172E-03 9.24511E-02 2.48026E-03-4.42045E-03 1.66944E-01 6.02216E-04 4.65380E+00-2.79613E+01-4.54663E+01



 n o d a l   p r i n t   o u t   f o r   t i m e  s t e p   15002                              ( at time 7.4997494E+00 )

 nodal point  x-rot      y-rot       z-rot       x-rot vel   y-rot vel   z-rot vel   x-rot acc   y-rot acc   z-rot acc
    22626 -9.25837E-04-2.76300E-05-1.02935E-04-7.88853E-04-4.11614E-05-1.26442E-04-1.19843E-03-2.09568E-05-8.41462E-05



 n o d a l   p r i n t   o u t   f o r   t i m e  s t e p   15202                              ( at time 7.5997394E+00 )

 nodal point  x-disp     y-disp      z-disp      x-vel       y-vel       z-vel      x-accl      y-accl      z-accl      x-coor      y-coor      z-coor
    22626 -5.93951E-03 2.39717E-01-4.84346E-01-3.65923E-03 1.10735E-01 2.34847E-03 2.82524E-03 1.82853E-01-1.31803E-03 4.65344E+00-2.79511E+01-4.54661E+01



 n o d a l   p r i n t   o u t   f o r   t i m e  s t e p   15202                              ( at time 7.5997394E+00 )

 nodal point  x-rot      y-rot       z-rot       x-rot vel   y-rot vel   z-rot vel   x-rot acc   y-rot acc   z-rot acc
    22626 -1.01054E-03-3.18465E-05-1.15411E-04-9.05223E-04-4.43063E-05-1.26636E-04-1.16382E-03-3.14518E-05-1.94011E-06



 n o d a l   p r i n t   o u t   f o r   t i m e  s t e p   15402                              ( at time 7.6997294E+00 )

 nodal point  x-disp     y-disp      z-disp      x-vel       y-vel       z-vel      x-accl      y-accl      z-accl      x-coor      y-coor      z-coor
    22626 -6.32247E-03 2.51781E-01-4.84187E-01-4.00979E-03 1.30436E-01 1.01984E-03-3.50598E-03 1.97034E-01-1.32877E-02 4.65305E+00-2.79390E+01-4.54659E+01



 n o d a l   p r i n t   o u t   f o r   t i m e  s t e p   15402                              ( at time 7.6997294E+00 )

 nodal point  x-rot      y-rot       z-rot       x-rot vel   y-rot vel   z-rot vel   x-rot acc   y-rot acc   z-rot acc
    22626 -1.10805E-03-3.70250E-05-1.28963E-04-1.04276E-03-5.35415E-05-1.43758E-04-1.37551E-03-9.23620E-05-1.71242E-04



 n o d a l   p r i n t   o u t   f o r   t i m e  s t e p   15602                              ( at time 7.7997194E+00 )

 nodal point  x-disp     y-disp      z-disp      x-vel       y-vel       z-vel      x-accl      y-accl      z-accl      x-coor      y-coor      z-coor
    22626 -6.72591E-03 2.65887E-01-4.84197E-01-4.29277E-03 1.52180E-01-1.04086E-03-2.83007E-03 2.17463E-01-2.06090E-02 4.65265E+00-2.79249E+01-4.54659E+01



 n o d a l   p r i n t   o u t   f o r   t i m e  s t e p   15602                              ( at time 7.7997194E+00 )

 nodal point  x-rot      y-rot       z-rot       x-rot vel   y-rot vel   z-rot vel   x-rot acc   y-rot acc   z-rot acc
    22626 -1.21967E-03-4.23764E-05-1.43465E-04-1.18249E-03-5.31769E-05-1.45186E-04-1.39747E-03 3.64733E-06-1.42769E-05



 n o d a l   p r i n t   o u t   f o r   t i m e  s t e p   15802                              ( at time 7.8997094E+00 )

 nodal point  x-disp     y-disp      z-disp      x-vel       y-vel       z-vel      x-accl      y-accl      z-accl      x-coor      y-coor      z-coor
    22626 -7.14842E-03 2.82262E-01-4.84431E-01-4.49916E-03 1.75619E-01-3.31615E-03-2.06408E-03 2.34413E-01-2.27552E-02 4.65223E+00-2.79086E+01-4.54662E+01



 n o d a l   p r i n t   o u t   f o r   t i m e  s t e p   15802                              ( at time 7.8997094E+00 )

 nodal point  x-rot      y-rot       z-rot       x-rot vel   y-rot vel   z-rot vel   x-rot acc   y-rot acc   z-rot acc
    22626 -1.34511E-03-4.79009E-05-1.58209E-04-1.32585E-03-5.70782E-05-1.49814E-04-1.43375E-03-3.90177E-05-4.62882E-05



 n o d a l   p r i n t   o u t   f o r   t i m e  s t e p   16002                              ( at time 7.9996994E+00 )

 nodal point  x-disp     y-disp      z-disp      x-vel       y-vel       z-vel      x-accl      y-accl      z-accl      x-coor      y-coor      z-coor
    22626 -7.61296E-03 3.00996E-01-4.84869E-01-4.52509E-03 1.99213E-01-6.20736E-03-2.59398E-04 2.35960E-01-2.89149E-02 4.65176E+00-2.78898E+01-4.54666E+01



 n o d a l   p r i n t   o u t   f o r   t i m e  s t e p   16002                              ( at time 7.9996994E+00 )

 nodal point  x-rot      y-rot       z-rot       x-rot vel   y-rot vel   z-rot vel   x-rot acc   y-rot acc   z-rot acc
    22626 -1.48524E-03-5.36534E-05-1.73552E-04-1.47535E-03-5.48424E-05-1.52225E-04-1.49508E-03 2.23604E-05-2.41105E-05



 n o d a l   p r i n t   o u t   f o r   t i m e  s t e p   16202                              ( at time 8.0996894E+00 )

 nodal point  x-disp     y-disp      z-disp      x-vel       y-vel       z-vel      x-accl      y-accl      z-accl      x-coor      y-coor      z-coor
    22626 -8.10217E-03 3.22254E-01-4.85729E-01-5.33678E-03 2.25772E-01-1.05030E-02-8.11768E-03 2.65618E-01-4.29606E-02 4.65127E+00-2.78686E+01-4.54674E+01



 n o d a l   p r i n t   o u t   f o r   t i m e  s t e p   16202                              ( at time 8.0996894E+00 )

 nodal point  x-rot      y-rot       z-rot       x-rot vel   y-rot vel   z-rot vel   x-rot acc   y-rot acc   z-rot acc
    22626 -1.64116E-03-5.94338E-05-1.89014E-04-1.63968E-03-6.26514E-05-1.58277E-04-1.64351E-03-7.80979E-05-6.05309E-05



 n o d a l   p r i n t   o u t   f o r   t i m e  s t e p   16402                              ( at time 8.1996794E+00 )

 nodal point  x-disp     y-disp      z-disp      x-vel       y-vel       z-vel      x-accl      y-accl      z-accl      x-coor      y-coor      z-coor
    22626 -8.66138E-03 3.46080E-01-4.86856E-01-5.69205E-03 2.51311E-01-1.21077E-02-3.55304E-03 2.55417E-01-1.60487E-02 4.65071E+00-2.78447E+01-4.54686E+01



 n o d a l   p r i n t   o u t   f o r   t i m e  s t e p   16402                              ( at time 8.1996794E+00 )

 nodal point  x-rot      y-rot       z-rot       x-rot vel   y-rot vel   z-rot vel   x-rot acc   y-rot acc   z-rot acc
    22626 -1.81421E-03-6.58194E-05-2.05857E-04-1.81372E-03-6.70108E-05-1.71850E-04-1.74052E-03-4.35982E-05-1.35738E-04



 n o d a l   p r i n t   o u t   f o r   t i m e  s t e p   16602                              ( at time 8.2996694E+00 )

 nodal point  x-disp     y-disp      z-disp      x-vel       y-vel       z-vel      x-accl      y-accl      z-accl      x-coor      y-coor      z-coor
    22626 -9.24358E-03 3.72576E-01-4.88293E-01-5.66274E-03 2.79063E-01-1.65234E-02 2.93121E-04 2.77545E-01-4.41612E-02 4.65013E+00-2.78183E+01-4.54700E+01



 n o d a l   p r i n t   o u t   f o r   t i m e  s t e p   16602                              ( at time 8.2996694E+00 )

 nodal point  x-rot      y-rot       z-rot       x-rot vel   y-rot vel   z-rot vel   x-rot acc   y-rot acc   z-rot acc
    22626 -2.00467E-03-7.25307E-05-2.23242E-04-1.98030E-03-6.91746E-05-1.82656E-04-1.66603E-03-2.16407E-05-1.08076E-04



 n o d a l   p r i n t   o u t   f o r   t i m e  s t e p   16802                              ( at time 8.3996594E+00 )

 nodal point  x-disp     y-disp      z-disp      x-vel       y-vel       z-vel      x-accl      y-accl      z-accl      x-coor      y-coor      z-coor
    22626 -9.83445E-03 4.01932E-01-4.90124E-01-6.45176E-03 3.08128E-01-1.97671E-02-7.89104E-03 2.90686E-01-3.24405E-02 4.64954E+00-2.77889E+01-4.54718E+01



 n o d a l   p r i n t   o u t   f o r   t i m e  s t e p   16802                              ( at time 8.3996594E+00 )

 nodal point  x-rot      y-rot       z-rot       x-rot vel   y-rot vel   z-rot vel   x-rot acc   y-rot acc   z-rot acc
    22626 -2.21247E-03-7.98515E-05-2.41704E-04-2.16753E-03-7.10968E-05-1.86118E-04-1.87252E-03-1.92239E-05-3.46176E-05



 n o d a l   p r i n t   o u t   f o r   t i m e  s t e p   17002                              ( at time 8.4996494E+00 )

 nodal point  x-disp     y-disp      z-disp      x-vel       y-vel       z-vel      x-accl      y-accl      z-accl      x-coor      y-coor      z-coor
    22626 -1.04952E-02 4.34210E-01-4.92320E-01-6.68449E-03 3.37595E-01-2.44195E-02-2.32745E-03 2.94699E-01-4.65285E-02 4.64888E+00-2.77566E+01-4.54740E+01



 n o d a l   p r i n t   o u t   f o r   t i m e  s t e p   17002                              ( at time 8.4996494E+00 )

 nodal point  x-rot      y-rot       z-rot       x-rot vel   y-rot vel   z-rot vel   x-rot acc   y-rot acc   z-rot acc
    22626 -2.43909E-03-8.72821E-05-2.61012E-04-2.36379E-03-7.85337E-05-1.96831E-04-1.96277E-03-7.43761E-05-1.07139E-04



 n o d a l   p r i n t   o u t   f o r   t i m e  s t e p   17202                              ( at time 8.5996394E+00 )

 nodal point  x-disp     y-disp      z-disp      x-vel       y-vel       z-vel      x-accl      y-accl      z-accl      x-coor      y-coor      z-coor
    22626 -1.11733E-02 4.69567E-01-4.94975E-01-7.09248E-03 3.69631E-01-2.83985E-02-4.08036E-03 3.20394E-01-3.97947E-02 4.64820E+00-2.77213E+01-4.54767E+01



 n o d a l   p r i n t   o u t   f o r   t i m e  s t e p   17202                              ( at time 8.5996394E+00 )

 nodal point  x-rot      y-rot       z-rot       x-rot vel   y-rot vel   z-rot vel   x-rot acc   y-rot acc   z-rot acc
    22626 -2.68589E-03-9.57976E-05-2.81410E-04-2.56739E-03-8.82852E-05-2.12614E-04-2.03621E-03-9.75248E-05-1.57849E-04



 n o d a l   p r i n t   o u t   f o r   t i m e  s t e p   17402                              ( at time 8.6996293E+00 )

 nodal point  x-disp     y-disp      z-disp      x-vel       y-vel       z-vel      x-accl      y-accl      z-accl      x-coor      y-coor      z-coor
    22626 -1.19272E-02 5.08075E-01-4.97992E-01-7.87307E-03 4.00259E-01-3.16347E-02-7.80660E-03 3.06309E-01-3.23644E-02 4.64745E+00-2.76828E+01-4.54797E+01



 n o d a l   p r i n t   o u t   f o r   t i m e  s t e p   17402                              ( at time 8.6996293E+00 )

 nodal point  x-rot      y-rot       z-rot       x-rot vel   y-rot vel   z-rot vel   x-rot acc   y-rot acc   z-rot acc
    22626 -2.95321E-03-1.04707E-04-3.03036E-04-2.76130E-03-9.54271E-05-2.21653E-04-1.93926E-03-7.14261E-05-9.03975E-05



 n o d a l   p r i n t   o u t   f o r   t i m e  s t e p   17602                              ( at time 8.7996193E+00 )

 nodal point  x-disp     y-disp      z-disp      x-vel       y-vel       z-vel      x-accl      y-accl      z-accl      x-coor      y-coor      z-coor
    22626 -1.26914E-02 5.49725E-01-5.01361E-01-7.57519E-03 4.33079E-01-3.56293E-02 2.97908E-03 3.28232E-01-3.99501E-02 4.64668E+00-2.76411E+01-4.54831E+01



 n o d a l   p r i n t   o u t   f o r   t i m e  s t e p   17602                              ( at time 8.7996193E+00 )

 nodal point  x-rot      y-rot       z-rot       x-rot vel   y-rot vel   z-rot vel   x-rot acc   y-rot acc   z-rot acc
    22626 -3.24021E-03-1.14015E-04-3.24850E-04-2.96946E-03-8.37217E-05-2.10021E-04-2.08179E-03 1.17066E-04 1.16327E-04



 n o d a l   p r i n t   o u t   f o r   t i m e  s t e p   17802                              ( at time 8.8996093E+00 )

 nodal point  x-disp     y-disp      z-disp      x-vel       y-vel       z-vel      x-accl      y-accl      z-accl      x-coor      y-coor      z-coor
    22626 -1.34701E-02 5.94730E-01-5.05132E-01-7.92425E-03 4.66566E-01-3.95697E-02-3.49091E-03 3.34900E-01-3.94078E-02 4.64591E+00-2.75961E+01-4.54869E+01



 n o d a l   p r i n t   o u t   f o r   t i m e  s t e p   17802                              ( at time 8.8996093E+00 )

 nodal point  x-rot      y-rot       z-rot       x-rot vel   y-rot vel   z-rot vel   x-rot acc   y-rot acc   z-rot acc
    22626 -3.54827E-03-1.22218E-04-3.46171E-04-3.18786E-03-8.08479E-05-2.19523E-04-2.18427E-03 2.87413E-05-9.50319E-05



 n o d a l   p r i n t   o u t   f o r   t i m e  s t e p   18002                              ( at time 8.9995993E+00 )

 nodal point  x-disp     y-disp      z-disp      x-vel       y-vel       z-vel      x-accl      y-accl      z-accl      x-coor      y-coor      z-coor
    22626 -1.43115E-02 6.43015E-01-5.09244E-01-8.99633E-03 4.99591E-01-4.22628E-02-1.07219E-02 3.30282E-01-2.69340E-02 4.64506E+00-2.75478E+01-4.54910E+01



 n o d a l   p r i n t   o u t   f o r   t i m e  s t e p   18002                              ( at time 8.9995993E+00 )

 nodal point  x-rot      y-rot       z-rot       x-rot vel   y-rot vel   z-rot vel   x-rot acc   y-rot acc   z-rot acc
    22626 -3.87771E-03-1.30474E-04-3.68045E-04-3.39704E-03-8.54239E-05-2.19798E-04-2.09197E-03-4.57644E-05-2.74768E-06



 n o d a l   p r i n t   o u t   f o r   t i m e  s t e p   18202                              ( at time 9.0995893E+00 )

 nodal point  x-disp     y-disp      z-disp      x-vel       y-vel       z-vel      x-accl      y-accl      z-accl      x-coor      y-coor      z-coor
    22626 -1.52270E-02 6.94681E-01-5.13627E-01-9.20584E-03 5.34066E-01-4.49505E-02-2.09530E-03 3.44790E-01-2.68801E-02 4.64415E+00-2.74961E+01-4.54953E+01



 n o d a l   p r i n t   o u t   f o r   t i m e  s t e p   18202                              ( at time 9.0995893E+00 )

 nodal point  x-rot      y-rot       z-rot       x-rot vel   y-rot vel   z-rot vel   x-rot acc   y-rot acc   z-rot acc
    22626 -4.22911E-03-1.39147E-04-3.90341E-04-3.62559E-03-9.14861E-05-2.31917E-04-2.28571E-03-6.06282E-05-1.21204E-04



 n o d a l   p r i n t   o u t   f o r   t i m e  s t e p   18402                              ( at time 9.1995793E+00 )

 nodal point  x-disp     y-disp      z-disp      x-vel       y-vel       z-vel      x-accl      y-accl      z-accl      x-coor      y-coor      z-coor
    22626 -1.61397E-02 7.49764E-01-5.18301E-01-9.37645E-03 5.67708E-01-4.79817E-02-1.70628E-03 3.36450E-01-3.03147E-02 4.64324E+00-2.74411E+01-4.55000E+01



 n o d a l   p r i n t   o u t   f o r   t i m e  s t e p   18402                              ( at time 9.1995793E+00 )

 nodal point  x-rot      y-rot       z-rot       x-rot vel   y-rot vel   z-rot vel   x-rot acc   y-rot acc   z-rot acc
    22626 -4.60281E-03-1.47594E-04-4.13227E-04-3.83379E-03-7.89941E-05-2.34631E-04-2.08221E-03 1.24932E-04-2.71432E-05



 n o d a l   p r i n t   o u t   f o r   t i m e  s t e p   18602                              ( at time 9.2995693E+00 )

 nodal point  x-disp     y-disp      z-disp      x-vel       y-vel       z-vel      x-accl      y-accl      z-accl      x-coor      y-coor      z-coor
    22626 -1.71006E-02 8.08315E-01-5.23259E-01-9.96512E-03 6.03373E-01-5.07697E-02-5.88728E-03 3.56688E-01-2.78827E-02 4.64227E+00-2.73825E+01-4.55050E+01



 n o d a l   p r i n t   o u t   f o r   t i m e  s t e p   18602                              ( at time 9.2995693E+00 )

 nodal point  x-rot      y-rot       z-rot       x-rot vel   y-rot vel   z-rot vel   x-rot acc   y-rot acc   z-rot acc
    22626 -4.99775E-03-1.56194E-04-4.36900E-04-4.06464E-03-9.19562E-05-2.43038E-04-2.30873E-03-1.29634E-04-8.40752E-05



 n o d a l   p r i n t   o u t   f o r   t i m e  s t e p   18802                              ( at time 9.3995593E+00 )

 nodal point  x-disp     y-disp      z-disp      x-vel       y-vel       z-vel      x-accl      y-accl      z-accl      x-coor      y-coor      z-coor
    22626 -1.81165E-02 8.70373E-01-5.28455E-01-9.88026E-03 6.37537E-01-5.31248E-02 8.48735E-04 3.41669E-01-2.35535E-02 4.64126E+00-2.73205E+01-4.55102E+01



 n o d a l   p r i n t   o u t   f o r   t i m e  s t e p   18802                              ( at time 9.3995593E+00 )

 nodal point  x-rot      y-rot       z-rot       x-rot vel   y-rot vel   z-rot vel   x-rot acc   y-rot acc   z-rot acc
    22626 -5.41548E-03-1.65183E-04-4.60861E-04-4.28824E-03-8.54435E-05-2.36351E-04-2.23624E-03 6.51339E-05 6.68829E-05



 n o d a l   p r i n t   o u t   f o r   t i m e  s t e p   19002                              ( at time 9.4995493E+00 )

 nodal point  x-disp     y-disp      z-disp      x-vel       y-vel       z-vel      x-accl      y-accl      z-accl      x-coor      y-coor      z-coor
    22626 -1.91024E-02 9.35891E-01-5.33866E-01-1.00004E-02 6.73291E-01-5.55842E-02-1.20159E-03 3.57580E-01-2.45964E-02 4.64027E+00-2.72549E+01-4.55156E+01



 n o d a l   p r i n t   o u t   f o r   t i m e  s t e p   19002                              ( at time 9.4995493E+00 )

 nodal point  x-rot      y-rot       z-rot       x-rot vel   y-rot vel   z-rot vel   x-rot acc   y-rot acc   z-rot acc
    22626 -5.85401E-03-1.73560E-04-4.83944E-04-4.50004E-03-9.30098E-05-2.29044E-04-2.11821E-03-7.56712E-05 7.30712E-05



 n o d a l   p r i n t   o u t   f o r   t i m e  s t e p   19202                              ( at time 9.5995393E+00 )

 nodal point  x-disp     y-disp      z-disp      x-vel       y-vel       z-vel      x-accl      y-accl      z-accl      x-coor      y-coor      z-coor
    22626 -2.01259E-02 1.00499E+00-5.39466E-01-1.02753E-02 7.07772E-01-5.68332E-02-2.74885E-03 3.44844E-01-1.24917E-02 4.63925E+00-2.71858E+01-4.55212E+01



 n o d a l   p r i n t   o u t   f o r   t i m e  s t e p   19202                              ( at time 9.5995393E+00 )

 nodal point  x-rot      y-rot       z-rot       x-rot vel   y-rot vel   z-rot vel   x-rot acc   y-rot acc   z-rot acc
    22626 -6.31404E-03-1.82129E-04-5.07255E-04-4.71783E-03-7.83905E-05-2.25156E-04-2.17807E-03 1.46206E-04 3.88816E-05



 n o d a l   p r i n t   o u t   f o r   t i m e  s t e p   19402                              ( at time 9.6995293E+00 )

 nodal point  x-disp     y-disp      z-disp      x-vel       y-vel       z-vel      x-accl      y-accl      z-accl      x-coor      y-coor      z-coor
    22626 -2.11600E-02 1.07757E+00-5.45138E-01-1.01519E-02 7.43845E-01-5.74123E-02 1.23398E-03 3.60765E-01-5.79136E-03 4.63822E+00-2.71133E+01-4.55269E+01



 n o d a l   p r i n t   o u t   f o r   t i m e  s t e p   19402                              ( at time 9.6995293E+00 )

 nodal point  x-rot      y-rot       z-rot       x-rot vel   y-rot vel   z-rot vel   x-rot acc   y-rot acc   z-rot acc
    22626 -6.79590E-03-1.89508E-04-5.29718E-04-4.92595E-03-6.92495E-05-2.20290E-04-2.08143E-03 9.14196E-05 4.86693E-05



 n o d a l   p r i n t   o u t   f o r   t i m e  s t e p   19602                              ( at time 9.7995193E+00 )

 nodal point  x-disp     y-disp      z-disp      x-vel       y-vel       z-vel      x-accl      y-accl      z-accl      x-coor      y-coor      z-coor
    22626 -2.22595E-02 1.15375E+00-5.50909E-01-1.15373E-02 7.79150E-01-5.78321E-02-1.38555E-02 3.53084E-01-4.19797E-03 4.63712E+00-2.70371E+01-4.55326E+01



 n o d a l   p r i n t   o u t   f o r   t i m e  s t e p   19602                              ( at time 9.7995193E+00 )

 nodal point  x-rot      y-rot       z-rot       x-rot vel   y-rot vel   z-rot vel   x-rot acc   y-rot acc   z-rot acc
    22626 -7.29986E-03-1.97129E-04-5.52098E-04-5.14543E-03-7.46610E-05-2.22723E-04-2.19510E-03-5.41201E-05-2.43376E-05



 n o d a l   p r i n t   o u t   f o r   t i m e  s t e p   19802                              ( at time 9.8995093E+00 )

 nodal point  x-disp     y-disp      z-disp      x-vel       y-vel       z-vel      x-accl      y-accl      z-accl      x-coor      y-coor      z-coor
    22626 -2.33929E-02 1.23344E+00-5.56702E-01-1.15444E-02 8.14604E-01-5.78529E-02-7.15049E-05 3.54577E-01-2.08078E-04 4.63598E+00-2.69574E+01-4.55384E+01



 n o d a l   p r i n t   o u t   f o r   t i m e  s t e p   19802                              ( at time 9.8995093E+00 )

 nodal point  x-rot      y-rot       z-rot       x-rot vel   y-rot vel   z-rot vel   x-rot acc   y-rot acc   z-rot acc
    22626 -7.82551E-03-2.04047E-04-5.73866E-04-5.35983E-03-5.99204E-05-2.16191E-04-2.14420E-03 1.47420E-04 6.53302E-05



 n o d a l   p r i n t   o u t   f o r   t i m e  s t e p   20003                              ( at time 9.9999992E+00 )

 nodal point  x-disp     y-disp      z-disp      x-vel       y-vel       z-vel      x-accl      y-accl      z-accl      x-coor      y-coor      z-coor
[...]
    22626 -3.78690E-02-4.97065E-04-1.75095E-03-8.08362E-03-1.15445E-04-4.24845E-04 7.50824E-04-4.51739E-05-5.39197E-05



 n o d a l   p r i n t   o u t   f o r   t i m e  s t e p   27803                              ( at time 1.3899609E+01 )

 nodal point  x-disp     y-disp      z-disp      x-vel       y-vel       z-vel      x-accl      y-accl      z-accl      x-coor      y-coor      z-coor
    22626 -1.37390E-01 6.30469E+00 4.71488E-01-4.94663E-02 1.34815E+00 9.26665E-01-2.14762E-03-1.09564E-01 4.25190E-01 4.52199E+00-2.18861E+01-4.45102E+01



 n o d a l   p r i n t   o u t   f o r   t i m e  s t e p   27803                              ( at time 1.3899609E+01 )

 nodal point  x-rot      y-rot       z-rot       x-rot vel   y-rot vel   z-rot vel   x-rot acc   y-rot acc   z-rot acc
    22626 -3.86766E-02-5.08404E-04-1.79294E-03-8.03253E-03-1.11620E-04-4.23897E-04 5.10994E-04 3.82610E-05 9.48037E-06



 n o d a l   p r i n t   o u t   f o r   t i m e  s t e p   28003                              ( at time 1.3999599E+01 )

 nodal point  x-disp     y-disp      z-disp      x-vel       y-vel       z-vel      x-accl      y-accl      z-accl      x-coor      y-coor      z-coor
    22626 -1.42327E-01 6.43917E+00 5.66297E-01-5.03861E-02 1.33962E+00 9.70045E-01-9.19860E-03-8.53053E-02 4.33843E-01 4.51705E+00-2.17517E+01-4.44154E+01



 n o d a l   p r i n t   o u t   f o r   t i m e  s t e p   28003                              ( at time 1.3999599E+01 )

 nodal point  x-rot      y-rot       z-rot       x-rot vel   y-rot vel   z-rot vel   x-rot acc   y-rot acc   z-rot acc
    22626 -3.94780E-02-5.19525E-04-1.83470E-03-7.98295E-03-1.17142E-04-4.24055E-04 4.95905E-04-5.52324E-05-1.58050E-06



 n o d a l   p r i n t   o u t   f o r   t i m e  s t e p   28203                              ( at time 1.4099589E+01 )

 nodal point  x-disp     y-disp      z-disp      x-vel       y-vel       z-vel      x-accl      y-accl      z-accl      x-coor      y-coor      z-coor
    22626 -1.47347E-01 6.57255E+00 6.65630E-01-5.02417E-02 1.32836E+00 1.01525E+00 1.44432E-03-1.12576E-01 4.52056E-01 4.51203E+00-2.16183E+01-4.43161E+01



 n o d a l   p r i n t   o u t   f o r   t i m e  s t e p   28203                              ( at time 1.4099589E+01 )

 nodal point  x-rot      y-rot       z-rot       x-rot vel   y-rot vel   z-rot vel   x-rot acc   y-rot acc   z-rot acc
    22626 -4.02738E-02-5.30136E-04-1.87571E-03-7.93198E-03-1.04444E-04-4.05224E-04 5.09685E-04 1.26993E-04 1.88333E-04



 n o d a l   p r i n t   o u t   f o r   t i m e  s t e p   28403                              ( at time 1.4199579E+01 )

 nodal point  x-disp     y-disp      z-disp      x-vel       y-vel       z-vel      x-accl      y-accl      z-accl      x-coor      y-coor      z-coor
    22626 -1.52329E-01 6.70492E+00 7.69252E-01-4.95858E-02 1.31779E+00 1.05710E+00 6.55945E-03-1.05724E-01 4.18537E-01 4.50705E+00-2.14859E+01-4.42125E+01



 n o d a l   p r i n t   o u t   f o r   t i m e  s t e p   28403                              ( at time 1.4199579E+01 )

 nodal point  x-rot      y-rot       z-rot       x-rot vel   y-rot vel   z-rot vel   x-rot acc   y-rot acc   z-rot acc
    22626 -4.10634E-02-5.40648E-04-1.91671E-03-7.86680E-03-9.76487E-05-4.21753E-04 6.51917E-04 6.79631E-05-1.65312E-04



 n o d a l   p r i n t   o u t   f o r   t i m e  s t e p   28603                              ( at time 1.4299569E+01 )

 nodal point  x-disp     y-disp      z-disp      x-vel       y-vel       z-vel      x-accl      y-accl      z-accl      x-coor      y-coor      z-coor
    22626 -1.57440E-01 6.83615E+00 8.77155E-01-5.16575E-02 1.30711E+00 1.09969E+00-2.07191E-02-1.06760E-01 4.25983E-01 4.50194E+00-2.13547E+01-4.41046E+01



 n o d a l   p r i n t   o u t   f o r   t i m e  s t e p   28603                              ( at time 1.4299569E+01 )

 nodal point  x-rot      y-rot       z-rot       x-rot vel   y-rot vel   z-rot vel   x-rot acc   y-rot acc   z-rot acc
    22626 -4.18447E-02-5.50786E-04-1.95688E-03-7.81060E-03-9.74148E-05-3.97163E-04 5.62054E-04 2.33909E-06 2.45925E-04



 n o d a l   p r i n t   o u t   f o r   t i m e  s t e p   28803                              ( at time 1.4399559E+01 )

 nodal point  x-disp     y-disp      z-disp      x-vel       y-vel       z-vel      x-accl      y-accl      z-accl      x-coor      y-coor      z-coor
    22626 -1.62551E-01 6.96627E+00 9.89353E-01-5.16498E-02 1.29580E+00 1.14364E+00 7.66370E-05-1.13196E-01 4.39550E-01 4.49682E+00-2.12246E+01-4.39924E+01



 n o d a l   p r i n t   o u t   f o r   t i m e  s t e p   28803                              ( at time 1.4399559E+01 )

 nodal point  x-rot      y-rot       z-rot       x-rot vel   y-rot vel   z-rot vel   x-rot acc   y-rot acc   z-rot acc
    22626 -4.26211E-02-5.60678E-04-1.99734E-03-7.75658E-03-9.16454E-05-4.00379E-04 5.40259E-04 5.76992E-05-3.21601E-05



 n o d a l   p r i n t   o u t   f o r   t i m e  s t e p   29003                              ( at time 1.4499549E+01 )

 nodal point  x-disp     y-disp      z-disp      x-vel       y-vel       z-vel      x-accl      y-accl      z-accl      x-coor      y-coor      z-coor
    22626 -1.67689E-01 7.09530E+00 1.10582E+00-5.13465E-02 1.28582E+00 1.18475E+00 3.03385E-03-9.97978E-02 4.11111E-01 4.49169E+00-2.10955E+01-4.38759E+01



 n o d a l   p r i n t   o u t   f o r   t i m e  s t e p   29003                              ( at time 1.4499549E+01 )

 nodal point  x-rot      y-rot       z-rot       x-rot vel   y-rot vel   z-rot vel   x-rot acc   y-rot acc   z-rot acc
    22626 -4.33927E-02-5.70145E-04-2.03675E-03-7.66395E-03-8.44126E-05-3.83173E-04 9.26392E-04 7.23360E-05 1.72071E-04



 n o d a l   p r i n t   o u t   f o r   t i m e  s t e p   29203                              ( at time 1.4599539E+01 )

 nodal point  x-disp     y-disp      z-disp      x-vel       y-vel       z-vel      x-accl      y-accl      z-accl      x-coor      y-coor      z-coor
    22626 -1.72831E-01 7.22330E+00 1.22630E+00-5.20060E-02 1.27338E+00 1.22635E+00-6.59614E-03-1.24392E-01 4.16099E-01 4.48654E+00-2.09675E+01-4.37554E+01



 n o d a l   p r i n t   o u t   f o r   t i m e  s t e p   29203                              ( at time 1.4599539E+01 )

 nodal point  x-rot      y-rot       z-rot       x-rot vel   y-rot vel   z-rot vel   x-rot acc   y-rot acc   z-rot acc
    22626 -4.41573E-02-5.79201E-04-2.07553E-03-7.59346E-03-1.04860E-04-3.89069E-04 7.04896E-04-2.04491E-04-5.89630E-05



 n o d a l   p r i n t   o u t   f o r   t i m e  s t e p   29403                              ( at time 1.4699529E+01 )

 nodal point  x-disp     y-disp      z-disp      x-vel       y-vel       z-vel      x-accl      y-accl      z-accl      x-coor      y-coor      z-coor
    22626 -1.78059E-01 7.35010E+00 1.35098E+00-5.19468E-02 1.26278E+00 1.26629E+00 5.91822E-04-1.05952E-01 3.99360E-01 4.48132E+00-2.08407E+01-4.36307E+01



 n o d a l   p r i n t   o u t   f o r   t i m e  s t e p   29403                              ( at time 1.4699529E+01 )

 nodal point  x-rot      y-rot       z-rot       x-rot vel   y-rot vel   z-rot vel   x-rot acc   y-rot acc   z-rot acc
    22626 -4.49162E-02-5.89109E-04-2.11502E-03-7.55851E-03-9.47909E-05-3.87745E-04 3.49589E-04 1.00697E-04 1.32447E-05



 n o d a l   p r i n t   o u t   f o r   t i m e  s t e p   29604                              ( at time 1.4800019E+01 )

 nodal point  x-disp     y-disp      z-disp      x-vel       y-vel       z-vel      x-accl      y-accl      z-accl      x-coor      y-coor      z-coor
    22626 -1.83286E-01 7.47660E+00 1.48019E+00-5.11503E-02 1.25412E+00 1.30504E+00 7.92609E-03-8.62338E-02 3.85660E-01 4.47609E+00-2.07142E+01-4.35015E+01



 n o d a l   p r i n t   o u t   f o r   t i m e  s t e p   29604                              ( at time 1.4800019E+01 )

 nodal point  x-rot      y-rot       z-rot       x-rot vel   y-rot vel   z-rot vel   x-rot acc   y-rot acc   z-rot acc
    22626 -4.56741E-02-5.97982E-04-2.15315E-03-7.51356E-03-8.58316E-05-3.68023E-04 4.47308E-04 8.91556E-05 1.96255E-04



 n o d a l   p r i n t   o u t   f o r   t i m e  s t e p   29804                              ( at time 1.4900009E+01 )

 nodal point  x-disp     y-disp      z-disp      x-vel       y-vel       z-vel      x-accl      y-accl      z-accl      x-coor      y-coor      z-coor
    22626 -1.88414E-01 7.60149E+00 1.61280E+00-5.17979E-02 1.24283E+00 1.34497E+00-6.47640E-03-1.12860E-01 3.99376E-01 4.47096E+00-2.05893E+01-4.33689E+01



 n o d a l   p r i n t   o u t   f o r   t i m e  s t e p   29804                              ( at time 1.4900009E+01 )

 nodal point  x-rot      y-rot       z-rot       x-rot vel   y-rot vel   z-rot vel   x-rot acc   y-rot acc   z-rot acc
    22626 -4.64236E-02-6.06784E-04-2.18985E-03-7.46448E-03-8.58551E-05-3.57464E-04 4.90833E-04-2.35183E-07 1.05599E-04



 n o d a l   p r i n t   o u t   f o r   t i m e  s t e p   30004                              ( at time 1.4999999E+01 )

 nodal point  x-disp     y-disp      z-disp      x-vel       y-vel       z-vel      x-accl      y-accl      z-accl      x-coor      y-coor      z-coor
    22626 -1.93634E-01 7.72535E+00 1.74914E+00-5.19847E-02 1.23441E+00 1.37999E+00-1.86771E-03-8.43002E-02 3.50167E-01 4.46574E+00-2.04655E+01-4.32326E+01



 n o d a l   p r i n t   o u t   f o r   t i m e  s t e p   30004                              ( at time 1.4999999E+01 )

 nodal point  x-rot      y-rot       z-rot       x-rot vel   y-rot vel   z-rot vel   x-rot acc   y-rot acc   z-rot acc
    22626 -4.71671E-02-6.15140E-04-2.22654E-03-7.42007E-03-8.33297E-05-3.70755E-04 4.44118E-04 2.52567E-05-1.32919E-04



 n o d a l   p r i n t   o u t   f o r   t i m e  s t e p   30204                              ( at time 1.5099989E+01 )

 nodal point  x-disp     y-disp      z-disp      x-vel       y-vel       z-vel      x-accl      y-accl      z-accl      x-coor      y-coor      z-coor
    22626 -1.98830E-01 7.84842E+00 1.88903E+00-5.16207E-02 1.22640E+00 1.41663E+00 3.63983E-03-8.00345E-02 3.66436E-01 4.46054E+00-2.03424E+01-4.30927E+01



 n o d a l   p r i n t   o u t   f o r   t i m e  s t e p   30204                              ( at time 1.5099989E+01 )

 nodal point  x-rot      y-rot       z-rot       x-rot vel   y-rot vel   z-rot vel   x-rot acc   y-rot acc   z-rot acc
    22626 -4.79071E-02-6.23559E-04-2.26253E-03-7.39922E-03-7.61689E-05-3.53505E-04 2.08572E-04 7.16154E-05 1.72514E-04



 n o d a l   p r i n t   o u t   f o r   t i m e  s t e p   30404                              ( at time 1.5199979E+01 )

 nodal point  x-disp     y-disp      z-disp      x-vel       y-vel       z-vel      x-accl      y-accl      z-accl      x-coor      y-coor      z-coor
    22626 -2.04009E-01 7.97070E+00 2.03248E+00-5.18445E-02 1.22011E+00 1.45039E+00-2.23849E-03-6.29107E-02 3.37649E-01 4.45537E+00-2.02201E+01-4.29492E+01



 n o d a l   p r i n t   o u t   f o r   t i m e  s t e p   30404                              ( at time 1.5199979E+01 )

 nodal point  x-rot      y-rot       z-rot       x-rot vel   y-rot vel   z-rot vel   x-rot acc   y-rot acc   z-rot acc
    22626 -4.86435E-02-6.30837E-04-2.29682E-03-7.33736E-03-7.69184E-05-3.43048E-04 6.18666E-04-7.49528E-06 1.04582E-04



 n o d a l   p r i n t   o u t   f o r   t i m e  s t e p   30604                              ( at time 1.5299969E+01 )

 nodal point  x-disp     y-disp      z-disp      x-vel       y-vel       z-vel      x-accl      y-accl      z-accl      x-coor      y-coor      z-coor
    22626 -2.09158E-01 8.09238E+00 2.17905E+00-5.23388E-02 1.21362E+00 1.48234E+00-4.94295E-03-6.49721E-02 3.19570E-01 4.45022E+00-2.00984E+01-4.28027E+01



 n o d a l   p r i n t   o u t   f o r   t i m e  s t e p   30604                              ( at time 1.5299969E+01 )

 nodal point  x-rot      y-rot       z-rot       x-rot vel   y-rot vel   z-rot vel   x-rot acc   y-rot acc   z-rot acc
    22626 -4.93756E-02-6.38855E-04-2.33145E-03-7.29971E-03-7.73430E-05-3.52555E-04 3.76511E-04-4.24653E-06-9.50808E-05



 n o d a l   p r i n t   o u t   f o r   t i m e  s t e p   30804                              ( at time 1.5399959E+01 )

 nodal point  x-disp     y-disp      z-disp      x-vel       y-vel       z-vel      x-accl      y-accl      z-accl      x-coor      y-coor      z-coor
    22626 -2.14401E-01 8.21333E+00 2.32891E+00-5.20355E-02 1.20772E+00 1.51495E+00 3.03359E-03-5.89740E-02 3.26147E-01 4.44497E+00-1.99775E+01-4.26528E+01



 n o d a l   p r i n t   o u t   f o r   t i m e  s t e p   30804                              ( at time 1.5399959E+01 )

 nodal point  x-rot      y-rot       z-rot       x-rot vel   y-rot vel   z-rot vel   x-rot acc   y-rot acc   z-rot acc
    22626 -5.01052E-02-6.46200E-04-2.36552E-03-7.27431E-03-7.45059E-05-3.49416E-04 2.54049E-04 2.83736E-05 3.13893E-05



 n o d a l   p r i n t   o u t   f o r   t i m e  s t e p   31004                              ( at time 1.5499949E+01 )

 nodal point  x-disp     y-disp      z-disp      x-vel       y-vel       z-vel      x-accl      y-accl      z-accl      x-coor      y-coor      z-coor
    22626 -2.19590E-01 8.33378E+00 2.48181E+00-5.20876E-02 1.20285E+00 1.54365E+00-5.21035E-04-4.86685E-02 2.86945E-01 4.43979E+00-1.98570E+01-4.24999E+01



 n o d a l   p r i n t   o u t   f o r   t i m e  s t e p   31004                              ( at time 1.5499949E+01 )

 nodal point  x-rot      y-rot       z-rot       x-rot vel   y-rot vel   z-rot vel   x-rot acc   y-rot acc   z-rot acc
    22626 -5.08316E-02-6.54473E-04-2.39977E-03-7.24528E-03-8.07040E-05-3.50129E-04 2.90295E-04-6.19871E-05-7.12796E-06



 n o d a l   p r i n t   o u t   f o r   t i m e  s t e p   31204                              ( at time 1.5599939E+01 )

 nodal point  x-disp     y-disp      z-disp      x-vel       y-vel       z-vel      x-accl      y-accl      z-accl      x-coor      y-coor      z-coor
    22626 -2.24796E-01 8.45378E+00 2.63751E+00-5.23971E-02 1.19705E+00 1.57061E+00-3.09592E-03-5.79881E-02 2.69712E-01 4.43458E+00-1.97371E+01-4.23442E+01



 n o d a l   p r i n t   o u t   f o r   t i m e  s t e p   31204                              ( at time 1.5599939E+01 )

 nodal point  x-rot      y-rot       z-rot       x-rot vel   y-rot vel   z-rot vel   x-rot acc   y-rot acc   z-rot acc
    22626 -5.15560E-02-6.61904E-04-2.43329E-03-7.22542E-03-7.92581E-05-3.41480E-04 1.98648E-04 1.44597E-05 8.65004E-05



 n o d a l   p r i n t   o u t   f o r   t i m e  s t e p   31404                              ( at time 1.5699929E+01 )

 nodal point  x-disp     y-disp      z-disp      x-vel       y-vel       z-vel      x-accl      y-accl      z-accl      x-coor      y-coor      z-coor
    22626 -2.30008E-01 8.57329E+00 2.79590E+00-5.23319E-02 1.19284E+00 1.59705E+00 6.51954E-04-4.21865E-02 2.64348E-01 4.42937E+00-1.96175E+01-4.21858E+01



 n o d a l   p r i n t   o u t   f o r   t i m e  s t e p   31404                              ( at time 1.5699929E+01 )

 nodal point  x-rot      y-rot       z-rot       x-rot vel   y-rot vel   z-rot vel   x-rot acc   y-rot acc   z-rot acc
    22626 -5.22774E-02-6.70983E-04-2.46812E-03-7.20605E-03-9.65244E-05-3.45836E-04 1.93739E-04-1.72680E-04-4.35676E-05



 n o d a l   p r i n t   o u t   f o r   t i m e  s t e p   31604                              ( at time 1.5799919E+01 )

 nodal point  x-disp     y-disp      z-disp      x-vel       y-vel       z-vel      x-accl      y-accl      z-accl      x-coor      y-coor      z-coor
    22626 -2.35258E-01 8.69255E+00 2.95687E+00-5.21718E-02 1.19198E+00 1.62081E+00 1.60146E-03-8.58028E-03 2.37658E-01 4.42412E+00-1.94983E+01-4.20248E+01



 n o d a l   p r i n t   o u t   f o r   t i m e  s t e p   31604                              ( at time 1.5799919E+01 )

 nodal point  x-rot      y-rot       z-rot       x-rot vel   y-rot vel   z-rot vel   x-rot acc   y-rot acc   z-rot acc
    22626 -5.29975E-02-6.80258E-04-2.50261E-03-7.20725E-03-7.29327E-05-3.32690E-04-1.20897E-05 2.35939E-04 1.31473E-04



 n o d a l   p r i n t   o u t   f o r   t i m e  s t e p   31804                              ( at time 1.5899909E+01 )

 nodal point  x-disp     y-disp      z-disp      x-vel       y-vel       z-vel      x-accl      y-accl      z-accl      x-coor      y-coor      z-coor
    22626 -2.40480E-01 8.81159E+00 3.12003E+00-5.24721E-02 1.19013E+00 1.64164E+00-3.00319E-03-1.84853E-02 2.08273E-01 4.41889E+00-1.93792E+01-4.18617E+01



 n o d a l   p r i n t   o u t   f o r   t i m e  s t e p   31804                              ( at time 1.5899909E+01 )

 nodal point  x-rot      y-rot       z-rot       x-rot vel   y-rot vel   z-rot vel   x-rot acc   y-rot acc   z-rot acc
    22626 -5.37159E-02-6.88513E-04-2.53693E-03-7.18288E-03-9.23306E-05-3.51431E-04 2.43761E-04-1.93999E-04-1.87426E-04



 n o d a l   p r i n t   o u t   f o r   t i m e  s t e p   32004                              ( at time 1.5999899E+01 )

 nodal point  x-disp     y-disp      z-disp      x-vel       y-vel       z-vel      x-accl      y-accl      z-accl      x-coor      y-coor      z-coor
    22626 -2.45745E-01 8.93050E+00 3.28529E+00-5.30171E-02 1.18864E+00 1.66336E+00-5.45073E-03-1.49265E-02 2.17308E-01 4.41363E+00-1.92603E+01-4.16964E+01



 n o d a l   p r i n t   o u t   f o r   t i m e  s t e p   32004                              ( at time 1.5999899E+01 )

 nodal point  x-rot      y-rot       z-rot       x-rot vel   y-rot vel   z-rot vel   x-rot acc   y-rot acc   z-rot acc
    22626 -5.44333E-02-6.98835E-04-2.57210E-03-7.16891E-03-9.90697E-05-3.51073E-04 1.39717E-04-6.73969E-05 3.57780E-06



 n o d a l   p r i n t   o u t   f o r   t i m e  s t e p   32204                              ( at time 1.6099889E+01 )

 nodal point  x-disp     y-disp      z-disp      x-vel       y-vel       z-vel      x-accl      y-accl      z-accl      x-coor      y-coor      z-coor
    22626 -2.51088E-01 9.04942E+00 3.45246E+00-5.35609E-02 1.19013E+00 1.68037E+00-5.43867E-03 1.49052E-02 1.70107E-01 4.40829E+00-1.91414E+01-4.15293E+01



 n o d a l   p r i n t   o u t   f o r   t i m e  s t e p   32204                              ( at time 1.6099889E+01 )

 nodal point  x-rot      y-rot       z-rot       x-rot vel   y-rot vel   z-rot vel   x-rot acc   y-rot acc   z-rot acc
    22626 -5.51514E-02-7.09046E-04-2.60789E-03-7.18156E-03-9.83230E-05-3.61840E-04-1.26553E-04 7.46756E-06-1.07679E-04



 n o d a l   p r i n t   o u t   f o r   t i m e  s t e p   32404                              ( at time 1.6199879E+01 )

 nodal point  x-disp     y-disp      z-disp      x-vel       y-vel       z-vel      x-accl      y-accl      z-accl      x-coor      y-coor      z-coor
    22626 -2.56436E-01 9.16836E+00 3.62125E+00-5.35195E-02 1.19006E+00 1.69720E+00 4.14029E-04-6.55711E-04 1.68301E-01 4.40294E+00-1.90225E+01-4.13605E+01



 n o d a l   p r i n t   o u t   f o r   t i m e  s t e p   32404                              ( at time 1.6199879E+01 )

 nodal point  x-rot      y-rot       z-rot       x-rot vel   y-rot vel   z-rot vel   x-rot acc   y-rot acc   z-rot acc
    22626 -5.58698E-02-7.20008E-04-2.64457E-03-7.16595E-03-1.15392E-04-3.55897E-04 1.56188E-04-1.70701E-04 5.94355E-05



 n o d a l   p r i n t   o u t   f o r   t i m e  s t e p   32604                              ( at time 1.6299869E+01 )

 nodal point  x-disp     y-disp      z-disp      x-vel       y-vel       z-vel      x-accl      y-accl      z-accl      x-coor      y-coor      z-coor
    22626 -2.61745E-01 9.28731E+00 3.79175E+00-5.30939E-02 1.18942E+00 1.71386E+00 4.25661E-03-6.39855E-03 1.66629E-01 4.39763E+00-1.89035E+01-4.11900E+01



 n o d a l   p r i n t   o u t   f o r   t i m e  s t e p   32604                              ( at time 1.6299869E+01 )

 nodal point  x-rot      y-rot       z-rot       x-rot vel   y-rot vel   z-rot vel   x-rot acc   y-rot acc   z-rot acc
    22626 -5.65871E-02-7.31123E-04-2.68114E-03-7.18478E-03-1.03909E-04-3.67898E-04-1.88298E-04 1.14839E-04-1.20024E-04
