 LSTC 50th% Full_FE H-III Dummy (Beta Version, February 17, 2019)        
                    ls-dyna smp s R16 R16.0_619_d222963 date 03/18/2025

{BEGIN LEGEND}
 Entity #        Title
        1     Upper_Neck_Force_INJURY                                              
{END LEGEND}



 line#1  section#     time        x-force     y-force     z-force    magnitude
 line#2  resultant  moments       x-moment    y-moment    z-moment   magnitude
 line#3  centroids                x           y           z            area  
           1    0.00000E+00     0.0000E+00  0.0000E+00  0.0000E+00  0.0000E+00
ac ID =   33377                 0.0000E+00  0.0000E+00  0.0000E+00  0.0000E+00
                               -3.7437E-01  1.0501E+01 -4.6940E+01  0.0000E+00

           1    1.00490E-01     1.3613E-04 -4.9880E-03  2.5983E-01  2.5988E-01
ac ID =   33377                 4.2544E-01 -1.2521E+00 -2.7100E-02  1.3227E+00
                               -3.7387E-01  1.0590E+01 -4.6886E+01  2.5147E+03

           1    2.00480E-01    -4.4346E-02  5.5984E-04  4.4125E-01  4.4347E-01
ac ID =   33377                 3.0960E-01 -1.5978E+00  2.0927E-02  1.6277E+00
                               -3.7386E-01  1.0591E+01 -4.6888E+01  2.5147E+03

           1    3.00470E-01     1.4819E-02 -3.0831E-03  2.1758E-01  2.1810E-01
ac ID =   33377                 2.3883E-02 -3.3769E-01  6.8012E-02  3.4529E-01
                               -3.7382E-01  1.0591E+01 -4.6889E+01  2.5147E+03

           1    4.00460E-01     2.7429E-03  1.0500E-02  8.7878E-02  8.8546E-02
ac ID =   33377                -4.9481E-01 -9.4082E-01  1.0617E-03  1.0630E+00
                               -3.7383E-01  1.0592E+01 -4.6890E+01  2.5147E+03

           1    5.00450E-01    -4.0634E-02  4.2402E-03  1.6171E-01  1.6679E-01
ac ID =   33377                -4.0006E-01 -1.5072E+00 -1.0477E-01  1.5629E+00
                               -3.7385E-01  1.0594E+01 -4.6893E+01  2.5147E+03

           1    6.00440E-01    -1.1081E-02  4.1841E-03  3.4335E-01  3.4355E-01
ac ID =   33377                 9.0968E-02 -1.3236E+00 -4.0685E-02  1.3274E+00
                               -3.7385E-01  1.0595E+01 -4.6897E+01  2.5147E+03

           1    7.00430E-01     3.1336E-03 -5.3236E-03  2.9456E-01  2.9463E-01
ac ID =   33377                 1.4031E-01 -5.0268E-01  8.3436E-02  5.2852E-01
                               -3.7389E-01  1.0597E+01 -4.6901E+01  2.5147E+03

           1    8.00420E-01    -3.0907E-02 -1.2588E-03  1.0084E-01  1.0548E-01
ac ID =   33377                 8.5536E-02 -1.0517E+00  4.6420E-02  1.0562E+00
                               -3.7394E-01  1.0599E+01 -4.6905E+01  2.5147E+03

           1    9.00410E-01    -3.9459E-02  9.8181E-04  6.2385E-02  7.3823E-02
ac ID =   33377                 9.1217E-02 -1.0686E+00 -7.7799E-05  1.0725E+00
                               -3.7399E-01  1.0601E+01 -4.6909E+01  2.5147E+03

           1    1.00040E+00     1.4972E-02 -3.5162E-03  2.2077E-01  2.2131E-01
ac ID =   33377                 3.6809E-01 -2.8753E-01 -5.8315E-02  4.7071E-01
                               -3.7400E-01  1.0604E+01 -4.6915E+01  2.5147E+03

           1    1.10039E+00     4.3187E-04 -3.0105E-03  2.7080E-01  2.7082E-01
ac ID =   33377                 3.4817E-01 -8.8235E-01 -5.4463E-02  9.5012E-01
                               -3.7401E-01  1.0607E+01 -4.6921E+01  2.5147E+03

           1    1.20038E+00    -3.1924E-02 -6.4106E-04  1.2906E-01  1.3295E-01
ac ID =   33377                -1.5510E-01 -1.1797E+00  1.3722E-02  1.1899E+00
                               -3.7403E-01  1.0610E+01 -4.6927E+01  2.5147E+03

           1    1.30037E+00    -1.0329E-02  4.7836E-03  7.4563E-02  7.5427E-02
ac ID =   33377                -3.0510E-01 -8.9012E-01  1.5846E-02  9.4109E-01
                               -3.7407E-01  1.0612E+01 -4.6933E+01  2.5147E+03

           1    1.40036E+00     7.3278E-03  3.4207E-03  1.7342E-01  1.7361E-01
ac ID =   33377                -2.9184E-01 -8.3438E-01  3.3094E-02  8.8457E-01
                               -3.7409E-01  1.0616E+01 -4.6941E+01  2.5147E+03

           1    1.50035E+00    -2.6894E-02  1.1017E-03  3.2853E-01  3.2964E-01
ac ID =   33377                -1.9868E-02 -1.5833E+00 -4.5790E-02  1.5841E+00
                               -3.7413E-01  1.0620E+01 -4.6949E+01  2.5147E+03

           1    1.60034E+00    -1.9002E-02 -2.3060E-03  2.2123E-01  2.2206E-01
ac ID =   33377                -2.0841E-02 -1.3711E+00 -1.0659E-02  1.3713E+00
                               -3.7419E-01  1.0624E+01 -4.6957E+01  2.5147E+03

           1    1.70033E+00    -2.8379E-03 -6.9181E-04  5.8689E-02  5.8762E-02
ac ID =   33377                -3.8817E-02 -6.6731E-01  8.4313E-02  6.7373E-01
                               -3.7427E-01  1.0627E+01 -4.6965E+01  2.5147E+03

           1    1.80032E+00    -2.0173E-02  1.3627E-03  7.7511E-02  8.0105E-02
ac ID =   33377                 8.4143E-02 -1.1135E+00  1.2688E-01  1.1239E+00
                               -3.7434E-01  1.0632E+01 -4.6974E+01  2.5147E+03

           1    1.90031E+00    -7.9813E-03 -2.7458E-03  1.9175E-01  1.9194E-01
ac ID =   33377                 2.6873E-01 -8.2351E-01 -7.9886E-02  8.6992E-01
                               -3.7439E-01  1.0636E+01 -4.6984E+01  2.5147E+03

           1    2.00030E+00    -2.1952E-03 -4.2615E-03  1.5631E-01  1.5638E-01
ac ID =   33377                 2.0389E-01 -4.4946E-01 -1.4519E-01  5.1445E-01
                               -3.7444E-01  1.0641E+01 -4.6993E+01  2.5147E+03

           1    2.10029E+00    -2.4985E-02  2.2940E-03  3.0046E-03  2.5269E-02
ac ID =   33377                -7.4134E-02 -6.9031E-01  4.1479E-02  6.9552E-01
                               -3.7450E-01  1.0645E+01 -4.7003E+01  2.5147E+03

           1    2.20028E+00    -1.3048E-02  5.1829E-03  3.3411E-03  1.4431E-02
ac ID =   33377                -2.3826E-01 -6.5902E-01  2.3156E-02  7.0115E-01
                               -3.7456E-01  1.0650E+01 -4.7013E+01  2.5147E+03

           1    2.30027E+00     1.0663E-03  4.7409E-03  1.4864E-01  1.4872E-01
ac ID =   33377                -1.4994E-01 -8.1255E-01 -6.5957E-02  8.2890E-01
                               -3.7461E-01  1.0655E+01 -4.7024E+01  2.5147E+03

           1    2.40026E+00    -1.7576E-02 -1.7686E-03  1.8866E-01  1.8948E-01
ac ID =   33377                -1.5705E-01 -1.1841E+00  7.4464E-02  1.1968E+00
                               -3.7469E-01  1.0661E+01 -4.7035E+01  2.5147E+03

           1    2.50025E+00    -1.8378E-02  1.1976E-03  2.1290E-04  1.8418E-02
ac ID =   33377                -1.9729E-01 -8.8640E-01  1.3282E-01  9.1776E-01
                               -3.7479E-01  1.0665E+01 -4.7045E+01  2.5147E+03

           1    2.60024E+00    -6.6723E-03  5.9754E-03 -7.6458E-02  7.6981E-02
ac ID =   33377                -2.0663E-01 -1.8460E-01  3.3308E-02  2.7908E-01
                               -3.7490E-01  1.0671E+01 -4.7056E+01  2.5147E+03

           1    2.70023E+00    -1.1764E-02 -1.6023E-03  1.0107E-02  1.5592E-02
ac ID =   33377                 3.4661E-02 -2.1608E-01  3.9535E-02  2.2239E-01
                               -3.7501E-01  1.0676E+01 -4.7068E+01  2.5147E+03

           1    2.80022E+00    -5.7709E-03 -4.4895E-03  6.3680E-02  6.4098E-02
ac ID =   33377                 3.6597E-01 -1.4190E-01 -1.7505E-02  3.9290E-01
                               -3.7511E-01  1.0682E+01 -4.7079E+01  2.5147E+03

           1    2.90021E+00     5.2317E-03 -2.6360E-03 -9.6237E-03  1.1267E-02
ac ID =   33377                 1.4572E-01  3.0625E-01 -8.2178E-02  3.4897E-01
                               -3.7520E-01  1.0687E+01 -4.7090E+01  2.5147E+03

           1    3.00020E+00    -7.1629E-03  1.9175E-03 -8.9101E-02  8.9410E-02
ac ID =   33377                -3.6293E-02  8.3488E-02 -4.9194E-02  1.0348E-01
                               -3.7530E-01  1.0692E+01 -4.7101E+01  2.5147E+03

           1    3.10019E+00    -2.7672E-03  3.2310E-04 -8.8134E-03  9.2433E-03
ac ID =   33377                 3.8939E-02 -2.5156E-01 -3.1359E-02  2.5648E-01
                               -3.7538E-01  1.0698E+01 -4.7113E+01  2.5147E+03

           1    3.20018E+00     3.4303E-03  1.8348E-03  6.9412E-02  6.9521E-02
ac ID =   33377                -1.8842E-02 -3.3750E-01  2.2570E-02  3.3877E-01
                               -3.7545E-01  1.0703E+01 -4.7125E+01  2.5147E+03

           1    3.30017E+00     4.8117E-04  1.2467E-03  1.3575E-02  1.3640E-02
ac ID =   33377                -2.3133E-01 -3.6440E-01  1.1379E-01  4.4637E-01
                               -3.7554E-01  1.0708E+01 -4.7137E+01  2.5147E+03

           1    3.40016E+00    -2.3489E-03  2.7431E-03 -1.0102E-01  1.0109E-01
ac ID =   33377                -3.0462E-01 -3.2471E-02  1.2124E-01  3.2947E-01
                               -3.7565E-01  1.0713E+01 -4.7148E+01  2.5147E+03

           1    3.50015E+00    -4.9061E-03  3.3922E-03 -1.3190E-01  1.3204E-01
ac ID =   33377                -1.5640E-01  2.7144E-01  4.1608E-02  3.1602E-01
                               -3.7576E-01  1.0719E+01 -4.7160E+01  2.5147E+03

           1    3.60014E+00     5.5251E-03 -3.1260E-03 -5.3008E-02  5.3387E-02
ac ID =   33377                 1.2038E-01  7.4059E-01 -9.4572E-02  7.5625E-01
                               -3.7586E-01  1.0724E+01 -4.7172E+01  2.5147E+03

           1    3.70013E+00     1.0422E-02 -5.0852E-03 -4.6498E-02  4.7922E-02
ac ID =   33377                 3.1050E-01  8.6150E-01 -1.6895E-01  9.3120E-01
                               -3.7596E-01  1.0729E+01 -4.7183E+01  2.5147E+03

           1    3.80012E+00     7.7941E-03 -2.8220E-03 -1.2895E-01  1.2922E-01
ac ID =   33377                 2.4658E-01  1.0811E+00 -7.0741E-02  1.1111E+00
                               -3.7605E-01  1.0734E+01 -4.7195E+01  2.5147E+03

           1    3.90011E+00     9.2106E-03 -4.5467E-04 -1.8952E-01  1.8975E-01
ac ID =   33377                 1.7005E-01  1.1297E+00 -5.6193E-02  1.1438E+00
                               -3.7613E-01  1.0739E+01 -4.7206E+01  2.5147E+03

           1    4.00010E+00     2.3322E-03 -1.1091E-03 -1.3526E-01  1.3529E-01
ac ID =   33377                -2.7103E-02  7.1382E-01 -1.7796E-02  7.1456E-01
                               -3.7618E-01  1.0744E+01 -4.7217E+01  2.5147E+03

           1    4.10009E+00     4.1409E-03 -1.9492E-04 -9.7788E-02  9.7876E-02
ac ID =   33377                -7.1637E-02  5.4153E-01  7.3991E-03  5.4629E-01
                               -3.7623E-01  1.0748E+01 -4.7228E+01  2.5147E+03

           1    4.20008E+00    -1.2190E-03  3.1190E-03 -1.4134E-01  1.4138E-01
ac ID =   33377                -2.2389E-01  5.2037E-01  1.0153E-01  5.7552E-01
                               -3.7629E-01  1.0753E+01 -4.7239E+01  2.5147E+03

           1    4.30007E+00     2.2704E-03  4.8612E-03 -2.3880E-01  2.3886E-01
ac ID =   33377                -3.3978E-01  9.1264E-01  8.5560E-02  9.7759E-01
                               -3.7637E-01  1.0757E+01 -4.7249E+01  2.5147E+03

           1    4.40006E+00     1.0805E-02  4.3793E-03 -2.0562E-01  2.0595E-01
ac ID =   33377                -1.2884E-01  1.2278E+00  2.7970E-02  1.2349E+00
                               -3.7644E-01  1.0761E+01 -4.7259E+01  2.5147E+03

           1    4.50005E+00     6.8122E-03 -1.9763E-03 -1.2022E-01  1.2043E-01
ac ID =   33377                 2.1618E-01  9.7212E-01 -2.7539E-02  9.9625E-01
                               -3.7650E-01  1.0765E+01 -4.7269E+01  2.5147E+03

           1    4.60004E+00     9.6407E-03 -4.4712E-03 -1.5725E-01  1.5761E-01
ac ID =   33377                 3.1401E-01  1.0544E+00 -8.5955E-02  1.1035E+00
                               -3.7656E-01  1.0768E+01 -4.7279E+01  2.5147E+03

           1    4.70003E+00     7.7977E-03 -1.2381E-04 -2.2836E-01  2.2849E-01
ac ID =   33377                 2.2786E-01  9.7788E-01 -5.8022E-02  1.0057E+00
                               -3.7662E-01  1.0771E+01 -4.7288E+01  2.5147E+03

           1    4.80002E+00     6.6067E-03  9.2426E-04 -2.5018E-01  2.5027E-01
ac ID =   33377                 9.2234E-02  8.9689E-01 -1.3953E-03  9.0162E-01
                               -3.7665E-01  1.0774E+01 -4.7297E+01  2.5147E+03

           1    4.90001E+00     5.2602E-03 -1.7477E-03 -1.8402E-01  1.8411E-01
ac ID =   33377                 5.5442E-02  8.3233E-01 -8.4275E-03  8.3421E-01
                               -3.7666E-01  1.0777E+01 -4.7306E+01  2.5147E+03

           1    5.00000E+00     5.4205E-03 -4.5569E-04 -1.5779E-01  1.5788E-01
ac ID =   33377                -1.8581E-01  8.1183E-01  7.9662E-02  8.3662E-01
                               -3.7666E-01  1.0780E+01 -4.7314E+01  2.5147E+03

           1    5.10049E+00     3.4596E-03  4.8621E-03 -2.2951E-01  2.2958E-01
ac ID =   33377                -2.9467E-01  8.8791E-01  8.5489E-02  9.3943E-01
                               -3.7668E-01  1.0782E+01 -4.7322E+01  2.5147E+03

           1    5.20048E+00     6.0505E-03  4.7725E-03 -2.5085E-01  2.5097E-01
ac ID =   33377                -2.8885E-01  1.1227E+00 -2.0182E-02  1.1594E+00
                               -3.7670E-01  1.0784E+01 -4.7330E+01  2.5147E+03

           1    5.30047E+00     7.1179E-03  6.7061E-04 -2.1726E-01  2.1738E-01
ac ID =   33377                -2.2022E-01  1.0593E+00 -5.2484E-02  1.0833E+00
                               -3.7670E-01  1.0786E+01 -4.7337E+01  2.5147E+03

           1    5.40046E+00     8.5695E-03 -4.0725E-03 -1.8571E-01  1.8596E-01
ac ID =   33377                 1.5621E-01  9.8472E-01 -6.5904E-02  9.9921E-01
                               -3.7671E-01  1.0788E+01 -4.7344E+01  2.5147E+03

           1    5.50045E+00     7.4534E-03 -1.7834E-03 -2.4793E-01  2.4805E-01
ac ID =   33377                 1.4903E-01  1.0625E+00 -9.4438E-02  1.0770E+00
                               -3.7671E-01  1.0789E+01 -4.7350E+01  2.5147E+03

           1    5.60044E+00     1.9632E-03 -1.8332E-03 -3.0706E-01  3.0707E-01
ac ID =   33377                 1.3652E-01  1.0994E+00 -6.5207E-02  1.1098E+00
                               -3.7671E-01  1.0790E+01 -4.7356E+01  2.5147E+03

           1    5.70043E+00     1.7245E-03 -2.5505E-03 -3.0325E-01  3.0327E-01
ac ID =   33377                 1.1173E-01  9.3360E-01 -1.7044E-02  9.4041E-01
                               -3.7669E-01  1.0790E+01 -4.7361E+01  2.5147E+03

           1    5.80042E+00     6.7818E-03 -7.6702E-04 -2.4639E-01  2.4648E-01
ac ID =   33377                 1.0207E-01  8.4785E-01  2.0423E-02  8.5421E-01
                               -3.7667E-01  1.0791E+01 -4.7366E+01  2.5147E+03

           1    5.90041E+00     8.8676E-03  3.4844E-03 -2.3467E-01  2.3486E-01
ac ID =   33377                -8.6081E-02  8.4259E-01  9.6004E-02  8.5240E-01
                               -3.7664E-01  1.0790E+01 -4.7370E+01  2.5147E+03

           1    6.00040E+00     6.5666E-03  4.8653E-03 -2.8896E-01  2.8907E-01
ac ID =   33377                -2.9250E-01  9.4520E-01  1.0589E-01  9.9508E-01
                               -3.7663E-01  1.0790E+01 -4.7374E+01  2.5147E+03

           1    6.10039E+00     1.0266E-02  3.4454E-03 -2.7938E-01  2.7959E-01
ac ID =   33377                -2.0208E-01  7.7288E-01 -6.0478E-02  8.0114E-01
                               -3.7663E-01  1.0789E+01 -4.7377E+01  2.5147E+03

           1    6.20038E+00     1.0919E-02  5.0826E-03 -2.3902E-01  2.3932E-01
ac ID =   33377                -2.9537E-01  6.0575E-01 -1.3017E-01  6.8638E-01
                               -3.7660E-01  1.0788E+01 -4.7381E+01  2.5147E+03

           1    6.30037E+00     9.9610E-03  5.0863E-03 -2.3346E-01  2.3373E-01
ac ID =   33377                -1.9230E-01  4.7285E-01 -7.0224E-02  5.1526E-01
                               -3.7654E-01  1.0788E+01 -4.7383E+01  2.5147E+03

           1    6.40036E+00     1.7719E-02  1.4053E-03 -3.0724E-01  3.0775E-01
ac ID =   33377                 6.3198E-02  8.4281E-01  1.1344E-01  8.5275E-01
                               -3.7648E-01  1.0787E+01 -4.7385E+01  2.5147E+03

           1    6.50035E+00     2.8905E-02 -1.3889E-03 -3.3471E-01  3.3596E-01
ac ID =   33377                 5.5275E-02  1.3329E+00  1.5882E-01  1.3434E+00
                               -3.7642E-01  1.0786E+01 -4.7387E+01  2.5147E+03

           1    6.60034E+00     3.1415E-02  5.0735E-03 -3.0353E-01  3.0520E-01
ac ID =   33377                -4.8659E-02  1.3364E+00  6.6950E-02  1.3390E+00
                               -3.7637E-01  1.0786E+01 -4.7389E+01  2.5147E+03

           1    6.70033E+00     3.3836E-02  1.3811E-03 -2.8723E-01  2.8922E-01
ac ID =   33377                -1.0038E-01  1.3540E+00  3.8344E-02  1.3582E+00
                               -3.7628E-01  1.0786E+01 -4.7391E+01  2.5147E+03

           1    6.80032E+00     4.1661E-02  2.4463E-03 -3.0468E-01  3.0753E-01
ac ID =   33377                -1.4575E-01  1.2308E+00 -2.7801E-02  1.2397E+00
                               -3.7617E-01  1.0787E+01 -4.7392E+01  2.5147E+03

           1    6.90031E+00     4.3251E-02  3.6906E-03 -3.4872E-01  3.5141E-01
ac ID =   33377                -4.7716E-01  1.3619E+00 -1.0771E-01  1.4471E+00
                               -3.7604E-01  1.0788E+01 -4.7394E+01  2.5147E+03

           1    7.00030E+00     4.8351E-02  5.1825E-03 -3.4079E-01  3.4424E-01
ac ID =   33377                -5.2588E-01  1.3508E+00 -1.3390E-01  1.4558E+00
                               -3.7592E-01  1.0790E+01 -4.7395E+01  2.5147E+03

           1    7.10029E+00     5.1700E-02  4.3044E-03 -3.3989E-01  3.4382E-01
ac ID =   33377                -4.1806E-01  1.3829E+00 -5.8740E-02  1.4459E+00
                               -3.7582E-01  1.0793E+01 -4.7397E+01  2.5147E+03

           1    7.20028E+00     5.8490E-02  6.8144E-03 -3.8214E-01  3.8665E-01
ac ID =   33377                -3.9854E-01  1.6505E+00 -1.3325E-01  1.7032E+00
                               -3.7574E-01  1.0797E+01 -4.7399E+01  2.5147E+03

           1    7.30027E+00     7.1688E-02  9.8576E-03 -4.5026E-01  4.5604E-01
ac ID =   33377                -4.3807E-01  2.1335E+00 -4.1416E-02  2.1784E+00
                               -3.7564E-01  1.0802E+01 -4.7400E+01  2.5147E+03

           1    7.40026E+00     8.1823E-02 -2.0948E-03 -4.6956E-01  4.7664E-01
ac ID =   33377                -6.5903E-02  2.5590E+00  3.9301E-03  2.5599E+00
                               -3.7553E-01  1.0809E+01 -4.7402E+01  2.5147E+03

           1    7.50025E+00     8.9714E-02 -1.1548E-03 -4.4188E-01  4.5090E-01
ac ID =   33377                -4.7323E-02  2.6715E+00  6.1447E-02  2.6726E+00
                               -3.7543E-01  1.0817E+01 -4.7405E+01  2.5147E+03

           1    7.60024E+00     9.3043E-02  2.5530E-03 -4.5592E-01  4.6532E-01
ac ID =   33377                -1.0900E-01  2.7545E+00  2.9031E-02  2.7568E+00
                               -3.7530E-01  1.0827E+01 -4.7408E+01  2.5147E+03

           1    7.70023E+00     9.8229E-02  4.7854E-03 -4.8142E-01  4.9136E-01
ac ID =   33377                -3.4571E-01  2.6224E+00 -4.5485E-02  2.6455E+00
                               -3.7515E-01  1.0839E+01 -4.7412E+01  2.5147E+03

           1    7.80022E+00     9.6234E-02  7.0882E-03 -5.0889E-01  5.1796E-01
ac ID =   33377                -5.6693E-01  2.6077E+00 -9.2659E-02  2.6702E+00
                               -3.7499E-01  1.0853E+01 -4.7416E+01  2.5147E+03

           1    7.90021E+00     1.0869E-01  4.7337E-03 -5.2041E-01  5.3166E-01
ac ID =   33377                -5.2250E-01  2.8573E+00 -1.5475E-01  2.9088E+00
                               -3.7484E-01  1.0869E+01 -4.7421E+01  2.5147E+03

           1    8.00020E+00     1.1290E-01  1.2148E-02 -5.3236E-01  5.4433E-01
ac ID =   33377                -7.3500E-01  3.2059E+00  8.9759E-02  3.2903E+00
                               -3.7469E-01  1.0888E+01 -4.7427E+01  2.5147E+03

           1    8.10019E+00     1.2761E-01  9.7338E-03 -5.9672E-01  6.1029E-01
ac ID =   33377                -6.3713E-01  3.4733E+00  8.4267E-02  3.5323E+00
                               -3.7457E-01  1.0908E+01 -4.7434E+01  2.5147E+03

           1    8.20018E+00     1.3559E-01  4.9459E-03 -6.5431E-01  6.6823E-01
ac ID =   33377                -5.0057E-01  4.1100E+00 -4.8268E-02  4.1407E+00
                               -3.7447E-01  1.0932E+01 -4.7441E+01  2.5147E+03

           1    8.30017E+00     1.3342E-01  4.6673E-03 -6.6313E-01  6.7644E-01
ac ID =   33377                -3.0526E-01  4.1140E+00 -1.1191E-01  4.1268E+00
                               -3.7434E-01  1.0958E+01 -4.7450E+01  2.5147E+03

           1    8.40016E+00     1.4740E-01  7.0124E-03 -6.9012E-01  7.0572E-01
ac ID =   33377                -2.4707E-01  4.5613E+00 -3.0124E-02  4.5681E+00
                               -3.7423E-01  1.0987E+01 -4.7460E+01  2.5147E+03

           1    8.50015E+00     1.4575E-01 -1.7795E-03 -7.2750E-01  7.4196E-01
ac ID =   33377                -1.7680E-01  4.7183E+00 -3.3756E-02  4.7217E+00
                               -3.7409E-01  1.1019E+01 -4.7471E+01  2.5147E+03

           1    8.60014E+00     1.5523E-01  1.2048E-02 -7.9004E-01  8.0523E-01
ac ID =   33377                -6.5334E-01  4.8026E+00 -2.8186E-01  4.8550E+00
                               -3.7401E-01  1.1054E+01 -4.7483E+01  2.5147E+03

           1    8.70013E+00     1.5167E-01  8.6410E-03 -8.3233E-01  8.4608E-01
ac ID =   33377                -7.5026E-01  4.9967E+00 -2.7293E-01  5.0601E+00
                               -3.7387E-01  1.1092E+01 -4.7496E+01  2.5147E+03

           1    8.80012E+00     1.6093E-01  7.5069E-03 -8.5263E-01  8.6771E-01
ac ID =   33377                -7.7535E-01  4.8879E+00 -6.1212E-02  4.9494E+00
                               -3.7379E-01  1.1133E+01 -4.7511E+01  2.5147E+03

           1    8.90011E+00     1.7569E-01  8.0491E-03 -9.2134E-01  9.3798E-01
ac ID =   33377                -8.7477E-01  5.5638E+00  1.1230E-01  5.6333E+00
                               -3.7373E-01  1.1177E+01 -4.7527E+01  2.5147E+03

           1    9.00010E+00     1.7617E-01  7.5231E-03 -9.8991E-01  1.0055E+00
ac ID =   33377                -9.3005E-01  5.7227E+00  3.0375E-02  5.7979E+00
                               -3.7369E-01  1.1225E+01 -4.7543E+01  2.5147E+03

           1    9.10009E+00     1.8380E-01  3.5893E-03 -1.0342E+00  1.0504E+00
ac ID =   33377                -5.1291E-01  6.1350E+00 -4.2318E-02  6.1566E+00
                               -3.7372E-01  1.1276E+01 -4.7561E+01  2.5147E+03

           1    9.20008E+00     1.9426E-01  2.7116E-03 -1.0747E+00  1.0922E+00
ac ID =   33377                -4.0986E-01  6.3230E+00  1.4518E-02  6.3363E+00
                               -3.7373E-01  1.1330E+01 -4.7580E+01  2.5147E+03

           1    9.30007E+00     2.0124E-01  2.7491E-03 -1.1264E+00  1.1442E+00
ac ID =   33377                -4.2210E-01  6.3102E+00 -3.9625E-02  6.3245E+00
                               -3.7376E-01  1.1388E+01 -4.7600E+01  2.5147E+03

           1    9.40006E+00     1.9086E-01  2.3454E-03 -1.2031E+00  1.2182E+00
ac ID =   33377                -5.0973E-01  6.5136E+00 -1.5537E-01  6.5353E+00
                               -3.7381E-01  1.1449E+01 -4.7622E+01  2.5147E+03

           1    9.50005E+00     2.0142E-01 -4.2698E-03 -1.2624E+00  1.2784E+00
ac ID =   33377                -5.9798E-01  6.7027E+00 -3.5451E-01  6.7387E+00
                               -3.7389E-01  1.1514E+01 -4.7644E+01  2.5147E+03

           1    9.60004E+00     2.2429E-01  1.8492E-02 -1.3229E+00  1.3419E+00
ac ID =   33377                -9.1095E-01  7.6017E+00 -1.0404E-01  7.6568E+00
                               -3.7403E-01  1.1582E+01 -4.7667E+01  2.5147E+03

           1    9.70003E+00     2.1766E-01  7.4321E-03 -1.3575E+00  1.3749E+00
ac ID =   33377                -1.0842E+00  7.4956E+00  1.0991E-01  7.5744E+00
                               -3.7415E-01  1.1653E+01 -4.7692E+01  2.5147E+03

           1    9.80002E+00     2.2420E-01  7.2834E-04 -1.4361E+00  1.4535E+00
ac ID =   33377                -6.7265E-01  7.9282E+00  7.1084E-03  7.9567E+00
                               -3.7438E-01  1.1728E+01 -4.7717E+01  2.5147E+03

           1    9.90001E+00     2.3439E-01  3.1961E-03 -1.5162E+00  1.5342E+00
ac ID =   33377                -9.5053E-01  8.6952E+00 -1.3734E-01  8.7481E+00
                               -3.7463E-01  1.1807E+01 -4.7743E+01  2.5147E+03

           1    1.00005E+01     2.3764E-01  4.9077E-03 -1.5862E+00  1.6039E+00
ac ID =   33377                -6.2254E-01  8.7994E+00 -1.6189E-02  8.8214E+00
                               -3.7497E-01  1.1889E+01 -4.7770E+01  2.5147E+03

           1    1.01005E+01     2.4627E-01  2.1112E-03 -1.6673E+00  1.6854E+00
ac ID =   33377                -4.5462E-01  9.5654E+00  3.6057E-02  9.5763E+00
                               -3.7534E-01  1.1975E+01 -4.7797E+01  2.5147E+03

           1    1.02005E+01     2.6318E-01 -5.6079E-03 -1.7658E+00  1.7853E+00
ac ID =   33377                -4.5531E-01  9.9861E+00 -1.0810E-01  9.9970E+00
                               -3.7570E-01  1.2064E+01 -4.7825E+01  2.5147E+03

           1    1.03005E+01     2.6579E-01 -4.5641E-03 -1.8620E+00  1.8808E+00
ac ID =   33377                -5.7953E-01  1.0790E+01 -4.6113E-01  1.0815E+01
                               -3.7617E-01  1.2156E+01 -4.7854E+01  2.5147E+03

           1    1.04005E+01     2.6281E-01  3.8030E-04 -1.9430E+00  1.9607E+00
ac ID =   33377                -7.0697E-01  1.0852E+01 -1.3458E-01  1.0875E+01
                               -3.7666E-01  1.2251E+01 -4.7882E+01  2.5147E+03

           1    1.05004E+01     2.8958E-01  2.0751E-03 -2.0208E+00  2.0415E+00
ac ID =   33377                -7.7655E-01  1.1719E+01  1.7268E-01  1.1746E+01
                               -3.7718E-01  1.2350E+01 -4.7911E+01  2.5147E+03

           1    1.06004E+01     2.8632E-01  2.7699E-04 -2.0847E+00  2.1042E+00
ac ID =   33377                -7.6652E-01  1.2026E+01  1.6405E-01  1.2051E+01
                               -3.7777E-01  1.2452E+01 -4.7941E+01  2.5147E+03

           1    1.07004E+01     2.9242E-01  3.2890E-03 -2.1762E+00  2.1958E+00
ac ID =   33377                -7.7272E-01  1.2586E+01  2.4673E-02  1.2610E+01
                               -3.7841E-01  1.2557E+01 -4.7970E+01  2.5147E+03

           1    1.08004E+01     3.0904E-01 -4.9727E-03 -2.2693E+00  2.2903E+00
ac ID =   33377                -6.7373E-01  1.3233E+01 -2.2632E-01  1.3252E+01
                               -3.7909E-01  1.2666E+01 -4.7999E+01  2.5147E+03

           1    1.09004E+01     3.1618E-01 -1.5764E-03 -2.3619E+00  2.3830E+00
ac ID =   33377                -4.6058E-01  1.3584E+01  2.7043E-02  1.3592E+01
                               -3.7985E-01  1.2777E+01 -4.8028E+01  2.5147E+03

           1    1.10004E+01     3.2277E-01  5.5826E-03 -2.4694E+00  2.4904E+00
ac ID =   33377                -6.0721E-01  1.4510E+01  1.9107E-01  1.4524E+01
                               -3.8066E-01  1.2892E+01 -4.8057E+01  2.5147E+03

           1    1.11004E+01     3.3396E-01 -4.6781E-03 -2.5530E+00  2.5747E+00
ac ID =   33377                -5.8335E-01  1.5291E+01 -1.5514E-01  1.5303E+01
                               -3.8146E-01  1.3009E+01 -4.8085E+01  2.5147E+03

           1    1.12004E+01     3.4840E-01 -1.3376E-02 -2.6529E+00  2.6757E+00
ac ID =   33377                -4.5983E-01  1.6396E+01 -5.2837E-01  1.6411E+01
                               -3.8236E-01  1.3129E+01 -4.8113E+01  2.5147E+03

           1    1.13004E+01     3.4673E-01  8.8247E-03 -2.7141E+00  2.7362E+00
ac ID =   33377                -1.0590E+00  1.6971E+01 -3.3747E-01  1.7007E+01
                               -3.8331E-01  1.3252E+01 -4.8140E+01  2.5147E+03

           1    1.14004E+01     3.6596E-01  4.3862E-03 -2.7875E+00  2.8114E+00
ac ID =   33377                -9.7211E-01  1.7649E+01 -8.6946E-02  1.7676E+01
                               -3.8434E-01  1.3377E+01 -4.8166E+01  2.5147E+03

           1    1.15003E+01     3.5854E-01 -1.0297E-02 -2.8460E+00  2.8685E+00
ac ID =   33377                -8.9872E-01  1.8040E+01  1.0522E-01  1.8063E+01
                               -3.8541E-01  1.3504E+01 -4.8191E+01  2.5147E+03

           1    1.16003E+01     3.6556E-01  1.3998E-02 -2.9467E+00  2.9693E+00
ac ID =   33377                -1.1993E+00  1.8649E+01 -1.5876E-01  1.8689E+01
                               -3.8666E-01  1.3634E+01 -4.8214E+01  2.5147E+03

           1    1.17003E+01     3.6801E-01 -4.5814E-03 -3.0484E+00  3.0705E+00
ac ID =   33377                -1.1332E+00  1.9417E+01 -4.9464E-01  1.9456E+01
                               -3.8793E-01  1.3766E+01 -4.8236E+01  2.5147E+03

           1    1.18003E+01     3.8947E-01 -3.8106E-03 -3.1226E+00  3.1468E+00
ac ID =   33377                -7.1185E-01  2.0261E+01 -5.7744E-01  2.0282E+01
                               -3.8937E-01  1.3899E+01 -4.8256E+01  2.5147E+03

           1    1.19003E+01     4.1220E-01  1.7335E-03 -3.2280E+00  3.2542E+00
ac ID =   33377                -9.7524E-01  2.1613E+01 -5.8654E-01  2.1643E+01
                               -3.9087E-01  1.4034E+01 -4.8274E+01  2.5147E+03

           1    1.20003E+01     3.8225E-01 -6.7133E-03 -3.2866E+00  3.3088E+00
ac ID =   33377                -8.7518E-01  2.1599E+01 -3.3813E-01  2.1619E+01
                               -3.9241E-01  1.4170E+01 -4.8290E+01  2.5147E+03

           1    1.21003E+01     4.2208E-01 -2.0066E-03 -3.3691E+00  3.3955E+00
ac ID =   33377                -9.6156E-01  2.2965E+01 -3.4211E-01  2.2988E+01
                               -3.9409E-01  1.4307E+01 -4.8303E+01  2.5147E+03

           1    1.22003E+01     4.0814E-01 -9.3484E-03 -3.4037E+00  3.4281E+00
ac ID =   33377                -8.4713E-01  2.3268E+01 -1.5286E-01  2.3284E+01
                               -3.9588E-01  1.4446E+01 -4.8313E+01  2.5147E+03

           1    1.23003E+01     4.0839E-01  7.7209E-03 -3.4534E+00  3.4775E+00
ac ID =   33377                -1.2757E+00  2.3328E+01 -1.3135E-01  2.3363E+01
                               -3.9775E-01  1.4585E+01 -4.8321E+01  2.5147E+03

           1    1.24003E+01     4.2353E-01 -9.2913E-04 -3.5566E+00  3.5817E+00
ac ID =   33377                -1.2820E+00  2.4369E+01 -1.2624E-01  2.4403E+01
                               -3.9969E-01  1.4725E+01 -4.8325E+01  2.5147E+03

           1    1.25002E+01     4.1742E-01 -8.2949E-04 -3.6059E+00  3.6300E+00
ac ID =   33377                -1.3221E+00  2.4762E+01  4.3436E-02  2.4797E+01
                               -4.0174E-01  1.4865E+01 -4.8326E+01  2.5147E+03

           1    1.26002E+01     4.3592E-01 -8.9905E-03 -3.6744E+00  3.7002E+00
ac ID =   33377                -1.0590E+00  2.5864E+01 -2.1326E-01  2.5887E+01
                               -4.0390E-01  1.5005E+01 -4.8323E+01  2.5147E+03

           1    1.27002E+01     4.4040E-01 -3.0166E-03 -3.7079E+00  3.7339E+00
ac ID =   33377                -1.3284E+00  2.6640E+01 -9.0068E-02  2.6673E+01
                               -4.0616E-01  1.5146E+01 -4.8316E+01  2.5147E+03

           1    1.28002E+01     4.5653E-01  1.6280E-03 -3.7580E+00  3.7856E+00
ac ID =   33377                -9.4108E-01  2.7722E+01  2.3070E-02  2.7738E+01
                               -4.0860E-01  1.5286E+01 -4.8306E+01  2.5147E+03

           1    1.29002E+01     4.5899E-01 -1.3601E-02 -3.8419E+00  3.8692E+00
ac ID =   33377                -8.1254E-01  2.8578E+01 -2.0528E-01  2.8590E+01
                               -4.1102E-01  1.5426E+01 -4.8291E+01  2.5147E+03

           1    1.30002E+01     4.4463E-01 -3.9109E-03 -3.8561E+00  3.8817E+00
ac ID =   33377                -9.1977E-01  2.8571E+01 -2.4450E-01  2.8587E+01
                               -4.1360E-01  1.5566E+01 -4.8273E+01  2.5147E+03

           1    1.31002E+01     4.6909E-01 -1.0582E-02 -3.8779E+00  3.9062E+00
ac ID =   33377                -1.0553E+00  2.9443E+01 -3.1898E-01  2.9463E+01
                               -4.1627E-01  1.5706E+01 -4.8250E+01  2.5147E+03

           1    1.32002E+01     4.5755E-01 -7.0467E-05 -3.9263E+00  3.9529E+00
ac ID =   33377                -1.1472E+00  2.9879E+01 -7.2546E-01  2.9910E+01
                               -4.1903E-01  1.5844E+01 -4.8223E+01  2.5147E+03

           1    1.33002E+01     4.7083E-01 -4.3152E-03 -3.9650E+00  3.9928E+00
ac ID =   33377                -1.2069E+00  3.0148E+01 -7.4383E-01  3.0181E+01
                               -4.2183E-01  1.5983E+01 -4.8191E+01  2.5147E+03

           1    1.34002E+01     4.8740E-01 -1.1764E-03 -3.9820E+00  4.0117E+00
ac ID =   33377                -1.3546E+00  3.1104E+01 -4.3721E-01  3.1137E+01
                               -4.2477E-01  1.6120E+01 -4.8155E+01  2.5147E+03

           1    1.35001E+01     5.0348E-01 -8.9393E-03 -4.0217E+00  4.0531E+00
ac ID =   33377                -1.1041E+00  3.1666E+01 -5.4900E-01  3.1690E+01
                               -4.2780E-01  1.6257E+01 -4.8115E+01  2.5147E+03

           1    1.36001E+01     4.9211E-01  5.5164E-03 -4.0208E+00  4.0508E+00
ac ID =   33377                -1.2726E+00  3.2114E+01 -2.5195E-01  3.2140E+01
                               -4.3089E-01  1.6393E+01 -4.8069E+01  2.5147E+03

           1    1.37001E+01     4.9503E-01 -8.1281E-03 -4.0351E+00  4.0654E+00
ac ID =   33377                -6.5418E-01  3.2477E+01 -3.1905E-01  3.2485E+01
                               -4.3408E-01  1.6527E+01 -4.8019E+01  2.5147E+03

           1    1.38001E+01     5.0420E-01  3.6256E-03 -4.0550E+00  4.0862E+00
ac ID =   33377                -9.3353E-01  3.3387E+01 -6.0358E-01  3.3406E+01
                               -4.3727E-01  1.6661E+01 -4.7965E+01  2.5147E+03

           1    1.39001E+01     5.0497E-01 -1.5639E-02 -4.0230E+00  4.0546E+00
ac ID =   33377                -8.9148E-01  3.3169E+01 -4.0512E-01  3.3183E+01
                               -4.4051E-01  1.6794E+01 -4.7906E+01  2.5147E+03

           1    1.40001E+01     5.2515E-01 -7.0584E-03 -4.0359E+00  4.0699E+00
ac ID =   33377                -9.5459E-01  3.3823E+01 -9.8704E-02  3.3837E+01
                               -4.4385E-01  1.6926E+01 -4.7842E+01  2.5147E+03

           1    1.41001E+01     5.2065E-01 -9.9679E-04 -4.0115E+00  4.0452E+00
ac ID =   33377                -1.0474E+00  3.4101E+01  5.8603E-02  3.4117E+01
                               -4.4721E-01  1.7057E+01 -4.7773E+01  2.5147E+03

           1    1.42001E+01     5.0911E-01 -2.4303E-03 -3.9619E+00  3.9944E+00
ac ID =   33377                -1.0796E+00  3.4000E+01  5.4605E-02  3.4017E+01
                               -4.5061E-01  1.7187E+01 -4.7700E+01  2.5147E+03

           1    1.43001E+01     5.3350E-01 -1.6530E-02 -3.9428E+00  3.9787E+00
ac ID =   33377                -1.0827E+00  3.4649E+01 -3.0036E-01  3.4667E+01
                               -4.5408E-01  1.7315E+01 -4.7623E+01  2.5147E+03

           1    1.44001E+01     5.3385E-01 -1.6598E-03 -3.8938E+00  3.9302E+00
ac ID =   33377                -8.3500E-01  3.4522E+01 -2.1069E-02  3.4532E+01
                               -4.5762E-01  1.7443E+01 -4.7541E+01  2.5147E+03

           1    1.45000E+01     5.0244E-01 -1.3345E-02 -3.8559E+00  3.8885E+00
ac ID =   33377                -6.9737E-01  3.4798E+01  1.5368E-01  3.4805E+01
                               -4.6119E-01  1.7570E+01 -4.7454E+01  2.5147E+03

           1    1.46000E+01     5.1707E-01 -3.4832E-03 -3.8480E+00  3.8826E+00
ac ID =   33377                -6.7160E-01  3.5247E+01 -3.1603E-01  3.5255E+01
                               -4.6481E-01  1.7695E+01 -4.7363E+01  2.5147E+03

           1    1.47000E+01     5.0565E-01 -9.4895E-03 -3.7614E+00  3.7953E+00
ac ID =   33377                -4.8297E-01  3.5473E+01 -6.1203E-01  3.5481E+01
                               -4.6847E-01  1.7819E+01 -4.7268E+01  2.5147E+03

           1    1.48005E+01     5.2481E-01 -2.1242E-02 -3.7449E+00  3.7815E+00
ac ID =   33377                -2.9888E-01  3.5609E+01 -5.8412E-01  3.5615E+01
                               -4.7215E-01  1.7943E+01 -4.7168E+01  2.5147E+03

           1    1.49005E+01     5.0508E-01  6.6392E-03 -3.6923E+00  3.7267E+00
ac ID =   33377                -7.8664E-01  3.5860E+01 -1.2401E-01  3.5869E+01
                               -4.7590E-01  1.8066E+01 -4.7065E+01  2.5147E+03

           1    1.50005E+01     5.2790E-01 -7.8495E-03 -3.5951E+00  3.6337E+00
ac ID =   33377                -5.8655E-01  3.5918E+01  1.3391E-01  3.5923E+01
                               -4.7965E-01  1.8187E+01 -4.6958E+01  2.5147E+03

           1    1.51005E+01     5.3259E-01 -1.2968E-02 -3.5335E+00  3.5735E+00
ac ID =   33377                -5.9416E-01  3.6069E+01 -7.5898E-01  3.6082E+01
                               -4.8340E-01  1.8308E+01 -4.6847E+01  2.5147E+03

           1    1.52005E+01     5.1059E-01 -2.0840E-02 -3.4593E+00  3.4969E+00
ac ID =   33377                -5.1915E-01  3.5619E+01 -8.7654E-01  3.5634E+01
                               -4.8720E-01  1.8427E+01 -4.6732E+01  2.5147E+03

           1    1.53005E+01     5.1713E-01  1.1649E-02 -3.4125E+00  3.4515E+00
ac ID =   33377                -9.1001E-01  3.5819E+01 -3.0529E-01  3.5832E+01
                               -4.9108E-01  1.8547E+01 -4.6614E+01  2.5147E+03

           1    1.54005E+01     5.1211E-01 -1.6309E-02 -3.3207E+00  3.3600E+00
ac ID =   33377                -3.3293E-01  3.5462E+01  2.8315E-02  3.5463E+01
                               -4.9489E-01  1.8665E+01 -4.6492E+01  2.5147E+03

           1    1.55004E+01     4.9940E-01 -1.2956E-02 -3.2277E+00  3.2661E+00
ac ID =   33377                -1.6471E-01  3.5056E+01  3.9804E-02  3.5057E+01
                               -4.9875E-01  1.8783E+01 -4.6368E+01  2.5147E+03

           1    1.56004E+01     5.0102E-01 -1.9728E-02 -3.1864E+00  3.2256E+00
ac ID =   33377                -3.0161E-01  3.5139E+01 -3.4145E-01  3.5142E+01
                               -5.0261E-01  1.8900E+01 -4.6240E+01  2.5147E+03

           1    1.57004E+01     5.1274E-01  3.3349E-03 -3.0902E+00  3.1325E+00
ac ID =   33377                -6.2674E-01  3.4921E+01 -2.3572E-01  3.4927E+01
                               -5.0648E-01  1.9017E+01 -4.6110E+01  2.5147E+03

           1    1.58004E+01     5.3456E-01 -1.3191E-02 -2.9829E+00  3.0305E+00
ac ID =   33377                -2.7648E-01  3.5368E+01  4.9589E-02  3.5369E+01
                               -5.1034E-01  1.9134E+01 -4.5977E+01  2.5147E+03

           1    1.59004E+01     5.0233E-01 -1.6421E-02 -2.8784E+00  2.9219E+00
ac ID =   33377                -3.6814E-01  3.4787E+01  4.9928E-02  3.4789E+01
                               -5.1419E-01  1.9251E+01 -4.5842E+01  2.5147E+03

           1    1.60004E+01     5.0600E-01  5.7107E-03 -2.7812E+00  2.8268E+00
ac ID =   33377                -8.1544E-01  3.4530E+01 -3.2006E-01  3.4541E+01
                               -5.1809E-01  1.9367E+01 -4.5705E+01  2.5147E+03

           1    1.61004E+01     5.2011E-01 -8.2613E-03 -2.6980E+00  2.7477E+00
ac ID =   33377                -6.0014E-01  3.4689E+01 -1.3612E-01  3.4694E+01
                               -5.2198E-01  1.9483E+01 -4.5565E+01  2.5147E+03

           1    1.62004E+01     4.9387E-01 -3.0697E-03 -2.6241E+00  2.6701E+00
ac ID =   33377                -3.0036E-01  3.4171E+01 -1.3950E-01  3.4173E+01
                               -5.2590E-01  1.9600E+01 -4.5425E+01  2.5147E+03

           1    1.63004E+01     4.6926E-01  1.0279E-02 -2.5052E+00  2.5488E+00
ac ID =   33377                -1.0110E+00  3.3883E+01 -5.3322E-01  3.3902E+01
                               -5.2976E-01  1.9716E+01 -4.5282E+01  2.5147E+03

