 LSTC 50th% Full_FE H-III Dummy (Beta Version, February 17, 2019)        
                    ls-dyna smp s R16 R16.0_619_d222963 date 03/18/2025

{BEGIN LEGEND}
 Entity #        Title
    22626                                                                                     
{END LEGEND}




 n o d a l   p r i n t   o u t   f o r   t i m e  s t e p       1                              ( at time 0.0000000E+00 )

 nodal point  x-disp     y-disp      z-disp      x-vel       y-vel       z-vel      x-accl      y-accl      z-accl      x-coor      y-coor      z-coor
    22626  0.00000E+00 0.00000E+00 0.00000E+00 0.00000E+00 0.00000E+00 0.00000E+00 0.00000E+00 0.00000E+00 0.00000E+00 4.65938E+00-2.81908E+01-4.49817E+01



 n o d a l   p r i n t   o u t   f o r   t i m e  s t e p       1                              ( at time 0.0000000E+00 )

 nodal point  x-rot      y-rot       z-rot       x-rot vel   y-rot vel   z-rot vel   x-rot acc   y-rot acc   z-rot acc
    22626  0.00000E+00 0.00000E+00 0.00000E+00 0.00000E+00 0.00000E+00 0.00000E+00 0.00000E+00 0.00000E+00 0.00000E+00



 n o d a l   p r i n t   o u t   f o r   t i m e  s t e p     201                              ( at time 9.9989993E-02 )

 nodal point  x-disp     y-disp      z-disp      x-vel       y-vel       z-vel      x-accl      y-accl      z-accl      x-coor      y-coor      z-coor
    22626  2.73585E-07 1.73664E-06-5.34276E-05 4.19765E-05 2.55585E-04-1.46815E-03 4.19807E-04 2.55610E-03-1.46830E-02 4.65938E+00-2.81908E+01-4.49818E+01



 n o d a l   p r i n t   o u t   f o r   t i m e  s t e p     201                              ( at time 9.9989993E-02 )

 nodal point  x-rot      y-rot       z-rot       x-rot vel   y-rot vel   z-rot vel   x-rot acc   y-rot acc   z-rot acc
    22626 -5.98899E-08-8.38532E-09-5.45973E-09-5.86836E-06-9.70030E-07-9.27186E-07-5.86894E-05-9.70127E-06-9.27279E-06



 n o d a l   p r i n t   o u t   f o r   t i m e  s t e p     401                              ( at time 1.9997999E-01 )

 nodal point  x-disp     y-disp      z-disp      x-vel       y-vel       z-vel      x-accl      y-accl      z-accl      x-coor      y-coor      z-coor
    22626  1.73046E-05 3.61734E-04-6.67570E-04 3.06678E-05 7.81076E-03-1.21536E-02-1.13098E-04 7.55593E-02-1.06865E-01 4.65939E+00-2.81905E+01-4.49824E+01



 n o d a l   p r i n t   o u t   f o r   t i m e  s t e p     401                              ( at time 1.9997999E-01 )

 nodal point  x-rot      y-rot       z-rot       x-rot vel   y-rot vel   z-rot vel   x-rot acc   y-rot acc   z-rot acc
    22626 -2.81961E-06-3.37079E-07-3.34505E-07-3.94060E-05-1.77052E-06-2.29854E-06-3.35410E-04-8.00566E-06-1.37149E-05



 n o d a l   p r i n t   o u t   f o r   t i m e  s t e p     601                              ( at time 2.9996998E-01 )

 nodal point  x-disp     y-disp      z-disp      x-vel       y-vel       z-vel      x-accl      y-accl      z-accl      x-coor      y-coor      z-coor
    22626  2.73598E-05 1.23980E-03-2.33844E-03 4.19407E-04 8.43987E-03-1.92579E-02 3.88778E-03 6.29172E-03-7.10502E-02 4.65940E+00-2.81896E+01-4.49841E+01



 n o d a l   p r i n t   o u t   f o r   t i m e  s t e p     601                              ( at time 2.9996998E-01 )

 nodal point  x-rot      y-rot       z-rot       x-rot vel   y-rot vel   z-rot vel   x-rot acc   y-rot acc   z-rot acc
    22626 -5.38200E-06-3.90004E-07-6.42023E-07-1.52694E-05-5.48414E-06-6.68333E-06 2.41391E-04-3.71399E-05-4.38523E-05



 n o d a l   p r i n t   o u t   f o r   t i m e  s t e p     801                              ( at time 3.9995997E-01 )

 nodal point  x-disp     y-disp      z-disp      x-vel       y-vel       z-vel      x-accl      y-accl      z-accl      x-coor      y-coor      z-coor
    22626  2.59922E-05 2.15752E-03-4.28258E-03-3.18418E-04 1.06494E-02-2.10791E-02-7.37899E-03 2.20973E-02-1.82139E-02 4.65940E+00-2.81887E+01-4.49860E+01



 n o d a l   p r i n t   o u t   f o r   t i m e  s t e p     801                              ( at time 3.9995997E-01 )

 nodal point  x-rot      y-rot       z-rot       x-rot vel   y-rot vel   z-rot vel   x-rot acc   y-rot acc   z-rot acc
    22626 -7.55884E-06-1.24924E-06-9.80804E-07-4.36929E-05-6.21728E-06-1.51578E-06-2.84264E-04-7.33217E-06 5.16806E-05



 n o d a l   p r i n t   o u t   f o r   t i m e  s t e p    1001                              ( at time 4.9994997E-01 )

 nodal point  x-disp     y-disp      z-disp      x-vel       y-vel       z-vel      x-accl      y-accl      z-accl      x-coor      y-coor      z-coor
    22626  2.98994E-06 3.42030E-03-6.74306E-03-2.50740E-04 1.40193E-02-2.86734E-02 6.76847E-04 3.37029E-02-7.59510E-02 4.65938E+00-2.81874E+01-4.49885E+01



 n o d a l   p r i n t   o u t   f o r   t i m e  s t e p    1001                              ( at time 4.9994997E-01 )

 nodal point  x-rot      y-rot       z-rot       x-rot vel   y-rot vel   z-rot vel   x-rot acc   y-rot acc   z-rot acc
    22626 -1.32824E-05-1.16219E-06-9.39971E-07-8.12979E-05 3.18471E-06 4.26600E-06-3.76087E-04 9.40293E-05 5.78237E-05



 n o d a l   p r i n t   o u t   f o r   t i m e  s t e p    1201                              ( at time 5.9993996E-01 )

 nodal point  x-disp     y-disp      z-disp      x-vel       y-vel       z-vel      x-accl      y-accl      z-accl      x-coor      y-coor      z-coor
    22626 -2.86569E-06 4.97596E-03-9.70913E-03 3.20173E-05 1.63970E-02-3.09453E-02 2.82786E-03 2.37791E-02-2.27213E-02 4.65937E+00-2.81859E+01-4.49914E+01



 n o d a l   p r i n t   o u t   f o r   t i m e  s t e p    1201                              ( at time 5.9993996E-01 )

 nodal point  x-rot      y-rot       z-rot       x-rot vel   y-rot vel   z-rot vel   x-rot acc   y-rot acc   z-rot acc
    22626 -1.95969E-05-8.79151E-07-9.27418E-07-5.36305E-05 3.91879E-06-1.84008E-06 2.76702E-04 7.34155E-06-6.10669E-05



 n o d a l   p r i n t   o u t   f o r   t i m e  s t e p    1401                              ( at time 6.9992995E-01 )

 nodal point  x-disp     y-disp      z-disp      x-vel       y-vel       z-vel      x-accl      y-accl      z-accl      x-coor      y-coor      z-coor
    22626 -5.37915E-05 6.78189E-03-1.31614E-02-4.92957E-04 1.93250E-02-3.89299E-02-5.25027E-03 2.92825E-02-7.98542E-02 4.65932E+00-2.81840E+01-4.49949E+01



 n o d a l   p r i n t   o u t   f o r   t i m e  s t e p    1401                              ( at time 6.9992995E-01 )

 nodal point  x-rot      y-rot       z-rot       x-rot vel   y-rot vel   z-rot vel   x-rot acc   y-rot acc   z-rot acc
    22626 -2.48917E-05-8.66404E-07-5.97201E-07-6.36969E-05 8.61920E-07 3.86528E-06-1.00674E-04-3.05717E-05 5.70592E-05



 n o d a l   p r i n t   o u t   f o r   t i m e  s t e p    1601                              ( at time 7.9991994E-01 )

 nodal point  x-disp     y-disp      z-disp      x-vel       y-vel       z-vel      x-accl      y-accl      z-accl      x-coor      y-coor      z-coor
    22626 -8.42510E-05 8.87283E-03-1.74446E-02-5.15944E-04 2.15744E-02-4.49745E-02-2.29888E-04 2.24966E-02-6.04516E-02 4.65929E+00-2.81820E+01-4.49992E+01



 n o d a l   p r i n t   o u t   f o r   t i m e  s t e p    1601                              ( at time 7.9991994E-01 )

 nodal point  x-rot      y-rot       z-rot       x-rot vel   y-rot vel   z-rot vel   x-rot acc   y-rot acc   z-rot acc
    22626 -3.21177E-05-7.93577E-07-4.49637E-07-7.96166E-05-4.32509E-06 2.06435E-06-1.59213E-04-5.18753E-05-1.80111E-05



 n o d a l   p r i n t   o u t   f o r   t i m e  s t e p    1801                              ( at time 8.9990994E-01 )

 nodal point  x-disp     y-disp      z-disp      x-vel       y-vel       z-vel      x-accl      y-accl      z-accl      x-coor      y-coor      z-coor
    22626 -1.22820E-04 1.10724E-02-2.19558E-02-3.11797E-04 2.32710E-02-4.54266E-02 2.04167E-03 1.69678E-02-4.52102E-03 4.65925E+00-2.81798E+01-4.50037E+01



 n o d a l   p r i n t   o u t   f o r   t i m e  s t e p    1801                              ( at time 8.9990994E-01 )

 nodal point  x-rot      y-rot       z-rot       x-rot vel   y-rot vel   z-rot vel   x-rot acc   y-rot acc   z-rot acc
    22626 -3.90771E-05-8.04040E-07-3.95312E-07-6.56192E-05 2.84135E-06-2.40259E-07 1.39988E-04 7.16716E-05-2.30484E-05



 n o d a l   p r i n t   o u t   f o r   t i m e  s t e p    2001                              ( at time 9.9989993E-01 )

 nodal point  x-disp     y-disp      z-disp      x-vel       y-vel       z-vel      x-accl      y-accl      z-accl      x-coor      y-coor      z-coor
    22626 -1.59920E-04 1.35205E-02-2.66775E-02-4.22547E-05 2.55462E-02-4.98253E-02 2.69569E-03 2.27541E-02-4.39916E-02 4.65921E+00-2.81773E+01-4.50084E+01



 n o d a l   p r i n t   o u t   f o r   t i m e  s t e p    2001                              ( at time 9.9989993E-01 )

 nodal point  x-rot      y-rot       z-rot       x-rot vel   y-rot vel   z-rot vel   x-rot acc   y-rot acc   z-rot acc
    22626 -4.62034E-05-6.46763E-07-2.83721E-07-8.48645E-05 2.52652E-06-2.70911E-06-1.92472E-04-3.14859E-06-2.46910E-05



 n o d a l   p r i n t   o u t   f o r   t i m e  s t e p    2201                              ( at time 1.0998899E+00 )

 nodal point  x-disp     y-disp      z-disp      x-vel       y-vel       z-vel      x-accl      y-accl      z-accl      x-coor      y-coor      z-coor
    22626 -1.69874E-04 1.61610E-02-3.19816E-02-3.69229E-04 2.77645E-02-5.58362E-02-3.27007E-03 2.21850E-02-6.01148E-02 4.65920E+00-2.81747E+01-4.50137E+01



 n o d a l   p r i n t   o u t   f o r   t i m e  s t e p    2201                              ( at time 1.0998899E+00 )

 nodal point  x-rot      y-rot       z-rot       x-rot vel   y-rot vel   z-rot vel   x-rot acc   y-rot acc   z-rot acc
    22626 -5.49329E-05-5.99358E-07-5.32573E-07-7.74613E-05-5.86638E-06-1.22442E-06 7.40401E-05-8.39374E-05 1.48484E-05



 n o d a l   p r i n t   o u t   f o r   t i m e  s t e p    2401                              ( at time 1.1998799E+00 )

 nodal point  x-disp     y-disp      z-disp      x-vel       y-vel       z-vel      x-accl      y-accl      z-accl      x-coor      y-coor      z-coor
    22626 -2.01979E-04 1.89918E-02-3.78301E-02-2.17382E-04 2.91587E-02-6.08756E-02 1.51862E-03 1.39441E-02-5.03994E-02 4.65917E+00-2.81718E+01-4.50196E+01



 n o d a l   p r i n t   o u t   f o r   t i m e  s t e p    2401                              ( at time 1.1998799E+00 )

 nodal point  x-rot      y-rot       z-rot       x-rot vel   y-rot vel   z-rot vel   x-rot acc   y-rot acc   z-rot acc
    22626 -6.22201E-05-1.00437E-06-7.00744E-07-7.29817E-05-5.00614E-06-2.44404E-06 4.47996E-05 8.60326E-06-1.21975E-05



 n o d a l   p r i n t   o u t   f o r   t i m e  s t e p    2601                              ( at time 1.2998699E+00 )

 nodal point  x-disp     y-disp      z-disp      x-vel       y-vel       z-vel      x-accl      y-accl      z-accl      x-coor      y-coor      z-coor
    22626 -2.38455E-04 2.20291E-02-4.40664E-02-2.76545E-04 3.14691E-02-6.36256E-02-5.91689E-04 2.31059E-02-2.75030E-02 4.65914E+00-2.81688E+01-4.50258E+01



 n o d a l   p r i n t   o u t   f o r   t i m e  s t e p    2601                              ( at time 1.2998699E+00 )

 nodal point  x-rot      y-rot       z-rot       x-rot vel   y-rot vel   z-rot vel   x-rot acc   y-rot acc   z-rot acc
    22626 -7.02208E-05-1.29661E-06-8.82232E-07-9.80091E-05 2.97219E-06-5.31789E-07-2.50299E-04 7.97913E-05 1.91245E-05



 n o d a l   p r i n t   o u t   f o r   t i m e  s t e p    2801                              ( at time 1.3998599E+00 )

 nodal point  x-disp     y-disp      z-disp      x-vel       y-vel       z-vel      x-accl      y-accl      z-accl      x-coor      y-coor      z-coor
    22626 -2.70057E-04 2.52888E-02-5.05253E-02-4.86346E-04 3.34548E-02-6.62044E-02-2.09822E-03 1.98590E-02-2.57907E-02 4.65910E+00-2.81655E+01-4.50322E+01



 n o d a l   p r i n t   o u t   f o r   t i m e  s t e p    2801                              ( at time 1.3998599E+00 )

 nodal point  x-rot      y-rot       z-rot       x-rot vel   y-rot vel   z-rot vel   x-rot acc   y-rot acc   z-rot acc
    22626 -8.03830E-05-8.27378E-07-8.84952E-07-1.03114E-04 3.20544E-06 2.39951E-06-5.10561E-05 2.33273E-06 2.93159E-05



 n o d a l   p r i n t   o u t   f o r   t i m e  s t e p    3001                              ( at time 1.4998499E+00 )

 nodal point  x-disp     y-disp      z-disp      x-vel       y-vel       z-vel      x-accl      y-accl      z-accl      x-coor      y-coor      z-coor
    22626 -3.20130E-04 2.87900E-02-5.74895E-02-5.37692E-04 3.63940E-02-7.34783E-02-5.13506E-04 2.93955E-02-7.27459E-02 4.65905E+00-2.81620E+01-4.50392E+01



 n o d a l   p r i n t   o u t   f o r   t i m e  s t e p    3001                              ( at time 1.4998499E+00 )

 nodal point  x-rot      y-rot       z-rot       x-rot vel   y-rot vel   z-rot vel   x-rot acc   y-rot acc   z-rot acc
    22626 -9.01369E-05-4.78875E-07-7.36860E-07-9.15820E-05 2.86322E-06-4.25044E-07 1.15334E-04-3.42254E-06-2.82484E-05



 n o d a l   p r i n t   o u t   f o r   t i m e  s t e p    3201                              ( at time 1.5998399E+00 )

 nodal point  x-disp     y-disp      z-disp      x-vel       y-vel       z-vel      x-accl      y-accl      z-accl      x-coor      y-coor      z-coor
    22626 -3.90696E-04 3.26062E-02-6.51494E-02-6.47882E-04 3.98087E-02-7.89495E-02-1.10201E-03 3.41496E-02-5.47174E-02 4.65898E+00-2.81582E+01-4.50469E+01



 n o d a l   p r i n t   o u t   f o r   t i m e  s t e p    3201                              ( at time 1.5998399E+00 )

 nodal point  x-rot      y-rot       z-rot       x-rot vel   y-rot vel   z-rot vel   x-rot acc   y-rot acc   z-rot acc
    22626 -9.89669E-05-1.73010E-07-4.92434E-07-9.50889E-05 2.16703E-06 3.28831E-06-3.50719E-05-6.96268E-06 3.71373E-05



 n o d a l   p r i n t   o u t   f o r   t i m e  s t e p    3401                              ( at time 1.6998299E+00 )

 nodal point  x-disp     y-disp      z-disp      x-vel       y-vel       z-vel      x-accl      y-accl      z-accl      x-coor      y-coor      z-coor
    22626 -4.62109E-04 3.66937E-02-7.32042E-02-8.19055E-04 4.16886E-02-8.17161E-02-1.71190E-03 1.88018E-02-2.76687E-02 4.65891E+00-2.81541E+01-4.50549E+01



 n o d a l   p r i n t   o u t   f o r   t i m e  s t e p    3401                              ( at time 1.6998299E+00 )

 nodal point  x-rot      y-rot       z-rot       x-rot vel   y-rot vel   z-rot vel   x-rot acc   y-rot acc   z-rot acc
    22626 -1.09130E-04 3.69302E-07-2.64007E-07-1.04537E-04 7.19692E-06 3.96141E-06-9.44932E-05 5.03040E-05 6.73165E-06



 n o d a l   p r i n t   o u t   f o r   t i m e  s t e p    3601                              ( at time 1.7998199E+00 )

 nodal point  x-disp     y-disp      z-disp      x-vel       y-vel       z-vel      x-accl      y-accl      z-accl      x-coor      y-coor      z-coor
    22626 -5.34952E-04 4.09123E-02-8.14851E-02-6.35164E-04 4.30243E-02-8.37924E-02 1.83910E-03 1.33577E-02-2.07658E-02 4.65884E+00-2.81499E+01-4.50632E+01



 n o d a l   p r i n t   o u t   f o r   t i m e  s t e p    3601                              ( at time 1.7998199E+00 )

 nodal point  x-rot      y-rot       z-rot       x-rot vel   y-rot vel   z-rot vel   x-rot acc   y-rot acc   z-rot acc
    22626 -1.19850E-04 1.07802E-06-1.58314E-07-1.03281E-04 7.83960E-06-2.11033E-06 1.25672E-05 6.42744E-06-6.07236E-05



 n o d a l   p r i n t   o u t   f o r   t i m e  s t e p    3801                              ( at time 1.8998099E+00 )

 nodal point  x-disp     y-disp      z-disp      x-vel       y-vel       z-vel      x-accl      y-accl      z-accl      x-coor      y-coor      z-coor
    22626 -6.09645E-04 4.53791E-02-9.00463E-02-6.49462E-04 4.61176E-02-8.76997E-02-1.43000E-04 3.09361E-02-3.90761E-02 4.65877E+00-2.81455E+01-4.50718E+01



 n o d a l   p r i n t   o u t   f o r   t i m e  s t e p    3801                              ( at time 1.8998099E+00 )

 nodal point  x-rot      y-rot       z-rot       x-rot vel   y-rot vel   z-rot vel   x-rot acc   y-rot acc   z-rot acc
    22626 -1.29905E-04 1.99747E-06-8.29334E-08-1.01699E-04 6.51200E-06-1.69945E-06 1.58189E-05-1.32773E-05 4.10927E-06



 n o d a l   p r i n t   o u t   f o r   t i m e  s t e p    4001                              ( at time 1.9997999E+00 )

 nodal point  x-disp     y-disp      z-disp      x-vel       y-vel       z-vel      x-accl      y-accl      z-accl      x-coor      y-coor      z-coor
    22626 -6.75882E-04 5.00468E-02-9.90230E-02-7.15507E-04 4.74813E-02-9.16454E-02-6.60516E-04 1.36388E-02-3.94609E-02 4.65870E+00-2.81408E+01-4.50807E+01



 n o d a l   p r i n t   o u t   f o r   t i m e  s t e p    4001                              ( at time 1.9997999E+00 )

 nodal point  x-rot      y-rot       z-rot       x-rot vel   y-rot vel   z-rot vel   x-rot acc   y-rot acc   z-rot acc
    22626 -1.39881E-04 2.62670E-06-3.23480E-07-1.02962E-04 5.82800E-06-2.57280E-06-1.26327E-05-6.84075E-06-8.73441E-06



 n o d a l   p r i n t   o u t   f o r   t i m e  s t e p    4201                              ( at time 2.0997899E+00 )

 nodal point  x-disp     y-disp      z-disp      x-vel       y-vel       z-vel      x-accl      y-accl      z-accl      x-coor      y-coor      z-coor
    22626 -7.49025E-04 5.48530E-02-1.08284E-01-7.97097E-04 4.88299E-02-9.35823E-02-8.15979E-04 1.34870E-02-1.93709E-02 4.65863E+00-2.81360E+01-4.50900E+01



 n o d a l   p r i n t   o u t   f o r   t i m e  s t e p    4201                              ( at time 2.0997899E+00 )

 nodal point  x-rot      y-rot       z-rot       x-rot vel   y-rot vel   z-rot vel   x-rot acc   y-rot acc   z-rot acc
    22626 -1.49645E-04 3.18384E-06-6.75378E-07-9.14365E-05 6.74785E-06 1.08263E-06 1.15267E-04 9.19947E-06 3.65580E-05



 n o d a l   p r i n t   o u t   f o r   t i m e  s t e p    4401                              ( at time 2.1997798E+00 )

 nodal point  x-disp     y-disp      z-disp      x-vel       y-vel       z-vel      x-accl      y-accl      z-accl      x-coor      y-coor      z-coor
    22626 -8.27022E-04 5.98218E-02-1.17711E-01-7.40292E-04 5.02467E-02-9.49127E-02 5.68105E-04 1.41696E-02-1.33062E-02 4.65855E+00-2.81310E+01-4.50994E+01



 n o d a l   p r i n t   o u t   f o r   t i m e  s t e p    4401                              ( at time 2.1997798E+00 )

 nodal point  x-rot      y-rot       z-rot       x-rot vel   y-rot vel   z-rot vel   x-rot acc   y-rot acc   z-rot acc
    22626 -1.59363E-04 4.11104E-06-1.00415E-06-1.02766E-04 9.01303E-06-5.13419E-06-1.13311E-04 2.26540E-05-6.21745E-05



 n o d a l   p r i n t   o u t   f o r   t i m e  s t e p    4601                              ( at time 2.2997698E+00 )

 nodal point  x-disp     y-disp      z-disp      x-vel       y-vel       z-vel      x-accl      y-accl      z-accl      x-coor      y-coor      z-coor
    22626 -9.07258E-04 6.49055E-02-1.27260E-01-8.16725E-04 5.18727E-02-9.66716E-02-7.64404E-04 1.62617E-02-1.75902E-02 4.65847E+00-2.81259E+01-4.51090E+01



 n o d a l   p r i n t   o u t   f o r   t i m e  s t e p    4601                              ( at time 2.2997698E+00 )

 nodal point  x-rot      y-rot       z-rot       x-rot vel   y-rot vel   z-rot vel   x-rot acc   y-rot acc   z-rot acc
    22626 -1.70110E-04 5.38688E-06-1.36352E-06-1.05703E-04 1.40391E-05-5.73304E-06-2.93690E-05 5.02657E-05-5.98914E-06



 n o d a l   p r i n t   o u t   f o r   t i m e  s t e p    4801                              ( at time 2.3997598E+00 )

 nodal point  x-disp     y-disp      z-disp      x-vel       y-vel       z-vel      x-accl      y-accl      z-accl      x-coor      y-coor      z-coor
    22626 -1.00923E-03 7.02456E-02-1.37151E-01-1.04736E-03 5.47320E-02-1.01184E-01-2.30659E-03 2.85951E-02-4.51309E-02 4.65837E+00-2.81206E+01-4.51189E+01



 n o d a l   p r i n t   o u t   f o r   t i m e  s t e p    4801                              ( at time 2.3997598E+00 )

 nodal point  x-rot      y-rot       z-rot       x-rot vel   y-rot vel   z-rot vel   x-rot acc   y-rot acc   z-rot acc
    22626 -1.79741E-04 6.75376E-06-1.41747E-06-9.18419E-05 1.51570E-05-3.74483E-07 1.38625E-04 1.11799E-05 5.35910E-05



 n o d a l   p r i n t   o u t   f o r   t i m e  s t e p    5001                              ( at time 2.4997498E+00 )

 nodal point  x-disp     y-disp      z-disp      x-vel       y-vel       z-vel      x-accl      y-accl      z-accl      x-coor      y-coor      z-coor
    22626 -1.11951E-03 7.58715E-02-1.47431E-01-1.32570E-03 5.72675E-02-1.03660E-01-2.78370E-03 2.53583E-02-2.47560E-02 4.65826E+00-2.81150E+01-4.51292E+01



 n o d a l   p r i n t   o u t   f o r   t i m e  s t e p    5001                              ( at time 2.4997498E+00 )

 nodal point  x-rot      y-rot       z-rot       x-rot vel   y-rot vel   z-rot vel   x-rot acc   y-rot acc   z-rot acc
    22626 -1.88811E-04 8.39766E-06-1.79743E-06-8.15126E-05 1.97754E-05-4.00544E-07 1.03303E-04 4.61884E-05-2.60639E-07



 n o d a l   p r i n t   o u t   f o r   t i m e  s t e p    5201                              ( at time 2.5997398E+00 )

 nodal point  x-disp     y-disp      z-disp      x-vel       y-vel       z-vel      x-accl      y-accl      z-accl      x-coor      y-coor      z-coor
    22626 -1.24685E-03 8.16937E-02-1.57820E-01-1.39523E-03 5.91128E-02-1.03964E-01-6.95286E-04 1.84549E-02-3.04417E-03 4.65813E+00-2.81091E+01-4.51395E+01



 n o d a l   p r i n t   o u t   f o r   t i m e  s t e p    5201                              ( at time 2.5997398E+00 )

 nodal point  x-rot      y-rot       z-rot       x-rot vel   y-rot vel   z-rot vel   x-rot acc   y-rot acc   z-rot acc
    22626 -1.97171E-04 1.04595E-05-1.79406E-06-7.22594E-05 2.20827E-05 1.13145E-06 9.25419E-05 2.30753E-05 1.53215E-05



 n o d a l   p r i n t   o u t   f o r   t i m e  s t e p    5401                              ( at time 2.6997298E+00 )

 nodal point  x-disp     y-disp      z-disp      x-vel       y-vel       z-vel      x-accl      y-accl      z-accl      x-coor      y-coor      z-coor
    22626 -1.37582E-03 8.77015E-02-1.68258E-01-1.35543E-03 6.16683E-02-1.04784E-01 3.97949E-04 2.55567E-02-8.19995E-03 4.65800E+00-2.81031E+01-4.51500E+01



 n o d a l   p r i n t   o u t   f o r   t i m e  s t e p    5401                              ( at time 2.6997298E+00 )

 nodal point  x-rot      y-rot       z-rot       x-rot vel   y-rot vel   z-rot vel   x-rot acc   y-rot acc   z-rot acc
    22626 -2.05610E-04 1.28121E-05-1.99910E-06-8.67243E-05 2.38289E-05-1.22763E-06-1.44663E-04 1.74642E-05-2.35931E-05



 n o d a l   p r i n t   o u t   f o r   t i m e  s t e p    5601                              ( at time 2.7997198E+00 )

 nodal point  x-disp     y-disp      z-disp      x-vel       y-vel       z-vel      x-accl      y-accl      z-accl      x-coor      y-coor      z-coor
    22626 -1.50090E-03 9.40254E-02-1.78815E-01-1.16081E-03 6.49263E-02-1.06798E-01 1.94643E-03 3.25840E-02-2.01449E-02 4.65787E+00-2.80968E+01-4.51605E+01



 n o d a l   p r i n t   o u t   f o r   t i m e  s t e p    5601                              ( at time 2.7997198E+00 )

 nodal point  x-rot      y-rot       z-rot       x-rot vel   y-rot vel   z-rot vel   x-rot acc   y-rot acc   z-rot acc
    22626 -2.13295E-04 1.54242E-05-2.44745E-06-6.06495E-05 2.41728E-05-1.58361E-06 2.60774E-04 3.43940E-06-3.56016E-06



 n o d a l   p r i n t   o u t   f o r   t i m e  s t e p    5801                              ( at time 2.8997098E+00 )

 nodal point  x-disp     y-disp      z-disp      x-vel       y-vel       z-vel      x-accl      y-accl      z-accl      x-coor      y-coor      z-coor
    22626 -1.61923E-03 1.00701E-01-1.89664E-01-1.13590E-03 6.90579E-02-1.10041E-01 2.49153E-04 4.13195E-02-3.24361E-02 4.65776E+00-2.80901E+01-4.51714E+01



 n o d a l   p r i n t   o u t   f o r   t i m e  s t e p    5801                              ( at time 2.8997098E+00 )

 nodal point  x-rot      y-rot       z-rot       x-rot vel   y-rot vel   z-rot vel   x-rot acc   y-rot acc   z-rot acc
    22626 -2.18780E-04 1.79813E-05-2.77877E-06-5.65501E-05 2.51803E-05 3.54141E-06 4.09986E-05 1.00759E-05 5.12554E-05



 n o d a l   p r i n t   o u t   f o r   t i m e  s t e p    6001                              ( at time 2.9996998E+00 )

 nodal point  x-disp     y-disp      z-disp      x-vel       y-vel       z-vel      x-accl      y-accl      z-accl      x-coor      y-coor      z-coor
    22626 -1.74779E-03 1.07777E-01-2.00705E-01-1.11375E-03 7.32652E-02-1.10617E-01 2.21549E-04 4.20777E-02-5.75204E-03 4.65763E+00-2.80831E+01-4.51824E+01



 n o d a l   p r i n t   o u t   f o r   t i m e  s t e p    6001                              ( at time 2.9996998E+00 )

 nodal point  x-rot      y-rot       z-rot       x-rot vel   y-rot vel   z-rot vel   x-rot acc   y-rot acc   z-rot acc
    22626 -2.24906E-04 2.04613E-05-2.79585E-06-6.83030E-05 2.79083E-05-3.29342E-08-1.17541E-04 2.72824E-05-3.57470E-05



 n o d a l   p r i n t   o u t   f o r   t i m e  s t e p    6201                              ( at time 3.0996898E+00 )

 nodal point  x-disp     y-disp      z-disp      x-vel       y-vel       z-vel      x-accl      y-accl      z-accl      x-coor      y-coor      z-coor
    22626 -1.89067E-03 1.15346E-01-2.11754E-01-1.17666E-03 7.87768E-02-1.11148E-01-6.29249E-04 5.51213E-02-5.31586E-03 4.65748E+00-2.80755E+01-4.51935E+01



 n o d a l   p r i n t   o u t   f o r   t i m e  s t e p    6201                              ( at time 3.0996898E+00 )

 nodal point  x-rot      y-rot       z-rot       x-rot vel   y-rot vel   z-rot vel   x-rot acc   y-rot acc   z-rot acc
    22626 -2.31256E-04 2.31948E-05-1.35322E-06-7.43002E-05 2.50257E-05 1.34783E-05-5.99779E-05-2.88286E-05 1.35126E-04



 n o d a l   p r i n t   o u t   f o r   t i m e  s t e p    6401                              ( at time 3.1996798E+00 )

 nodal point  x-disp     y-disp      z-disp      x-vel       y-vel       z-vel      x-accl      y-accl      z-accl      x-coor      y-coor      z-coor
    22626 -2.02944E-03 1.23535E-01-2.23012E-01-1.49613E-03 8.55060E-02-1.14281E-01-3.19496E-03 6.72987E-02-3.13368E-02 4.65735E+00-2.80673E+01-4.52047E+01



 n o d a l   p r i n t   o u t   f o r   t i m e  s t e p    6401                              ( at time 3.1996798E+00 )

 nodal point  x-rot      y-rot       z-rot       x-rot vel   y-rot vel   z-rot vel   x-rot acc   y-rot acc   z-rot acc
    22626 -2.38379E-04 2.60630E-05 9.09440E-07-8.38534E-05 3.08780E-05 2.01984E-05-9.55411E-05 5.85286E-05 6.72078E-05



 n o d a l   p r i n t   o u t   f o r   t i m e  s t e p    6601                              ( at time 3.2996698E+00 )

 nodal point  x-disp     y-disp      z-disp      x-vel       y-vel       z-vel      x-accl      y-accl      z-accl      x-coor      y-coor      z-coor
    22626 -2.22169E-03 1.32455E-01-2.34621E-01-1.29020E-03 9.34123E-02-1.17251E-01 2.05950E-03 7.90709E-02-2.96973E-02 4.65715E+00-2.80584E+01-4.52163E+01



 n o d a l   p r i n t   o u t   f o r   t i m e  s t e p    6601                              ( at time 3.2996698E+00 )

 nodal point  x-rot      y-rot       z-rot       x-rot vel   y-rot vel   z-rot vel   x-rot acc   y-rot acc   z-rot acc
    22626 -2.47322E-04 2.89371E-05 4.29576E-06-1.06061E-04 3.97545E-05 3.15387E-05-2.22102E-04 8.87744E-05 1.13414E-04



 n o d a l   p r i n t   o u t   f o r   t i m e  s t e p    6801                              ( at time 3.3996598E+00 )

 nodal point  x-disp     y-disp      z-disp      x-vel       y-vel       z-vel      x-accl      y-accl      z-accl      x-coor      y-coor      z-coor
    22626 -2.42774E-03 1.42161E-01-2.46422E-01-2.25297E-03 1.01497E-01-1.18459E-01-9.62868E-03 8.08600E-02-1.20858E-02 4.65695E+00-2.80487E+01-4.52281E+01



 n o d a l   p r i n t   o u t   f o r   t i m e  s t e p    6801                              ( at time 3.3996598E+00 )

 nodal point  x-rot      y-rot       z-rot       x-rot vel   y-rot vel   z-rot vel   x-rot acc   y-rot acc   z-rot acc
    22626 -2.58411E-04 3.16985E-05 9.28909E-06-1.25943E-04 3.11031E-05 7.33221E-05-1.98835E-04-8.65232E-05 4.17875E-04



 n o d a l   p r i n t   o u t   f o r   t i m e  s t e p    7001                              ( at time 3.4996498E+00 )

 nodal point  x-disp     y-disp      z-disp      x-vel       y-vel       z-vel      x-accl      y-accl      z-accl      x-coor      y-coor      z-coor
    22626 -2.61695E-03 1.52701E-01-2.58235E-01-3.02470E-03 1.09410E-01-1.17662E-01-7.71804E-03 7.91304E-02 7.97315E-03 4.65676E+00-2.80381E+01-4.52400E+01



 n o d a l   p r i n t   o u t   f o r   t i m e  s t e p    7001                              ( at time 3.4996498E+00 )

 nodal point  x-rot      y-rot       z-rot       x-rot vel   y-rot vel   z-rot vel   x-rot acc   y-rot acc   z-rot acc
    22626 -2.72008E-04 3.46728E-05 1.62634E-05-1.54686E-04 2.54428E-05 9.88233E-05-2.87457E-04-5.66081E-05 2.55038E-04



 n o d a l   p r i n t   o u t   f o r   t i m e  s t e p    7201                              ( at time 3.5996397E+00 )

 nodal point  x-disp     y-disp      z-disp      x-vel       y-vel       z-vel      x-accl      y-accl      z-accl      x-coor      y-coor      z-coor
    22626 -2.81095E-03 1.64112E-01-2.69941E-01-2.50120E-03 1.18640E-01-1.16331E-01 5.23552E-03 9.23143E-02 1.33120E-02 4.65656E+00-2.80267E+01-4.52517E+01



 n o d a l   p r i n t   o u t   f o r   t i m e  s t e p    7201                              ( at time 3.5996397E+00 )

 nodal point  x-rot      y-rot       z-rot       x-rot vel   y-rot vel   z-rot vel   x-rot acc   y-rot acc   z-rot acc
    22626 -2.88497E-04 3.79108E-05 2.55350E-05-1.71916E-04 2.46066E-05 1.16241E-04-1.72321E-04-8.36292E-06 1.74194E-04



 n o d a l   p r i n t   o u t   f o r   t i m e  s t e p    7401                              ( at time 3.6996297E+00 )

 nodal point  x-disp     y-disp      z-disp      x-vel       y-vel       z-vel      x-accl      y-accl      z-accl      x-coor      y-coor      z-coor
    22626 -3.02062E-03 1.76455E-01-2.81652E-01-3.10458E-03 1.27965E-01-1.16771E-01-6.03445E-03 9.32543E-02-4.39471E-03 4.65635E+00-2.80144E+01-4.52634E+01



 n o d a l   p r i n t   o u t   f o r   t i m e  s t e p    7401                              ( at time 3.6996297E+00 )

 nodal point  x-rot      y-rot       z-rot       x-rot vel   y-rot vel   z-rot vel   x-rot acc   y-rot acc   z-rot acc
    22626 -3.09671E-04 4.05942E-05 3.75290E-05-1.98986E-04 1.86570E-05 1.47504E-04-2.70724E-04-5.95024E-05 3.12661E-04



 n o d a l   p r i n t   o u t   f o r   t i m e  s t e p    7601                              ( at time 3.7996197E+00 )

 nodal point  x-disp     y-disp      z-disp      x-vel       y-vel       z-vel      x-accl      y-accl      z-accl      x-coor      y-coor      z-coor
    22626 -3.20327E-03 1.89751E-01-2.93369E-01-1.20396E-03 1.37680E-01-1.16879E-01 1.90082E-02 9.71670E-02-1.08275E-03 4.65617E+00-2.80011E+01-4.52751E+01



 n o d a l   p r i n t   o u t   f o r   t i m e  s t e p    7601                              ( at time 3.7996197E+00 )

 nodal point  x-rot      y-rot       z-rot       x-rot vel   y-rot vel   z-rot vel   x-rot acc   y-rot acc   z-rot acc
    22626 -3.35147E-04 4.24571E-05 4.94765E-05-2.59063E-04 1.51034E-05 9.71866E-05-6.00832E-04-3.55393E-05-5.03225E-04



 n o d a l   p r i n t   o u t   f o r   t i m e  s t e p    7801                              ( at time 3.8996097E+00 )

 nodal point  x-disp     y-disp      z-disp      x-vel       y-vel       z-vel      x-accl      y-accl      z-accl      x-coor      y-coor      z-coor
    22626 -3.34693E-03 2.04008E-01-3.04852E-01-5.72410E-04 1.48852E-01-1.15201E-01 6.31611E-03 1.11728E-01 1.67783E-02 4.65603E+00-2.79868E+01-4.52866E+01



 n o d a l   p r i n t   o u t   f o r   t i m e  s t e p    7801                              ( at time 3.8996097E+00 )

 nodal point  x-rot      y-rot       z-rot       x-rot vel   y-rot vel   z-rot vel   x-rot acc   y-rot acc   z-rot acc
    22626 -3.65843E-04 4.55708E-05 6.04703E-05-3.83510E-04 4.24908E-05 1.01926E-04-1.24460E-03 2.73901E-04 4.74018E-05



 n o d a l   p r i n t   o u t   f o r   t i m e  s t e p    8001                              ( at time 3.9995997E+00 )

 nodal point  x-disp     y-disp      z-disp      x-vel       y-vel       z-vel      x-accl      y-accl      z-accl      x-coor      y-coor      z-coor
    22626 -3.41132E-03 2.19385E-01-3.16025E-01-1.44282E-03 1.59159E-01-1.11950E-01-8.70497E-03 1.03074E-01 3.25164E-02 4.65596E+00-2.79714E+01-4.52977E+01



 n o d a l   p r i n t   o u t   f o r   t i m e  s t e p    8001                              ( at time 3.9995997E+00 )

 nodal point  x-rot      y-rot       z-rot       x-rot vel   y-rot vel   z-rot vel   x-rot acc   y-rot acc   z-rot acc
    22626 -4.04318E-04 4.93586E-05 7.25470E-05-4.30014E-04 2.16998E-05 1.19005E-04-4.65086E-04-2.07931E-04 1.70803E-04



 n o d a l   p r i n t   o u t   f o r   t i m e  s t e p    8201                              ( at time 4.0995897E+00 )

 nodal point  x-disp     y-disp      z-disp      x-vel       y-vel       z-vel      x-accl      y-accl      z-accl      x-coor      y-coor      z-coor
    22626 -3.52584E-03 2.35968E-01-3.27057E-01-9.10496E-05 1.70242E-01-1.08880E-01 1.35190E-02 1.10842E-01 3.07016E-02 4.65585E+00-2.79549E+01-4.53088E+01



 n o d a l   p r i n t   o u t   f o r   t i m e  s t e p    8201                              ( at time 4.0995897E+00 )

 nodal point  x-rot      y-rot       z-rot       x-rot vel   y-rot vel   z-rot vel   x-rot acc   y-rot acc   z-rot acc
    22626 -4.49912E-04 5.21981E-05 8.47591E-05-4.67165E-04 4.99598E-05 1.19086E-04-3.71545E-04 2.82628E-04 8.16880E-07



 n o d a l   p r i n t   o u t   f o r   t i m e  s t e p    8401                              ( at time 4.1995797E+00 )

 nodal point  x-disp     y-disp      z-disp      x-vel       y-vel       z-vel      x-accl      y-accl      z-accl      x-coor      y-coor      z-coor
    22626 -3.66303E-03 2.53731E-01-3.37983E-01 5.72155E-04 1.85245E-01-1.09072E-01 6.63272E-03 1.50047E-01-1.91827E-03 4.65571E+00-2.79371E+01-4.53197E+01



 n o d a l   p r i n t   o u t   f o r   t i m e  s t e p    8401                              ( at time 4.1995797E+00 )

 nodal point  x-rot      y-rot       z-rot       x-rot vel   y-rot vel   z-rot vel   x-rot acc   y-rot acc   z-rot acc
    22626 -5.04407E-04 5.59512E-05 9.76412E-05-5.89124E-04 8.67314E-05 1.16949E-04-1.21971E-03 3.67753E-04-2.13775E-05



 n o d a l   p r i n t   o u t   f o r   t i m e  s t e p    8601                              ( at time 4.2995697E+00 )

 nodal point  x-disp     y-disp      z-disp      x-vel       y-vel       z-vel      x-accl      y-accl      z-accl      x-coor      y-coor      z-coor
    22626 -3.71468E-03 2.73105E-01-3.48730E-01-7.03678E-04 1.99093E-01-1.05421E-01-1.27596E-02 1.38493E-01 3.65079E-02 4.65566E+00-2.79177E+01-4.53305E+01



 n o d a l   p r i n t   o u t   f o r   t i m e  s t e p    8601                              ( at time 4.2995697E+00 )

 nodal point  x-rot      y-rot       z-rot       x-rot vel   y-rot vel   z-rot vel   x-rot acc   y-rot acc   z-rot acc
    22626 -5.70552E-04 6.16237E-05 1.11363E-04-7.10772E-04 6.60461E-05 1.29462E-04-1.21660E-03-2.06874E-04 1.25143E-04



 n o d a l   p r i n t   o u t   f o r   t i m e  s t e p    8801                              ( at time 4.3995597E+00 )

 nodal point  x-disp     y-disp      z-disp      x-vel       y-vel       z-vel      x-accl      y-accl      z-accl      x-coor      y-coor      z-coor
    22626 -3.76218E-03 2.93726E-01-3.58992E-01-4.06025E-03 2.15003E-01-1.02200E-01-3.35691E-02 1.59121E-01 3.22179E-02 4.65561E+00-2.78971E+01-4.53407E+01



 n o d a l   p r i n t   o u t   f o r   t i m e  s t e p    8801                              ( at time 4.3995597E+00 )

 nodal point  x-rot      y-rot       z-rot       x-rot vel   y-rot vel   z-rot vel   x-rot acc   y-rot acc   z-rot acc
    22626 -6.45114E-04 6.87116E-05 1.23213E-04-8.63160E-04 3.87853E-05 1.65135E-04-1.52403E-03-2.72635E-04 3.56769E-04



 n o d a l   p r i n t   o u t   f o r   t i m e  s t e p    9001                              ( at time 4.4995497E+00 )

 nodal point  x-disp     y-disp      z-disp      x-vel       y-vel       z-vel      x-accl      y-accl      z-accl      x-coor      y-coor      z-coor
    22626 -3.75468E-03 3.16035E-01-3.69063E-01 2.06160E-03 2.32409E-01-1.00194E-01 6.12244E-02 1.74075E-01 2.00573E-02 4.65562E+00-2.78748E+01-4.53508E+01



 n o d a l   p r i n t   o u t   f o r   t i m e  s t e p    9001                              ( at time 4.4995497E+00 )

 nodal point  x-rot      y-rot       z-rot       x-rot vel   y-rot vel   z-rot vel   x-rot acc   y-rot acc   z-rot acc
    22626 -7.36321E-04 7.66707E-05 1.35708E-04-9.91516E-04 1.05092E-04 8.75061E-05-1.28368E-03 6.63129E-04-7.76367E-04



 n o d a l   p r i n t   o u t   f o r   t i m e  s t e p    9201                              ( at time 4.5995397E+00 )

 nodal point  x-disp     y-disp      z-disp      x-vel       y-vel       z-vel      x-accl      y-accl      z-accl      x-coor      y-coor      z-coor
    22626 -3.90413E-03 3.39896E-01-3.78867E-01 5.44940E-04 2.46887E-01-9.56499E-02-1.51681E-02 1.44798E-01 4.54491E-02 4.65547E+00-2.78509E+01-4.53606E+01



 n o d a l   p r i n t   o u t   f o r   t i m e  s t e p    9201                              ( at time 4.5995397E+00 )

 nodal point  x-rot      y-rot       z-rot       x-rot vel   y-rot vel   z-rot vel   x-rot acc   y-rot acc   z-rot acc
    22626 -8.36357E-04 8.40585E-05 1.47683E-04-1.02502E-03 6.47893E-05 7.93563E-05-3.35109E-04-4.03067E-04-8.15055E-05



 n o d a l   p r i n t   o u t   f o r   t i m e  s t e p    9401                              ( at time 4.6995297E+00 )

 nodal point  x-disp     y-disp      z-disp      x-vel       y-vel       z-vel      x-accl      y-accl      z-accl      x-coor      y-coor      z-coor
    22626 -3.92531E-03 3.65497E-01-3.88384E-01-3.90460E-03 2.63167E-01-9.13773E-02-4.44999E-02 1.62810E-01 4.27306E-02 4.65545E+00-2.78253E+01-4.53701E+01



 n o d a l   p r i n t   o u t   f o r   t i m e  s t e p    9401                              ( at time 4.6995297E+00 )

 nodal point  x-rot      y-rot       z-rot       x-rot vel   y-rot vel   z-rot vel   x-rot acc   y-rot acc   z-rot acc
    22626 -9.51805E-04 9.19285E-05 1.56832E-04-1.20126E-03 7.09504E-05 1.22990E-04-1.76253E-03 6.16169E-05 4.36377E-04



 n o d a l   p r i n t   o u t   f o r   t i m e  s t e p    9601                              ( at time 4.7995197E+00 )

 nodal point  x-disp     y-disp      z-disp      x-vel       y-vel       z-vel      x-accl      y-accl      z-accl      x-coor      y-coor      z-coor
    22626 -3.99402E-03 3.92553E-01-3.97601E-01-9.93322E-04 2.79747E-01-9.04090E-02 2.91157E-02 1.65822E-01 9.68338E-03 4.65538E+00-2.77983E+01-4.53793E+01



 n o d a l   p r i n t   o u t   f o r   t i m e  s t e p    9601                              ( at time 4.7995197E+00 )

 nodal point  x-rot      y-rot       z-rot       x-rot vel   y-rot vel   z-rot vel   x-rot acc   y-rot acc   z-rot acc
    22626 -1.07635E-03 9.93158E-05 1.66964E-04-1.26860E-03 4.34355E-05 8.17429E-05-6.73450E-04-2.75176E-04-4.12509E-04



 n o d a l   p r i n t   o u t   f o r   t i m e  s t e p    9801                              ( at time 4.8995097E+00 )

 nodal point  x-disp     y-disp      z-disp      x-vel       y-vel       z-vel      x-accl      y-accl      z-accl      x-coor      y-coor      z-coor
    22626 -4.12929E-03 4.21343E-01-4.06474E-01 3.09155E-05 2.93096E-01-8.56270E-02 1.02434E-02 1.33497E-01 4.78247E-02 4.65525E+00-2.77695E+01-4.53882E+01



 n o d a l   p r i n t   o u t   f o r   t i m e  s t e p    9801                              ( at time 4.8995097E+00 )

 nodal point  x-rot      y-rot       z-rot       x-rot vel   y-rot vel   z-rot vel   x-rot acc   y-rot acc   z-rot acc
    22626 -1.21080E-03 1.05442E-04 1.72759E-04-1.41099E-03 1.01441E-04 2.50434E-05-1.42406E-03 5.80114E-04-5.67052E-04



 n o d a l   p r i n t   o u t   f o r   t i m e  s t e p   10001                              ( at time 4.9994997E+00 )

 nodal point  x-disp     y-disp      z-disp      x-vel       y-vel       z-vel      x-accl      y-accl      z-accl      x-coor      y-coor      z-coor
    22626 -4.37254E-03 4.51636E-01-4.14844E-01-2.38304E-03 3.13446E-01-8.57043E-02-2.41419E-02 2.03518E-01-7.72625E-04 4.65500E+00-2.77392E+01-4.53966E+01



 n o d a l   p r i n t   o u t   f o r   t i m e  s t e p   10001                              ( at time 4.9994997E+00 )

 nodal point  x-rot      y-rot       z-rot       x-rot vel   y-rot vel   z-rot vel   x-rot acc   y-rot acc   z-rot acc
    22626 -1.35585E-03 1.12346E-04 1.77485E-04-1.53243E-03 8.07165E-05 4.60064E-05-1.21449E-03-2.07265E-04 2.09650E-04



 n o d a l   p r i n t   o u t   f o r   t i m e  s t e p   10202                              ( at time 5.0999896E+00 )

 nodal point  x-disp     y-disp      z-disp      x-vel       y-vel       z-vel      x-accl      y-accl      z-accl      x-coor      y-coor      z-coor
    22626 -4.43506E-03 4.83860E-01-4.23139E-01-4.62835E-03 3.29670E-01-7.97777E-02-2.23437E-02 1.61449E-01 5.89771E-02 4.65494E+00-2.77070E+01-4.54049E+01



 n o d a l   p r i n t   o u t   f o r   t i m e  s t e p   10202                              ( at time 5.0999896E+00 )

 nodal point  x-rot      y-rot       z-rot       x-rot vel   y-rot vel   z-rot vel   x-rot acc   y-rot acc   z-rot acc
    22626 -1.51453E-03 1.20335E-04 1.76425E-04-1.66168E-03 8.69138E-05 3.72539E-07-1.28627E-03 6.16705E-05-4.54115E-04



 n o d a l   p r i n t   o u t   f o r   t i m e  s t e p   10402                              ( at time 5.1999796E+00 )

 nodal point  x-disp     y-disp      z-disp      x-vel       y-vel       z-vel      x-accl      y-accl      z-accl      x-coor      y-coor      z-coor
    22626 -4.65733E-03 5.17550E-01-4.30755E-01 7.33165E-04 3.44563E-01-7.59782E-02 5.36203E-02 1.48950E-01 3.79984E-02 4.65472E+00-2.76733E+01-4.54125E+01



 n o d a l   p r i n t   o u t   f o r   t i m e  s t e p   10402                              ( at time 5.1999796E+00 )

 nodal point  x-rot      y-rot       z-rot       x-rot vel   y-rot vel   z-rot vel   x-rot acc   y-rot acc   z-rot acc
    22626 -1.68284E-03 1.27085E-04 1.76626E-04-1.75891E-03 6.83394E-05-6.07577E-06-9.72359E-04-1.85762E-04-6.44893E-05



 n o d a l   p r i n t   o u t   f o r   t i m e  s t e p   10602                              ( at time 5.2999696E+00 )

 nodal point  x-disp     y-disp      z-disp      x-vel       y-vel       z-vel      x-accl      y-accl      z-accl      x-coor      y-coor      z-coor
    22626 -4.82562E-03 5.53033E-01-4.38141E-01-4.92883E-04 3.61230E-01-6.87938E-02-1.22617E-02 1.66690E-01 7.18518E-02 4.65455E+00-2.76378E+01-4.54199E+01



 n o d a l   p r i n t   o u t   f o r   t i m e  s t e p   10602                              ( at time 5.2999696E+00 )

 nodal point  x-rot      y-rot       z-rot       x-rot vel   y-rot vel   z-rot vel   x-rot acc   y-rot acc   z-rot acc
    22626 -1.86538E-03 1.36557E-04 1.76534E-04-1.86505E-03 1.13849E-04-3.93043E-05-1.06147E-03 4.55141E-04-3.32319E-04



 n o d a l   p r i n t   o u t   f o r   t i m e  s t e p   10802                              ( at time 5.3999596E+00 )

 nodal point  x-disp     y-disp      z-disp      x-vel       y-vel       z-vel      x-accl      y-accl      z-accl      x-coor      y-coor      z-coor
    22626 -5.02656E-03 5.90189E-01-4.44795E-01-3.26898E-03 3.80570E-01-6.66758E-02-2.77638E-02 1.93418E-01 2.11821E-02 4.65435E+00-2.76006E+01-4.54265E+01



 n o d a l   p r i n t   o u t   f o r   t i m e  s t e p   10802                              ( at time 5.3999596E+00 )

 nodal point  x-rot      y-rot       z-rot       x-rot vel   y-rot vel   z-rot vel   x-rot acc   y-rot acc   z-rot acc
    22626 -2.06201E-03 1.44331E-04 1.69592E-04-2.03040E-03 7.89469E-05-6.51729E-05-1.65367E-03-3.49056E-04-2.58713E-04



 n o d a l   p r i n t   o u t   f o r   t i m e  s t e p   11002                              ( at time 5.4999496E+00 )

 nodal point  x-disp     y-disp      z-disp      x-vel       y-vel       z-vel      x-accl      y-accl      z-accl      x-coor      y-coor      z-coor
    22626 -5.24895E-03 6.29142E-01-4.51067E-01-2.87063E-03 3.95835E-01-5.90015E-02 3.98394E-03 1.52661E-01 7.67503E-02 4.65413E+00-2.75617E+01-4.54328E+01



 n o d a l   p r i n t   o u t   f o r   t i m e  s t e p   11002                              ( at time 5.4999496E+00 )

 nodal point  x-rot      y-rot       z-rot       x-rot vel   y-rot vel   z-rot vel   x-rot acc   y-rot acc   z-rot acc
    22626 -2.27085E-03 1.52751E-04 1.60649E-04-2.14630E-03 7.91635E-05-8.47266E-05-1.15919E-03 2.16583E-06-1.95556E-04



 n o d a l   p r i n t   o u t   f o r   t i m e  s t e p   11202                              ( at time 5.5999396E+00 )

 nodal point  x-disp     y-disp      z-disp      x-vel       y-vel       z-vel      x-accl      y-accl      z-accl      x-coor      y-coor      z-coor
    22626 -5.37565E-03 6.69779E-01-4.56622E-01-1.52761E-04 4.17947E-01-5.30840E-02 2.71814E-02 2.21147E-01 5.91814E-02 4.65400E+00-2.75211E+01-4.54383E+01



 n o d a l   p r i n t   o u t   f o r   t i m e  s t e p   11202                              ( at time 5.5999396E+00 )

 nodal point  x-rot      y-rot       z-rot       x-rot vel   y-rot vel   z-rot vel   x-rot acc   y-rot acc   z-rot acc
    22626 -2.49193E-03 1.61097E-04 1.49495E-04-2.29099E-03 7.58414E-05-1.90187E-04-1.44699E-03-3.32236E-05-1.05471E-03



 n o d a l   p r i n t   o u t   f o r   t i m e  s t e p   11402                              ( at time 5.6999296E+00 )

 nodal point  x-disp     y-disp      z-disp      x-vel       y-vel       z-vel      x-accl      y-accl      z-accl      x-coor      y-coor      z-coor
    22626 -5.56479E-03 7.12040E-01-4.61508E-01-2.33165E-03 4.27192E-01-4.22683E-02-2.17910E-02 9.24521E-02 1.08167E-01 4.65381E+00-2.74788E+01-4.54432E+01



 n o d a l   p r i n t   o u t   f o r   t i m e  s t e p   11402                              ( at time 5.6999296E+00 )

 nodal point  x-rot      y-rot       z-rot       x-rot vel   y-rot vel   z-rot vel   x-rot acc   y-rot acc   z-rot acc
    22626 -2.72632E-03 1.72168E-04 1.34547E-04-2.34805E-03 8.20859E-05-1.29607E-04-5.70702E-04 6.24507E-05 6.05864E-04



 n o d a l   p r i n t   o u t   f o r   t i m e  s t e p   11602                              ( at time 5.7999195E+00 )

 nodal point  x-disp     y-disp      z-disp      x-vel       y-vel       z-vel      x-accl      y-accl      z-accl      x-coor      y-coor      z-coor
    22626 -5.74915E-03 7.55732E-01-4.65714E-01-2.32092E-03 4.47280E-01-4.00023E-02 1.07241E-04 2.00907E-01 2.26621E-02 4.65363E+00-2.74351E+01-4.54474E+01



 n o d a l   p r i n t   o u t   f o r   t i m e  s t e p   11602                              ( at time 5.7999195E+00 )

 nodal point  x-rot      y-rot       z-rot       x-rot vel   y-rot vel   z-rot vel   x-rot acc   y-rot acc   z-rot acc
    22626 -2.97647E-03 1.78570E-04 1.21829E-04-2.56091E-03 6.61773E-05-1.62563E-04-2.12879E-03-1.59102E-04-3.29593E-04



 n o d a l   p r i n t   o u t   f o r   t i m e  s t e p   11802                              ( at time 5.8999095E+00 )

 nodal point  x-disp     y-disp      z-disp      x-vel       y-vel       z-vel      x-accl      y-accl      z-accl      x-coor      y-coor      z-coor
    22626 -6.10604E-03 8.01115E-01-4.69254E-01-2.82544E-03 4.58459E-01-3.06502E-02-5.04567E-03 1.11798E-01 9.35310E-02 4.65327E+00-2.73897E+01-4.54510E+01



 n o d a l   p r i n t   o u t   f o r   t i m e  s t e p   11802                              ( at time 5.8999095E+00 )

 nodal point  x-rot      y-rot       z-rot       x-rot vel   y-rot vel   z-rot vel   x-rot acc   y-rot acc   z-rot acc
    22626 -3.24018E-03 1.85800E-04 1.05110E-04-2.69934E-03 9.95620E-05-1.52686E-04-1.38443E-03 3.33881E-04 9.87744E-05



 n o d a l   p r i n t   o u t   f o r   t i m e  s t e p   12002                              ( at time 5.9998995E+00 )

 nodal point  x-disp     y-disp      z-disp      x-vel       y-vel       z-vel      x-accl      y-accl      z-accl      x-coor      y-coor      z-coor
    22626 -6.13281E-03 8.47922E-01-4.72126E-01-3.35327E-04 4.78392E-01-2.65212E-02 2.49036E-02 1.99351E-01 4.12940E-02 4.65324E+00-2.73429E+01-4.54538E+01



 n o d a l   p r i n t   o u t   f o r   t i m e  s t e p   12002                              ( at time 5.9998995E+00 )

 nodal point  x-rot      y-rot       z-rot       x-rot vel   y-rot vel   z-rot vel   x-rot acc   y-rot acc   z-rot acc
    22626 -3.51532E-03 1.95340E-04 9.10024E-05-2.87353E-03 9.68960E-05-1.39789E-04-1.74209E-03-2.66630E-05 1.28990E-04



 n o d a l   p r i n t   o u t   f o r   t i m e  s t e p   12202                              ( at time 6.0998895E+00 )

 nodal point  x-disp     y-disp      z-disp      x-vel       y-vel       z-vel      x-accl      y-accl      z-accl      x-coor      y-coor      z-coor
    22626 -6.52782E-03 8.96339E-01-4.74088E-01-3.40647E-03 4.92086E-01-1.39601E-02-3.07144E-02 1.36948E-01 1.25623E-01 4.65285E+00-2.72945E+01-4.54558E+01



 n o d a l   p r i n t   o u t   f o r   t i m e  s t e p   12202                              ( at time 6.0998895E+00 )

 nodal point  x-rot      y-rot       z-rot       x-rot vel   y-rot vel   z-rot vel   x-rot acc   y-rot acc   z-rot acc
    22626 -3.80731E-03 2.02205E-04 7.51957E-05-2.97609E-03 5.75985E-05-2.32327E-04-1.02568E-03-3.93013E-04-9.25471E-04



 n o d a l   p r i n t   o u t   f o r   t i m e  s t e p   12402                              ( at time 6.1998795E+00 )

 nodal point  x-disp     y-disp      z-disp      x-vel       y-vel       z-vel      x-accl      y-accl      z-accl      x-coor      y-coor      z-coor
    22626 -6.92055E-03 9.46412E-01-4.75350E-01-2.75245E-03 5.08842E-01-1.00734E-02 6.54087E-03 1.67582E-01 3.88717E-02 4.65245E+00-2.72444E+01-4.54571E+01



 n o d a l   p r i n t   o u t   f o r   t i m e  s t e p   12402                              ( at time 6.1998795E+00 )

 nodal point  x-rot      y-rot       z-rot       x-rot vel   y-rot vel   z-rot vel   x-rot acc   y-rot acc   z-rot acc
    22626 -4.11321E-03 2.08561E-04 5.47248E-05-3.10315E-03 9.60428E-05-1.69552E-04-1.27077E-03 3.84481E-04 6.27808E-04



 n o d a l   p r i n t   o u t   f o r   t i m e  s t e p   12602                              ( at time 6.2998695E+00 )

 nodal point  x-disp     y-disp      z-disp      x-vel       y-vel       z-vel      x-accl      y-accl      z-accl      x-coor      y-coor      z-coor
    22626 -6.97246E-03 9.97996E-01-4.75823E-01-1.51214E-03 5.23513E-01 1.24231E-03 1.24043E-02 1.46726E-01 1.13168E-01 4.65240E+00-2.71928E+01-4.54575E+01



 n o d a l   p r i n t   o u t   f o r   t i m e  s t e p   12602                              ( at time 6.2998695E+00 )

 nodal point  x-rot      y-rot       z-rot       x-rot vel   y-rot vel   z-rot vel   x-rot acc   y-rot acc   z-rot acc
    22626 -4.43178E-03 2.17442E-04 4.09744E-05-3.25808E-03 6.08955E-05-1.22120E-04-1.54938E-03-3.51508E-04 4.74372E-04



 n o d a l   p r i n t   o u t   f o r   t i m e  s t e p   12802                              ( at time 6.3998595E+00 )

 nodal point  x-disp     y-disp      z-disp      x-vel       y-vel       z-vel      x-accl      y-accl      z-accl      x-coor      y-coor      z-coor
    22626 -7.22048E-03 1.05116E+00-4.75366E-01-3.80792E-03 5.40614E-01 8.05357E-03-2.29601E-02 1.71022E-01 6.81195E-02 4.65215E+00-2.71397E+01-4.54571E+01



 n o d a l   p r i n t   o u t   f o r   t i m e  s t e p   12802                              ( at time 6.3998595E+00 )

 nodal point  x-rot      y-rot       z-rot       x-rot vel   y-rot vel   z-rot vel   x-rot acc   y-rot acc   z-rot acc
    22626 -4.76507E-03 2.23305E-04 2.08184E-05-3.45175E-03 5.92296E-05-2.39357E-04-1.93699E-03-1.66607E-05-1.17249E-03



 n o d a l   p r i n t   o u t   f o r   t i m e  s t e p   13002                              ( at time 6.4998495E+00 )

 nodal point  x-disp     y-disp      z-disp      x-vel       y-vel       z-vel      x-accl      y-accl      z-accl      x-coor      y-coor      z-coor
    22626 -7.58693E-03 1.10594E+00-4.73831E-01-1.45874E-04 5.52908E-01 2.05574E-02 3.66241E-02 1.22951E-01 1.25051E-01 4.65179E+00-2.70849E+01-4.54556E+01



 n o d a l   p r i n t   o u t   f o r   t i m e  s t e p   13002                              ( at time 6.4998495E+00 )

 nodal point  x-rot      y-rot       z-rot       x-rot vel   y-rot vel   z-rot vel   x-rot acc   y-rot acc   z-rot acc
    22626 -5.11294E-03 2.29973E-04 1.13496E-06-3.53518E-03 5.73742E-05-1.79128E-04-8.34384E-04-1.85564E-05 6.02349E-04



 n o d a l   p r i n t   o u t   f o r   t i m e  s t e p   13202                              ( at time 6.5998395E+00 )

 nodal point  x-disp     y-disp      z-disp      x-vel       y-vel       z-vel      x-accl      y-accl      z-accl      x-coor      y-coor      z-coor
    22626 -7.64639E-03 1.16220E+00-4.71390E-01-3.45305E-03 5.69762E-01 2.88926E-02-3.30749E-02 1.68562E-01 8.33601E-02 4.65173E+00-2.70286E+01-4.54531E+01



 n o d a l   p r i n t   o u t   f o r   t i m e  s t e p   13202                              ( at time 6.5998395E+00 )

 nodal point  x-rot      y-rot       z-rot       x-rot vel   y-rot vel   z-rot vel   x-rot acc   y-rot acc   z-rot acc
    22626 -5.47559E-03 2.38066E-04-1.40750E-05-3.68753E-03 7.13342E-05-1.49907E-04-1.52356E-03 1.39614E-04 2.92246E-04



 n o d a l   p r i n t   o u t   f o r   t i m e  s t e p   13402                              ( at time 6.6998295E+00 )

 nodal point  x-disp     y-disp      z-disp      x-vel       y-vel       z-vel      x-accl      y-accl      z-accl      x-coor      y-coor      z-coor
    22626 -7.71056E-03 1.21994E+00-4.67765E-01-2.67912E-03 5.85411E-01 4.18081E-02 7.74007E-03 1.56501E-01 1.29168E-01 4.65166E+00-2.69709E+01-4.54495E+01



 n o d a l   p r i n t   o u t   f o r   t i m e  s t e p   13402                              ( at time 6.6998295E+00 )

 nodal point  x-rot      y-rot       z-rot       x-rot vel   y-rot vel   z-rot vel   x-rot acc   y-rot acc   z-rot acc
    22626 -5.85101E-03 2.44759E-04-3.65615E-05-3.81689E-03 6.00351E-05-2.20331E-04-1.29377E-03-1.13003E-04-7.04319E-04



 n o d a l   p r i n t   o u t   f o r   t i m e  s t e p   13602                              ( at time 6.7998195E+00 )

 nodal point  x-disp     y-disp      z-disp      x-vel       y-vel       z-vel      x-accl      y-accl      z-accl      x-coor      y-coor      z-coor
    22626 -8.04887E-03 1.27937E+00-4.63088E-01-3.08708E-03 6.02804E-01 5.17006E-02-4.08003E-03 1.73951E-01 9.89358E-02 4.65133E+00-2.69115E+01-4.54448E+01



 n o d a l   p r i n t   o u t   f o r   t i m e  s t e p   13602                              ( at time 6.7998195E+00 )

 nodal point  x-rot      y-rot       z-rot       x-rot vel   y-rot vel   z-rot vel   x-rot acc   y-rot acc   z-rot acc
    22626 -6.24186E-03 2.50436E-04-5.54933E-05-3.99279E-03 6.43371E-05-1.91987E-04-1.75919E-03 4.30245E-05 2.83476E-04



 n o d a l   p r i n t   o u t   f o r   t i m e  s t e p   13802                              ( at time 6.8998095E+00 )

 nodal point  x-disp     y-disp      z-disp      x-vel       y-vel       z-vel      x-accl      y-accl      z-accl      x-coor      y-coor      z-coor
    22626 -8.15976E-03 1.34024E+00-4.57217E-01 1.55332E-04 6.15532E-01 6.44744E-02 3.24274E-02 1.27292E-01 1.27751E-01 4.65122E+00-2.68506E+01-4.54389E+01



 n o d a l   p r i n t   o u t   f o r   t i m e  s t e p   13802                              ( at time 6.8998095E+00 )

 nodal point  x-rot      y-rot       z-rot       x-rot vel   y-rot vel   z-rot vel   x-rot acc   y-rot acc   z-rot acc
    22626 -6.64575E-03 2.57465E-04-7.77549E-05-4.08631E-03 1.04767E-04-2.15377E-04-9.35324E-04 4.04343E-04-2.33926E-04



 n o d a l   p r i n t   o u t   f o r   t i m e  s t e p   14002                              ( at time 6.9997995E+00 )

 nodal point  x-disp     y-disp      z-disp      x-vel       y-vel       z-vel      x-accl      y-accl      z-accl      x-coor      y-coor      z-coor
    22626 -8.31645E-03 1.40280E+00-4.50271E-01-1.85381E-03 6.33661E-01 7.51119E-02-2.00934E-02 1.81304E-01 1.06386E-01 4.65106E+00-2.67880E+01-4.54320E+01



 n o d a l   p r i n t   o u t   f o r   t i m e  s t e p   14002                              ( at time 6.9997995E+00 )

 nodal point  x-rot      y-rot       z-rot       x-rot vel   y-rot vel   z-rot vel   x-rot acc   y-rot acc   z-rot acc
    22626 -7.06493E-03 2.64414E-04-9.83832E-05-4.26561E-03 7.26600E-05-1.73391E-04-1.79314E-03-3.21105E-04 4.19898E-04



 n o d a l   p r i n t   o u t   f o r   t i m e  s t e p   14202                              ( at time 7.0997895E+00 )

 nodal point  x-disp     y-disp      z-disp      x-vel       y-vel       z-vel      x-accl      y-accl      z-accl      x-coor      y-coor      z-coor
    22626 -8.51623E-03 1.46687E+00-4.41980E-01-3.17432E-03 6.48450E-01 9.04702E-02-1.32065E-02 1.47909E-01 1.53598E-01 4.65086E+00-2.67240E+01-4.54237E+01



 n o d a l   p r i n t   o u t   f o r   t i m e  s t e p   14202                              ( at time 7.0997895E+00 )

 nodal point  x-rot      y-rot       z-rot       x-rot vel   y-rot vel   z-rot vel   x-rot acc   y-rot acc   z-rot acc
    22626 -7.49736E-03 2.68960E-04-1.21301E-04-4.37391E-03 5.20199E-05-2.35262E-04-1.08307E-03-2.06421E-04-6.18763E-04



 n o d a l   p r i n t   o u t   f o r   t i m e  s t e p   14402                              ( at time 7.1997794E+00 )

 nodal point  x-disp     y-disp      z-disp      x-vel       y-vel       z-vel      x-accl      y-accl      z-accl      x-coor      y-coor      z-coor
    22626 -8.70398E-03 1.53250E+00-4.32548E-01 6.23429E-04 6.64722E-01 1.00471E-01 3.79814E-02 1.62740E-01 1.00016E-01 4.65067E+00-2.66583E+01-4.54143E+01



 n o d a l   p r i n t   o u t   f o r   t i m e  s t e p   14402                              ( at time 7.1997794E+00 )

 nodal point  x-rot      y-rot       z-rot       x-rot vel   y-rot vel   z-rot vel   x-rot acc   y-rot acc   z-rot acc
    22626 -7.94343E-03 2.75446E-04-1.45810E-04-4.54805E-03 6.32378E-05-2.27147E-04-1.74162E-03 1.12191E-04 8.11577E-05



 n o d a l   p r i n t   o u t   f o r   t i m e  s t e p   14602                              ( at time 7.2997694E+00 )

 nodal point  x-disp     y-disp      z-disp      x-vel       y-vel       z-vel      x-accl      y-accl      z-accl      x-coor      y-coor      z-coor
    22626 -8.87663E-03 1.59966E+00-4.21688E-01 8.92364E-04 6.79225E-01 1.16326E-01 2.68962E-03 1.45043E-01 1.58567E-01 4.65050E+00-2.65912E+01-4.54034E+01



 n o d a l   p r i n t   o u t   f o r   t i m e  s t e p   14602                              ( at time 7.2997694E+00 )

 nodal point  x-rot      y-rot       z-rot       x-rot vel   y-rot vel   z-rot vel   x-rot acc   y-rot acc   z-rot acc
    22626 -8.40481E-03 2.81333E-04-1.66958E-04-4.68586E-03 5.53849E-05-2.49486E-04-1.37826E-03-7.85369E-05-2.23419E-04



 n o d a l   p r i n t   o u t   f o r   t i m e  s t e p   14802                              ( at time 7.3997594E+00 )

 nodal point  x-disp     y-disp      z-disp      x-vel       y-vel       z-vel      x-accl      y-accl      z-accl      x-coor      y-coor      z-coor
    22626 -9.01861E-03 1.66834E+00-4.09371E-01-2.24273E-03 6.94294E-01 1.29964E-01-3.13542E-02 1.50702E-01 1.36395E-01 4.65036E+00-2.65225E+01-4.53911E+01



 n o d a l   p r i n t   o u t   f o r   t i m e  s t e p   14802                              ( at time 7.3997594E+00 )

 nodal point  x-rot      y-rot       z-rot       x-rot vel   y-rot vel   z-rot vel   x-rot acc   y-rot acc   z-rot acc
    22626 -8.87845E-03 2.85818E-04-1.92652E-04-4.80451E-03 1.91647E-05-2.78554E-04-1.18654E-03-3.62238E-04-2.90702E-04



 n o d a l   p r i n t   o u t   f o r   t i m e  s t e p   15002                              ( at time 7.4997494E+00 )

 nodal point  x-disp     y-disp      z-disp      x-vel       y-vel       z-vel      x-accl      y-accl      z-accl      x-coor      y-coor      z-coor
    22626 -9.19547E-03 1.73851E+00-3.95555E-01-3.02184E-03 7.10041E-01 1.45118E-01-7.79182E-03 1.57490E-01 1.51551E-01 4.65018E+00-2.64523E+01-4.53773E+01



 n o d a l   p r i n t   o u t   f o r   t i m e  s t e p   15002                              ( at time 7.4997494E+00 )

 nodal point  x-rot      y-rot       z-rot       x-rot vel   y-rot vel   z-rot vel   x-rot acc   y-rot acc   z-rot acc
    22626 -9.36634E-03 2.90198E-04-2.17725E-04-4.98852E-03 2.89154E-05-2.58816E-04-1.84034E-03 9.75156E-05 1.97397E-04



 n o d a l   p r i n t   o u t   f o r   t i m e  s t e p   15202                              ( at time 7.5997394E+00 )

 nodal point  x-disp     y-disp      z-disp      x-vel       y-vel       z-vel      x-accl      y-accl      z-accl      x-coor      y-coor      z-coor
    22626 -9.31787E-03 1.81022E+00-3.80372E-01-1.27432E-04 7.24590E-01 1.60034E-01 2.89470E-02 1.45500E-01 1.49176E-01 4.65006E+00-2.63806E+01-4.53621E+01



 n o d a l   p r i n t   o u t   f o r   t i m e  s t e p   15202                              ( at time 7.5997394E+00 )

 nodal point  x-rot      y-rot       z-rot       x-rot vel   y-rot vel   z-rot vel   x-rot acc   y-rot acc   z-rot acc
    22626 -9.86856E-03 2.94735E-04-2.44136E-04-5.07358E-03 3.77540E-05-3.17672E-04-8.50691E-04 8.83958E-05-5.88625E-04



 n o d a l   p r i n t   o u t   f o r   t i m e  s t e p   15402                              ( at time 7.6997294E+00 )

 nodal point  x-disp     y-disp      z-disp      x-vel       y-vel       z-vel      x-accl      y-accl      z-accl      x-coor      y-coor      z-coor
    22626 -9.50215E-03 1.88337E+00-3.63520E-01-2.25793E-03 7.39232E-01 1.76154E-01-2.13072E-02 1.46434E-01 1.61221E-01 4.64987E+00-2.63075E+01-4.53452E+01



 n o d a l   p r i n t   o u t   f o r   t i m e  s t e p   15402                              ( at time 7.6997294E+00 )

 nodal point  x-rot      y-rot       z-rot       x-rot vel   y-rot vel   z-rot vel   x-rot acc   y-rot acc   z-rot acc
    22626 -1.03824E-02 2.98321E-04-2.71582E-04-5.23415E-03 1.79810E-05-2.79904E-04-1.60579E-03-1.97751E-04 3.77717E-04



 n o d a l   p r i n t   o u t   f o r   t i m e  s t e p   15602                              ( at time 7.7997194E+00 )

 nodal point  x-disp     y-disp      z-disp      x-vel       y-vel       z-vel      x-accl      y-accl      z-accl      x-coor      y-coor      z-coor
    22626 -9.68475E-03 1.95812E+00-3.45304E-01-2.85343E-03 7.55390E-01 1.88530E-01-5.95562E-03 1.61596E-01 1.23769E-01 4.64969E+00-2.62327E+01-4.53270E+01



 n o d a l   p r i n t   o u t   f o r   t i m e  s t e p   15602                              ( at time 7.7997194E+00 )

 nodal point  x-rot      y-rot       z-rot       x-rot vel   y-rot vel   z-rot vel   x-rot acc   y-rot acc   z-rot acc
    22626 -1.09127E-02 3.00687E-04-2.98611E-04-5.36570E-03 2.43431E-05-2.84709E-04-1.31569E-03 6.36274E-05-4.80486E-05



 n o d a l   p r i n t   o u t   f o r   t i m e  s t e p   15802                              ( at time 7.8997094E+00 )

 nodal point  x-disp     y-disp      z-disp      x-vel       y-vel       z-vel      x-accl      y-accl      z-accl      x-coor      y-coor      z-coor
    22626 -9.81269E-03 2.03437E+00-3.25469E-01-1.70739E-03 7.69623E-01 2.06831E-01 1.14616E-02 1.42343E-01 1.83031E-01 4.64956E+00-2.61565E+01-4.53072E+01



 n o d a l   p r i n t   o u t   f o r   t i m e  s t e p   15802                              ( at time 7.8997094E+00 )

 nodal point  x-rot      y-rot       z-rot       x-rot vel   y-rot vel   z-rot vel   x-rot acc   y-rot acc   z-rot acc
    22626 -1.14544E-02 3.03804E-04-3.28885E-04-5.48265E-03 3.90820E-05-2.93403E-04-1.16956E-03 1.47404E-04-8.69524E-05



 n o d a l   p r i n t   o u t   f o r   t i m e  s t e p   16002                              ( at time 7.9996994E+00 )

 nodal point  x-disp     y-disp      z-disp      x-vel       y-vel       z-vel      x-accl      y-accl      z-accl      x-coor      y-coor      z-coor
    22626 -9.93200E-03 2.11212E+00-3.04089E-01 3.85923E-04 7.86267E-01 2.21198E-01 2.09351E-02 1.66455E-01 1.43678E-01 4.64944E+00-2.60787E+01-4.52858E+01



 n o d a l   p r i n t   o u t   f o r   t i m e  s t e p   16002                              ( at time 7.9996994E+00 )

 nodal point  x-rot      y-rot       z-rot       x-rot vel   y-rot vel   z-rot vel   x-rot acc   y-rot acc   z-rot acc
    22626 -1.20086E-02 3.06643E-04-3.56179E-04-5.62510E-03 2.62707E-05-2.69993E-04-1.42464E-03-1.28125E-04 2.34122E-04



 n o d a l   p r i n t   o u t   f o r   t i m e  s t e p   16202                              ( at time 8.0996894E+00 )

 nodal point  x-disp     y-disp      z-disp      x-vel       y-vel       z-vel      x-accl      y-accl      z-accl      x-coor      y-coor      z-coor
    22626 -1.00821E-02 2.19144E+00-2.81168E-01-1.35817E-03 7.99951E-01 2.36531E-01-1.74427E-02 1.36860E-01 1.53354E-01 4.64929E+00-2.59994E+01-4.52629E+01



 n o d a l   p r i n t   o u t   f o r   t i m e  s t e p   16202                              ( at time 8.0996894E+00 )

 nodal point  x-rot      y-rot       z-rot       x-rot vel   y-rot vel   z-rot vel   x-rot acc   y-rot acc   z-rot acc
    22626 -1.25773E-02 3.08069E-04-3.85808E-04-5.76154E-03 2.89202E-05-2.83471E-04-1.36458E-03 2.64977E-05-1.34792E-04



 n o d a l   p r i n t   o u t   f o r   t i m e  s t e p   16402                              ( at time 8.1996794E+00 )

 nodal point  x-disp     y-disp      z-disp      x-vel       y-vel       z-vel      x-accl      y-accl      z-accl      x-coor      y-coor      z-coor
    22626 -1.02305E-02 2.27217E+00-2.56547E-01-1.52553E-03 8.13352E-01 2.53976E-01-1.67374E-03 1.34023E-01 1.74465E-01 4.64914E+00-2.59187E+01-4.52383E+01



 n o d a l   p r i n t   o u t   f o r   t i m e  s t e p   16402                              ( at time 8.1996794E+00 )

 nodal point  x-rot      y-rot       z-rot       x-rot vel   y-rot vel   z-rot vel   x-rot acc   y-rot acc   z-rot acc
    22626 -1.31572E-02 3.08731E-04-4.16591E-04-5.86821E-03 2.69070E-05-2.70295E-04-1.06676E-03-2.01336E-05 1.31774E-04



 n o d a l   p r i n t   o u t   f o r   t i m e  s t e p   16602                              ( at time 8.2996694E+00 )

 nodal point  x-disp     y-disp      z-disp      x-vel       y-vel       z-vel      x-accl      y-accl      z-accl      x-coor      y-coor      z-coor
    22626 -1.01995E-02 2.35438E+00-2.30258E-01-1.27013E-03 8.29065E-01 2.70769E-01 2.55430E-03 1.57147E-01 1.67942E-01 4.64918E+00-2.58365E+01-4.52120E+01



 n o d a l   p r i n t   o u t   f o r   t i m e  s t e p   16602                              ( at time 8.2996694E+00 )

 nodal point  x-rot      y-rot       z-rot       x-rot vel   y-rot vel   z-rot vel   x-rot acc   y-rot acc   z-rot acc
    22626 -1.37501E-02 3.11061E-04-4.46668E-04-5.99844E-03 1.04047E-05-2.88566E-04-1.30250E-03-1.65040E-04-1.82724E-04



 n o d a l   p r i n t   o u t   f o r   t i m e  s t e p   16802                              ( at time 8.3996594E+00 )

 nodal point  x-disp     y-disp      z-disp      x-vel       y-vel       z-vel      x-accl      y-accl      z-accl      x-coor      y-coor      z-coor
    22626 -1.02503E-02 2.43802E+00-2.02288E-01-6.49116E-04 8.43538E-01 2.88223E-01 6.21072E-03 1.44739E-01 1.74559E-01 4.64912E+00-2.57528E+01-4.51840E+01



 n o d a l   p r i n t   o u t   f o r   t i m e  s t e p   16802                              ( at time 8.3996594E+00 )

 nodal point  x-rot      y-rot       z-rot       x-rot vel   y-rot vel   z-rot vel   x-rot acc   y-rot acc   z-rot acc
    22626 -1.43544E-02 3.11774E-04-4.77057E-04-6.10485E-03 2.87625E-06-3.14583E-04-1.06424E-03-7.52921E-05-2.60204E-04



 n o d a l   p r i n t   o u t   f o r   t i m e  s t e p   17002                              ( at time 8.4996494E+00 )

 nodal point  x-disp     y-disp      z-disp      x-vel       y-vel       z-vel      x-accl      y-accl      z-accl      x-coor      y-coor      z-coor
    22626 -1.02994E-02 2.52295E+00-1.72579E-01 6.43497E-04 8.55879E-01 3.06504E-01 1.29274E-02 1.23427E-01 1.82834E-01 4.64908E+00-2.56679E+01-4.51543E+01



 n o d a l   p r i n t   o u t   f o r   t i m e  s t e p   17002                              ( at time 8.4996494E+00 )

 nodal point  x-rot      y-rot       z-rot       x-rot vel   y-rot vel   z-rot vel   x-rot acc   y-rot acc   z-rot acc
    22626 -1.49696E-02 3.11861E-04-5.07720E-04-6.19306E-03 7.00524E-06-3.10823E-04-8.82122E-04 4.12941E-05 3.76019E-05



 n o d a l   p r i n t   o u t   f o r   t i m e  s t e p   17202                              ( at time 8.5996394E+00 )

 nodal point  x-disp     y-disp      z-disp      x-vel       y-vel       z-vel      x-accl      y-accl      z-accl      x-coor      y-coor      z-coor
    22626 -1.02089E-02 2.60920E+00-1.41054E-01-1.77875E-03 8.68991E-01 3.23819E-01-2.42249E-02 1.31130E-01 1.73165E-01 4.64917E+00-2.55816E+01-4.51228E+01



 n o d a l   p r i n t   o u t   f o r   t i m e  s t e p   17202                              ( at time 8.5996394E+00 )

 nodal point  x-rot      y-rot       z-rot       x-rot vel   y-rot vel   z-rot vel   x-rot acc   y-rot acc   z-rot acc
    22626 -1.55956E-02 3.12065E-04-5.40122E-04-6.31590E-03-8.08490E-06-3.26584E-04-1.22850E-03-1.50917E-04-1.57625E-04



 n o d a l   p r i n t   o u t   f o r   t i m e  s t e p   17402                              ( at time 8.6996293E+00 )

 nodal point  x-disp     y-disp      z-disp      x-vel       y-vel       z-vel      x-accl      y-accl      z-accl      x-coor      y-coor      z-coor
    22626 -1.02484E-02 2.69674E+00-1.07747E-01 1.51015E-03 8.82591E-01 3.44332E-01 3.28919E-02 1.36018E-01 2.05148E-01 4.64913E+00-2.54941E+01-4.50895E+01



 n o d a l   p r i n t   o u t   f o r   t i m e  s t e p   17402                              ( at time 8.6996293E+00 )

 nodal point  x-rot      y-rot       z-rot       x-rot vel   y-rot vel   z-rot vel   x-rot acc   y-rot acc   z-rot acc
    22626 -1.62338E-02 3.11462E-04-5.73660E-04-6.43108E-03-8.20577E-06-3.41637E-04-1.15199E-03-1.20886E-06-1.50536E-04



 n o d a l   p r i n t   o u t   f o r   t i m e  s t e p   17602                              ( at time 8.7996193E+00 )

 nodal point  x-disp     y-disp      z-disp      x-vel       y-vel       z-vel      x-accl      y-accl      z-accl      x-coor      y-coor      z-coor
    22626 -1.01510E-02 2.78555E+00-7.24464E-02 2.84917E-03 8.95395E-01 3.62585E-01 1.33916E-02 1.28044E-01 1.82551E-01 4.64922E+00-2.54053E+01-4.50542E+01



 n o d a l   p r i n t   o u t   f o r   t i m e  s t e p   17602                              ( at time 8.7996193E+00 )

 nodal point  x-rot      y-rot       z-rot       x-rot vel   y-rot vel   z-rot vel   x-rot acc   y-rot acc   z-rot acc
    22626 -1.68841E-02 3.11249E-04-6.04317E-04-6.54741E-03 7.18565E-06-3.11654E-04-1.16333E-03 1.53930E-04 2.99855E-04



 n o d a l   p r i n t   o u t   f o r   t i m e  s t e p   17802                              ( at time 8.8996093E+00 )

 nodal point  x-disp     y-disp      z-disp      x-vel       y-vel       z-vel      x-accl      y-accl      z-accl      x-coor      y-coor      z-coor
    22626 -1.00426E-02 2.87565E+00-3.53165E-02 9.71704E-04 9.07047E-01 3.81017E-01-1.87766E-02 1.16538E-01 1.84331E-01 4.64933E+00-2.53152E+01-4.50170E+01



 n o d a l   p r i n t   o u t   f o r   t i m e  s t e p   17802                              ( at time 8.8996093E+00 )

 nodal point  x-rot      y-rot       z-rot       x-rot vel   y-rot vel   z-rot vel   x-rot acc   y-rot acc   z-rot acc
    22626 -1.75432E-02 3.09896E-04-6.37206E-04-6.63756E-03-8.78886E-06-3.33001E-04-9.01597E-04-1.59761E-04-2.13495E-04



 n o d a l   p r i n t   o u t   f o r   t i m e  s t e p   18002                              ( at time 8.9995993E+00 )

 nodal point  x-disp     y-disp      z-disp      x-vel       y-vel       z-vel      x-accl      y-accl      z-accl      x-coor      y-coor      z-coor
    22626 -9.91823E-03 2.96698E+00 3.81826E-03 1.47366E-03 9.19414E-01 4.00424E-01 5.02008E-03 1.23677E-01 1.94094E-01 4.64946E+00-2.52239E+01-4.49779E+01



 n o d a l   p r i n t   o u t   f o r   t i m e  s t e p   18002                              ( at time 8.9995993E+00 )

 nodal point  x-rot      y-rot       z-rot       x-rot vel   y-rot vel   z-rot vel   x-rot acc   y-rot acc   z-rot acc
    22626 -1.82124E-02 3.10110E-04-6.70241E-04-6.76249E-03 1.12113E-05-3.13245E-04-1.24950E-03 2.00022E-04 1.97585E-04



 n o d a l   p r i n t   o u t   f o r   t i m e  s t e p   18202                              ( at time 9.0995893E+00 )

 nodal point  x-disp     y-disp      z-disp      x-vel       y-vel       z-vel      x-accl      y-accl      z-accl      x-coor      y-coor      z-coor
    22626 -9.62184E-03 3.05945E+00 4.50253E-02 3.63233E-03 9.27265E-01 4.23765E-01 2.15889E-02 7.85204E-02 2.33432E-01 4.64975E+00-2.51314E+01-4.49367E+01



 n o d a l   p r i n t   o u t   f o r   t i m e  s t e p   18202                              ( at time 9.0995893E+00 )

 nodal point  x-rot      y-rot       z-rot       x-rot vel   y-rot vel   z-rot vel   x-rot acc   y-rot acc   z-rot acc
    22626 -1.88941E-02 3.09984E-04-7.00054E-04-6.88287E-03-7.89421E-06-2.95971E-04-1.20386E-03-1.91075E-04 1.72754E-04



 n o d a l   p r i n t   o u t   f o r   t i m e  s t e p   18402                              ( at time 9.1995793E+00 )

 nodal point  x-disp     y-disp      z-disp      x-vel       y-vel       z-vel      x-accl      y-accl      z-accl      x-coor      y-coor      z-coor
    22626 -9.33750E-03 3.15249E+00 8.85713E-02 5.15524E-03 9.38427E-01 4.42748E-01 1.52306E-02 1.11632E-01 1.89848E-01 4.65004E+00-2.50383E+01-4.48932E+01



 n o d a l   p r i n t   o u t   f o r   t i m e  s t e p   18402                              ( at time 9.1995793E+00 )

 nodal point  x-rot      y-rot       z-rot       x-rot vel   y-rot vel   z-rot vel   x-rot acc   y-rot acc   z-rot acc
    22626 -1.95814E-02 3.11162E-04-7.27994E-04-6.94074E-03 1.98461E-05-2.59722E-04-5.78787E-04 2.77432E-04 3.62535E-04



 n o d a l   p r i n t   o u t   f o r   t i m e  s t e p   18602                              ( at time 9.2995693E+00 )

 nodal point  x-disp     y-disp      z-disp      x-vel       y-vel       z-vel      x-accl      y-accl      z-accl      x-coor      y-coor      z-coor
    22626 -8.74266E-03 3.24651E+00 1.34164E-01 4.77760E-03 9.39126E-01 4.72450E-01-3.77683E-03 6.99531E-03 2.97058E-01 4.65063E+00-2.49443E+01-4.48476E+01



 n o d a l   p r i n t   o u t   f o r   t i m e  s t e p   18602                              ( at time 9.2995693E+00 )

 nodal point  x-rot      y-rot       z-rot       x-rot vel   y-rot vel   z-rot vel   x-rot acc   y-rot acc   z-rot acc
    22626 -2.02802E-02 3.14729E-04-7.52211E-04-7.03690E-03 2.04185E-05-2.19059E-04-9.61674E-04 5.72383E-06 4.06670E-04



 n o d a l   p r i n t   o u t   f o r   t i m e  s t e p   18802                              ( at time 9.3995593E+00 )

 nodal point  x-disp     y-disp      z-disp      x-vel       y-vel       z-vel      x-accl      y-accl      z-accl      x-coor      y-coor      z-coor
    22626 -8.35286E-03 3.34114E+00 1.82552E-01 4.99173E-03 9.53417E-01 4.93403E-01 2.14157E-03 1.42920E-01 2.09545E-01 4.65102E+00-2.48497E+01-4.47992E+01



 n o d a l   p r i n t   o u t   f o r   t i m e  s t e p   18802                              ( at time 9.3995593E+00 )

 nodal point  x-rot      y-rot       z-rot       x-rot vel   y-rot vel   z-rot vel   x-rot acc   y-rot acc   z-rot acc
    22626 -2.09914E-02 3.15911E-04-7.76727E-04-7.17102E-03 3.56769E-06-2.44948E-04-1.34137E-03-1.68525E-04-2.58916E-04



 n o d a l   p r i n t   o u t   f o r   t i m e  s t e p   19002                              ( at time 9.4995493E+00 )

 nodal point  x-disp     y-disp      z-disp      x-vel       y-vel       z-vel      x-accl      y-accl      z-accl      x-coor      y-coor      z-coor
    22626 -7.82126E-03 3.43662E+00 2.32964E-01 4.71099E-03 9.58342E-01 5.18762E-01-2.80767E-03 4.92539E-02 2.53622E-01 4.65155E+00-2.47542E+01-4.47488E+01



 n o d a l   p r i n t   o u t   f o r   t i m e  s t e p   19002                              ( at time 9.4995493E+00 )

 nodal point  x-rot      y-rot       z-rot       x-rot vel   y-rot vel   z-rot vel   x-rot acc   y-rot acc   z-rot acc
    22626 -2.17125E-02 3.18645E-04-8.00875E-04-7.25921E-03 3.29401E-05-2.34197E-04-8.81935E-04 2.93754E-04 1.07522E-04



 n o d a l   p r i n t   o u t   f o r   t i m e  s t e p   19202                              ( at time 9.5995393E+00 )

 nodal point  x-disp     y-disp      z-disp      x-vel       y-vel       z-vel      x-accl      y-accl      z-accl      x-coor      y-coor      z-coor
    22626 -7.26574E-03 3.53300E+00 2.85979E-01 4.44162E-03 9.68425E-01 5.42270E-01-2.69400E-03 1.00844E-01 2.35095E-01 4.65211E+00-2.46578E+01-4.46957E+01



 n o d a l   p r i n t   o u t   f o r   t i m e  s t e p   19202                              ( at time 9.5995393E+00 )

 nodal point  x-rot      y-rot       z-rot       x-rot vel   y-rot vel   z-rot vel   x-rot acc   y-rot acc   z-rot acc
    22626 -2.24453E-02 3.21914E-04-8.21983E-04-7.38135E-03 2.11477E-05-2.37800E-04-1.22156E-03-1.17935E-04-3.60379E-05



 n o d a l   p r i n t   o u t   f o r   t i m e  s t e p   19402                              ( at time 9.6995293E+00 )

 nodal point  x-disp     y-disp      z-disp      x-vel       y-vel       z-vel      x-accl      y-accl      z-accl      x-coor      y-coor      z-coor
    22626 -6.82868E-03 3.63008E+00 3.41493E-01 4.83037E-03 9.77126E-01 5.68227E-01 3.88791E-03 8.70191E-02 2.59602E-01 4.65255E+00-2.45608E+01-4.46402E+01



 n o d a l   p r i n t   o u t   f o r   t i m e  s t e p   19402                              ( at time 9.6995293E+00 )

 nodal point  x-rot      y-rot       z-rot       x-rot vel   y-rot vel   z-rot vel   x-rot acc   y-rot acc   z-rot acc
    22626 -2.31897E-02 3.23106E-04-8.45465E-04-7.55478E-03 2.31455E-05-2.31994E-04-1.73446E-03 1.99801E-05 5.80628E-05



 n o d a l   p r i n t   o u t   f o r   t i m e  s t e p   19602                              ( at time 9.7995193E+00 )

 nodal point  x-disp     y-disp      z-disp      x-vel       y-vel       z-vel      x-accl      y-accl      z-accl      x-coor      y-coor      z-coor
    22626 -6.35556E-03 3.72846E+00 3.99472E-01 4.38918E-03 9.86300E-01 5.88974E-01-4.41235E-03 9.17444E-02 2.07487E-01 4.65302E+00-2.44624E+01-4.45822E+01



 n o d a l   p r i n t   o u t   f o r   t i m e  s t e p   19602                              ( at time 9.7995193E+00 )

 nodal point  x-rot      y-rot       z-rot       x-rot vel   y-rot vel   z-rot vel   x-rot acc   y-rot acc   z-rot acc
    22626 -2.39500E-02 3.25442E-04-8.67533E-04-7.69142E-03 2.11092E-05-2.22651E-04-1.36656E-03-2.03653E-05 9.34406E-05



 n o d a l   p r i n t   o u t   f o r   t i m e  s t e p   19802                              ( at time 9.8995093E+00 )

 nodal point  x-disp     y-disp      z-disp      x-vel       y-vel       z-vel      x-accl      y-accl      z-accl      x-coor      y-coor      z-coor
    22626 -5.90541E-03 3.82769E+00 4.59665E-01 4.54296E-03 9.98129E-01 6.15225E-01 1.53797E-03 1.18300E-01 2.62533E-01 4.65347E+00-2.43631E+01-4.45221E+01



 n o d a l   p r i n t   o u t   f o r   t i m e  s t e p   19802                              ( at time 9.8995093E+00 )

 nodal point  x-rot      y-rot       z-rot       x-rot vel   y-rot vel   z-rot vel   x-rot acc   y-rot acc   z-rot acc
    22626 -2.47212E-02 3.27173E-04-8.90291E-04-7.80360E-03-7.03489E-06-2.09700E-04-1.12194E-03-2.81469E-04 1.29525E-04



 n o d a l   p r i n t   o u t   f o r   t i m e  s t e p   20003                              ( at time 9.9999992E+00 )

 nodal point  x-disp     y-disp      z-disp      x-vel       y-vel       z-vel      x-accl      y-accl      z-accl      x-coor      y-coor      z-coor
[...]
    22626 -2.16905E-01 1.59791E-03-1.68319E-03-1.86043E-02 1.35418E-04 4.14014E-06 1.08453E-04 8.30448E-05 1.70081E-04



 n o d a l   p r i n t   o u t   f o r   t i m e  s t e p   45205                              ( at time 2.2599738E+01 )

 nodal point  x-disp     y-disp      z-disp      x-vel       y-vel       z-vel      x-accl      y-accl      z-accl      x-coor      y-coor      z-coor
    22626  5.07180E-02 2.21231E+01 1.87446E+01-5.87851E-03 1.74868E+00 1.05061E+00-9.87112E-03 2.17696E-02-1.21768E-01 4.71009E+00-6.06768E+00-2.62371E+01



 n o d a l   p r i n t   o u t   f o r   t i m e  s t e p   45205                              ( at time 2.2599738E+01 )

 nodal point  x-rot      y-rot       z-rot       x-rot vel   y-rot vel   z-rot vel   x-rot acc   y-rot acc   z-rot acc
    22626 -2.18764E-01 1.61080E-03-1.68363E-03-1.86036E-02 1.14671E-04-1.13393E-05 6.66888E-06-2.07489E-04-1.54809E-04



 n o d a l   p r i n t   o u t   f o r   t i m e  s t e p   45405                              ( at time 2.2699728E+01 )

 nodal point  x-disp     y-disp      z-disp      x-vel       y-vel       z-vel      x-accl      y-accl      z-accl      x-coor      y-coor      z-coor
    22626  5.01566E-02 2.22981E+01 1.88491E+01-5.33645E-03 1.75189E+00 1.03955E+00 5.42127E-03 3.21865E-02-1.10619E-01 4.70953E+00-5.89269E+00-2.61326E+01



 n o d a l   p r i n t   o u t   f o r   t i m e  s t e p   45405                              ( at time 2.2699728E+01 )

 nodal point  x-rot      y-rot       z-rot       x-rot vel   y-rot vel   z-rot vel   x-rot acc   y-rot acc   z-rot acc
    22626 -2.20624E-01 1.62241E-03-1.68493E-03-1.85939E-02 1.25288E-04-7.75232E-06 9.73899E-05 1.06181E-04 3.58738E-05



 n o d a l   p r i n t   o u t   f o r   t i m e  s t e p   45605                              ( at time 2.2799718E+01 )

 nodal point  x-disp     y-disp      z-disp      x-vel       y-vel       z-vel      x-accl      y-accl      z-accl      x-coor      y-coor      z-coor
    22626  4.96415E-02 2.24735E+01 1.89525E+01-5.17535E-03 1.75611E+00 1.02871E+00 1.61107E-03 4.21408E-02-1.08389E-01 4.70902E+00-5.71732E+00-2.60292E+01



 n o d a l   p r i n t   o u t   f o r   t i m e  s t e p   45605                              ( at time 2.2799718E+01 )

 nodal point  x-rot      y-rot       z-rot       x-rot vel   y-rot vel   z-rot vel   x-rot acc   y-rot acc   z-rot acc
    22626 -2.22482E-01 1.63549E-03-1.68517E-03-1.85691E-02 1.28923E-04-1.69842E-06 2.47885E-04 3.63555E-05 6.05445E-05



 n o d a l   p r i n t   o u t   f o r   t i m e  s t e p   45805                              ( at time 2.2899708E+01 )

 nodal point  x-disp     y-disp      z-disp      x-vel       y-vel       z-vel      x-accl      y-accl      z-accl      x-coor      y-coor      z-coor
    22626  4.91038E-02 2.26492E+01 1.90548E+01-5.53475E-03 1.75774E+00 1.01776E+00-3.59432E-03 1.63454E-02-1.09439E-01 4.70848E+00-5.54162E+00-2.59269E+01



 n o d a l   p r i n t   o u t   f o r   t i m e  s t e p   45805                              ( at time 2.2899708E+01 )

 nodal point  x-rot      y-rot       z-rot       x-rot vel   y-rot vel   z-rot vel   x-rot acc   y-rot acc   z-rot acc
    22626 -2.24339E-01 1.64696E-03-1.68574E-03-1.85504E-02 1.14467E-04-1.39292E-05 1.86937E-04-1.44578E-04-1.22321E-04



 n o d a l   p r i n t   o u t   f o r   t i m e  s t e p   46005                              ( at time 2.2999698E+01 )

 nodal point  x-disp     y-disp      z-disp      x-vel       y-vel       z-vel      x-accl      y-accl      z-accl      x-coor      y-coor      z-coor
    22626  4.85741E-02 2.28251E+01 1.91561E+01-5.01337E-03 1.76059E+00 1.00844E+00 5.21426E-03 2.84674E-02-9.32552E-02 4.70795E+00-5.36573E+00-2.58257E+01



 n o d a l   p r i n t   o u t   f o r   t i m e  s t e p   46005                              ( at time 2.2999698E+01 )

 nodal point  x-rot      y-rot       z-rot       x-rot vel   y-rot vel   z-rot vel   x-rot acc   y-rot acc   z-rot acc
    22626 -2.26194E-01 1.65922E-03-1.68641E-03-1.85393E-02 1.27041E-04-1.07778E-05 1.11340E-04 1.25757E-04 3.15163E-05



 n o d a l   p r i n t   o u t   f o r   t i m e  s t e p   46205                              ( at time 2.3099688E+01 )

 nodal point  x-disp     y-disp      z-disp      x-vel       y-vel       z-vel      x-accl      y-accl      z-accl      x-coor      y-coor      z-coor
    22626  4.80522E-02 2.30013E+01 1.92564E+01-5.71422E-03 1.76412E+00 9.98678E-01-7.00932E-03 3.53352E-02-9.76295E-02 4.70743E+00-5.18952E+00-2.57253E+01



 n o d a l   p r i n t   o u t   f o r   t i m e  s t e p   46205                              ( at time 2.3099688E+01 )

 nodal point  x-rot      y-rot       z-rot       x-rot vel   y-rot vel   z-rot vel   x-rot acc   y-rot acc   z-rot acc
    22626 -2.28046E-01 1.67132E-03-1.68639E-03-1.85155E-02 1.07781E-04-1.86052E-06 2.37849E-04-1.92621E-04 8.91827E-05



 n o d a l   p r i n t   o u t   f o r   t i m e  s t e p   46405                              ( at time 2.3199678E+01 )

 nodal point  x-disp     y-disp      z-disp      x-vel       y-vel       z-vel      x-accl      y-accl      z-accl      x-coor      y-coor      z-coor
    22626  4.75146E-02 2.31778E+01 1.93558E+01-5.25788E-03 1.76528E+00 9.90084E-01 4.56388E-03 1.16144E-02-8.59536E-02 4.70689E+00-5.01303E+00-2.56259E+01



 n o d a l   p r i n t   o u t   f o r   t i m e  s t e p   46405                              ( at time 2.3199678E+01 )

 nodal point  x-rot      y-rot       z-rot       x-rot vel   y-rot vel   z-rot vel   x-rot acc   y-rot acc   z-rot acc
    22626 -2.29896E-01 1.68300E-03-1.68651E-03-1.84824E-02 1.21029E-04 1.90293E-06 3.30948E-04 1.32486E-04 3.76379E-05



 n o d a l   p r i n t   o u t   f o r   t i m e  s t e p   46605                              ( at time 2.3299668E+01 )

 nodal point  x-disp     y-disp      z-disp      x-vel       y-vel       z-vel      x-accl      y-accl      z-accl      x-coor      y-coor      z-coor
    22626  4.70006E-02 2.33544E+01 1.94545E+01-4.80276E-03 1.76754E+00 9.82164E-01 4.55163E-03 2.25879E-02-7.92090E-02 4.70638E+00-4.83642E+00-2.55272E+01



 n o d a l   p r i n t   o u t   f o r   t i m e  s t e p   46605                              ( at time 2.3299668E+01 )

 nodal point  x-rot      y-rot       z-rot       x-rot vel   y-rot vel   z-rot vel   x-rot acc   y-rot acc   z-rot acc
    22626 -2.31742E-01 1.69543E-03-1.68655E-03-1.84528E-02 1.18275E-04-2.81039E-06 2.95579E-04-2.75358E-05-4.71384E-05



 n o d a l   p r i n t   o u t   f o r   t i m e  s t e p   46805                              ( at time 2.3399658E+01 )

 nodal point  x-disp     y-disp      z-disp      x-vel       y-vel       z-vel      x-accl      y-accl      z-accl      x-coor      y-coor      z-coor
    22626  4.64744E-02 2.35313E+01 1.95523E+01-5.01916E-03 1.76974E+00 9.74969E-01-2.16412E-03 2.19580E-02-7.19530E-02 4.70585E+00-4.65954E+00-2.54294E+01



 n o d a l   p r i n t   o u t   f o r   t i m e  s t e p   46805                              ( at time 2.3399658E+01 )

 nodal point  x-rot      y-rot       z-rot       x-rot vel   y-rot vel   z-rot vel   x-rot acc   y-rot acc   z-rot acc
    22626 -2.33587E-01 1.70657E-03-1.68672E-03-1.84227E-02 1.14707E-04-9.99206E-07 3.01348E-04-3.56898E-05 1.81135E-05



 n o d a l   p r i n t   o u t   f o r   t i m e  s t e p   47005                              ( at time 2.3499648E+01 )

 nodal point  x-disp     y-disp      z-disp      x-vel       y-vel       z-vel      x-accl      y-accl      z-accl      x-coor      y-coor      z-coor
    22626  4.59421E-02 2.37083E+01 1.96495E+01-5.19924E-03 1.77091E+00 9.68122E-01-1.80101E-03 1.17313E-02-6.84813E-02 4.70532E+00-4.48251E+00-2.53322E+01



 n o d a l   p r i n t   o u t   f o r   t i m e  s t e p   47005                              ( at time 2.3499648E+01 )

 nodal point  x-rot      y-rot       z-rot       x-rot vel   y-rot vel   z-rot vel   x-rot acc   y-rot acc   z-rot acc
    22626 -2.35427E-01 1.71866E-03-1.68643E-03-1.83717E-02 1.21473E-04 1.20389E-06 5.10374E-04 6.76729E-05 2.20329E-05



 n o d a l   p r i n t   o u t   f o r   t i m e  s t e p   47205                              ( at time 2.3599638E+01 )

 nodal point  x-disp     y-disp      z-disp      x-vel       y-vel       z-vel      x-accl      y-accl      z-accl      x-coor      y-coor      z-coor
    22626  4.54495E-02 2.38855E+01 1.97460E+01-5.26490E-03 1.77193E+00 9.62417E-01-6.56636E-04 1.02007E-02-5.70509E-02 4.70482E+00-4.30537E+00-2.52357E+01



 n o d a l   p r i n t   o u t   f o r   t i m e  s t e p   47205                              ( at time 2.3599638E+01 )

 nodal point  x-rot      y-rot       z-rot       x-rot vel   y-rot vel   z-rot vel   x-rot acc   y-rot acc   z-rot acc
    22626 -2.37263E-01 1.73002E-03-1.68665E-03-1.83547E-02 1.12051E-04-3.53176E-06 1.69613E-04-9.42396E-05-4.73617E-05



 n o d a l   p r i n t   o u t   f o r   t i m e  s t e p   47405                              ( at time 2.3699628E+01 )

 nodal point  x-disp     y-disp      z-disp      x-vel       y-vel       z-vel      x-accl      y-accl      z-accl      x-coor      y-coor      z-coor
    22626  4.48992E-02 2.40628E+01 1.98419E+01-5.54920E-03 1.77384E+00 9.56824E-01-2.84327E-03 1.90633E-02-5.59363E-02 4.70427E+00-4.12806E+00-2.51398E+01



 n o d a l   p r i n t   o u t   f o r   t i m e  s t e p   47405                              ( at time 2.3699628E+01 )

 nodal point  x-rot      y-rot       z-rot       x-rot vel   y-rot vel   z-rot vel   x-rot acc   y-rot acc   z-rot acc
    22626 -2.39097E-01 1.74146E-03-1.68667E-03-1.83122E-02 1.18977E-04-4.79567E-07 4.25355E-04 6.92726E-05 3.05247E-05



 n o d a l   p r i n t   o u t   f o r   t i m e  s t e p   47605                              ( at time 2.3799618E+01 )

 nodal point  x-disp     y-disp      z-disp      x-vel       y-vel       z-vel      x-accl      y-accl      z-accl      x-coor      y-coor      z-coor
    22626  4.43999E-02 2.42401E+01 1.99374E+01-5.23211E-03 1.77377E+00 9.52561E-01 3.17125E-03-6.62877E-04-4.26381E-02 4.70377E+00-3.95070E+00-2.50443E+01



 n o d a l   p r i n t   o u t   f o r   t i m e  s t e p   47605                              ( at time 2.3799618E+01 )

 nodal point  x-rot      y-rot       z-rot       x-rot vel   y-rot vel   z-rot vel   x-rot acc   y-rot acc   z-rot acc
    22626 -2.40927E-01 1.75264E-03-1.68662E-03-1.82715E-02 1.11525E-04 3.00189E-06 4.06996E-04-7.45302E-05 3.48184E-05



 n o d a l   p r i n t   o u t   f o r   t i m e  s t e p   47805                              ( at time 2.3899608E+01 )

 nodal point  x-disp     y-disp      z-disp      x-vel       y-vel       z-vel      x-accl      y-accl      z-accl      x-coor      y-coor      z-coor
    22626  4.38734E-02 2.44175E+01 2.00324E+01-4.83900E-03 1.77443E+00 9.47986E-01 3.93142E-03 6.59526E-03-4.57484E-02 4.70325E+00-3.77331E+00-2.49493E+01



 n o d a l   p r i n t   o u t   f o r   t i m e  s t e p   47805                              ( at time 2.3899608E+01 )

 nodal point  x-rot      y-rot       z-rot       x-rot vel   y-rot vel   z-rot vel   x-rot acc   y-rot acc   z-rot acc
    22626 -2.42753E-01 1.76338E-03-1.68664E-03-1.82526E-02 1.04436E-04-2.46903E-06 1.88554E-04-7.08980E-05-5.47142E-05



 n o d a l   p r i n t   o u t   f o r   t i m e  s t e p   48005                              ( at time 2.3999598E+01 )

 nodal point  x-disp     y-disp      z-disp      x-vel       y-vel       z-vel      x-accl      y-accl      z-accl      x-coor      y-coor      z-coor
    22626  4.33935E-02 2.45949E+01 2.01270E+01-5.05181E-03 1.77399E+00 9.45079E-01-2.12836E-03-4.39096E-03-2.90807E-02 4.70277E+00-3.59590E+00-2.48547E+01



 n o d a l   p r i n t   o u t   f o r   t i m e  s t e p   48005                              ( at time 2.3999598E+01 )

 nodal point  x-rot      y-rot       z-rot       x-rot vel   y-rot vel   z-rot vel   x-rot acc   y-rot acc   z-rot acc
    22626 -2.44576E-01 1.77354E-03-1.68705E-03-1.82162E-02 1.02834E-04 8.02430E-07 3.64001E-04-1.60212E-05 3.27183E-05



 n o d a l   p r i n t   o u t   f o r   t i m e  s t e p   48205                              ( at time 2.4099588E+01 )

 nodal point  x-disp     y-disp      z-disp      x-vel       y-vel       z-vel      x-accl      y-accl      z-accl      x-coor      y-coor      z-coor
    22626  4.28921E-02 2.47723E+01 2.02214E+01-5.09044E-03 1.77343E+00 9.41663E-01-3.86287E-04-5.59977E-03-3.41578E-02 4.70227E+00-3.41852E+00-2.47603E+01



 n o d a l   p r i n t   o u t   f o r   t i m e  s t e p   48205                              ( at time 2.4099588E+01 )

 nodal point  x-rot      y-rot       z-rot       x-rot vel   y-rot vel   z-rot vel   x-rot acc   y-rot acc   z-rot acc
    22626 -2.46395E-01 1.78380E-03-1.68689E-03-1.81785E-02 9.98711E-05 2.31019E-06 3.77127E-04-2.96297E-05 1.50789E-05



 n o d a l   p r i n t   o u t   f o r   t i m e  s t e p   48405                              ( at time 2.4199578E+01 )

 nodal point  x-disp     y-disp      z-disp      x-vel       y-vel       z-vel      x-accl      y-accl      z-accl      x-coor      y-coor      z-coor
    22626  4.24205E-02 2.49496E+01 2.03154E+01-4.73111E-03 1.77352E+00 9.39227E-01 3.59367E-03 9.23974E-04-2.43601E-02 4.70180E+00-3.24119E+00-2.46663E+01



 n o d a l   p r i n t   o u t   f o r   t i m e  s t e p   48405                              ( at time 2.4199578E+01 )

 nodal point  x-rot      y-rot       z-rot       x-rot vel   y-rot vel   z-rot vel   x-rot acc   y-rot acc   z-rot acc
    22626 -2.48211E-01 1.79375E-03-1.68734E-03-1.81455E-02 9.72181E-05-7.59697E-06 3.29948E-04-2.65330E-05-9.90825E-05



 n o d a l   p r i n t   o u t   f o r   t i m e  s t e p   48605                              ( at time 2.4299568E+01 )

 nodal point  x-disp     y-disp      z-disp      x-vel       y-vel       z-vel      x-accl      y-accl      z-accl      x-coor      y-coor      z-coor
    22626  4.19201E-02 2.51269E+01 2.04093E+01-4.78279E-03 1.77271E+00 9.38114E-01-5.16871E-04-8.13320E-03-1.11364E-02 4.70129E+00-3.06391E+00-2.45725E+01



 n o d a l   p r i n t   o u t   f o r   t i m e  s t e p   48605                              ( at time 2.4299568E+01 )

 nodal point  x-rot      y-rot       z-rot       x-rot vel   y-rot vel   z-rot vel   x-rot acc   y-rot acc   z-rot acc
    22626 -2.50023E-01 1.80347E-03-1.68761E-03-1.80947E-02 9.87524E-05-8.39666E-07 5.08213E-04 1.53441E-05 6.75792E-05



 n o d a l   p r i n t   o u t   f o r   t i m e  s t e p   48805                              ( at time 2.4399558E+01 )

 nodal point  x-disp     y-disp      z-disp      x-vel       y-vel       z-vel      x-accl      y-accl      z-accl      x-coor      y-coor      z-coor
    22626  4.14522E-02 2.53041E+01 2.05029E+01-4.52084E-03 1.77150E+00 9.35716E-01 2.61980E-03-1.21283E-02-2.39782E-02 4.70083E+00-2.88675E+00-2.44788E+01



 n o d a l   p r i n t   o u t   f o r   t i m e  s t e p   48805                              ( at time 2.4399558E+01 )

 nodal point  x-rot      y-rot       z-rot       x-rot vel   y-rot vel   z-rot vel   x-rot acc   y-rot acc   z-rot acc
    22626 -2.51831E-01 1.81310E-03-1.68778E-03-1.80481E-02 9.67142E-05-5.35303E-06 4.66114E-04-2.03839E-05-4.51377E-05



 n o d a l   p r i n t   o u t   f o r   t i m e  s t e p   49006                              ( at time 2.4500048E+01 )

 nodal point  x-disp     y-disp      z-disp      x-vel       y-vel       z-vel      x-accl      y-accl      z-accl      x-coor      y-coor      z-coor
    22626  4.09878E-02 2.54820E+01 2.05969E+01-4.81375E-03 1.77049E+00 9.35622E-01-2.91488E-03-1.00254E-02-9.40733E-04 4.70036E+00-2.70879E+00-2.43848E+01



 n o d a l   p r i n t   o u t   f o r   t i m e  s t e p   49006                              ( at time 2.4500048E+01 )

 nodal point  x-rot      y-rot       z-rot       x-rot vel   y-rot vel   z-rot vel   x-rot acc   y-rot acc   z-rot acc
    22626 -2.53643E-01 1.82248E-03-1.68842E-03-1.80127E-02 9.39256E-05-6.98868E-06 3.52626E-04-2.77501E-05-1.62770E-05



 n o d a l   p r i n t   o u t   f o r   t i m e  s t e p   49206                              ( at time 2.4600038E+01 )

 nodal point  x-disp     y-disp      z-disp      x-vel       y-vel       z-vel      x-accl      y-accl      z-accl      x-coor      y-coor      z-coor
    22626  4.05222E-02 2.56590E+01 2.06905E+01-4.58973E-03 1.76848E+00 9.35245E-01 2.24045E-03-2.01208E-02-3.76259E-03 4.69990E+00-2.53183E+00-2.42912E+01



 n o d a l   p r i n t   o u t   f o r   t i m e  s t e p   49206                              ( at time 2.4600038E+01 )

 nodal point  x-rot      y-rot       z-rot       x-rot vel   y-rot vel   z-rot vel   x-rot acc   y-rot acc   z-rot acc
    22626 -2.55442E-01 1.83159E-03-1.68859E-03-1.79662E-02 8.98757E-05-5.50314E-06 4.65145E-04-4.05033E-05 1.48568E-05



 n o d a l   p r i n t   o u t   f o r   t i m e  s t e p   49406                              ( at time 2.4700028E+01 )

 nodal point  x-disp     y-disp      z-disp      x-vel       y-vel       z-vel      x-accl      y-accl      z-accl      x-coor      y-coor      z-coor
    22626  4.00758E-02 2.58357E+01 2.07840E+01-4.32016E-03 1.76698E+00 9.35195E-01 2.69601E-03-1.49565E-02-5.01331E-04 4.69945E+00-2.35508E+00-2.41977E+01



 n o d a l   p r i n t   o u t   f o r   t i m e  s t e p   49406                              ( at time 2.4700028E+01 )

 nodal point  x-rot      y-rot       z-rot       x-rot vel   y-rot vel   z-rot vel   x-rot acc   y-rot acc   z-rot acc
    22626 -2.57236E-01 1.84023E-03-1.68930E-03-1.79170E-02 8.84383E-05-5.30952E-06 4.91849E-04-1.43751E-05 1.93641E-06



 n o d a l   p r i n t   o u t   f o r   t i m e  s t e p   49606                              ( at time 2.4800018E+01 )

 nodal point  x-disp     y-disp      z-disp      x-vel       y-vel       z-vel      x-accl      y-accl      z-accl      x-coor      y-coor      z-coor
    22626  3.96511E-02 2.60124E+01 2.08776E+01-4.25332E-03 1.76553E+00 9.36470E-01 6.68457E-04-1.45306E-02 1.27512E-02 4.69903E+00-2.17846E+00-2.41042E+01



 n o d a l   p r i n t   o u t   f o r   t i m e  s t e p   49606                              ( at time 2.4800018E+01 )

 nodal point  x-rot      y-rot       z-rot       x-rot vel   y-rot vel   z-rot vel   x-rot acc   y-rot acc   z-rot acc
    22626 -2.59026E-01 1.84898E-03-1.68967E-03-1.78703E-02 8.08160E-05-4.49327E-06 4.66878E-04-7.62303E-05 8.16318E-06



 n o d a l   p r i n t   o u t   f o r   t i m e  s t e p   49806                              ( at time 2.4900008E+01 )

 nodal point  x-disp     y-disp      z-disp      x-vel       y-vel       z-vel      x-accl      y-accl      z-accl      x-coor      y-coor      z-coor
    22626  3.92237E-02 2.61888E+01 2.09713E+01-4.09067E-03 1.76287E+00 9.37485E-01 1.62659E-03-2.65807E-02 1.01464E-02 4.69860E+00-2.00205E+00-2.40105E+01



 n o d a l   p r i n t   o u t   f o r   t i m e  s t e p   49806                              ( at time 2.4900008E+01 )

 nodal point  x-rot      y-rot       z-rot       x-rot vel   y-rot vel   z-rot vel   x-rot acc   y-rot acc   z-rot acc
    22626 -2.60810E-01 1.85707E-03-1.69015E-03-1.78204E-02 7.55912E-05-8.77748E-06 4.99505E-04-5.22533E-05-4.28468E-05



 n o d a l   p r i n t   o u t   f o r   t i m e  s t e p   50006                              ( at time 2.4999998E+01 )

 nodal point  x-disp     y-disp      z-disp      x-vel       y-vel       z-vel      x-accl      y-accl      z-accl      x-coor      y-coor      z-coor
    22626  3.88116E-02 2.63649E+01 2.10650E+01-4.38915E-03 1.76085E+00 9.38836E-01-2.98507E-03-2.02436E-02 1.35172E-02 4.69819E+00-1.82588E+00-2.39167E+01



 n o d a l   p r i n t   o u t   f o r   t i m e  s t e p   50006                              ( at time 2.4999998E+01 )

 nodal point  x-rot      y-rot       z-rot       x-rot vel   y-rot vel   z-rot vel   x-rot acc   y-rot acc   z-rot acc
    22626 -2.62590E-01 1.86531E-03-1.69061E-03-1.77715E-02 8.64721E-05-9.52461E-07 4.88542E-04 1.08819E-04 7.82573E-05
