 LSTC 50th% Full_FE H-III Dummy (Beta Version, February 17, 2019)        
                    ls-dyna smp s R16 R16.0_619_d222963 date 03/18/2025

{BEGIN LEGEND}
 Entity #        Title
        1     Upper_Neck_Force_INJURY                                              
{END LEGEND}



 line#1  section#     time        x-force     y-force     z-force    magnitude
 line#2  resultant  moments       x-moment    y-moment    z-moment   magnitude
 line#3  centroids                x           y           z            area  
           1    0.00000E+00     0.0000E+00  0.0000E+00  0.0000E+00  0.0000E+00
ac ID =   33377                 0.0000E+00  0.0000E+00  0.0000E+00  0.0000E+00
                               -3.7437E-01  1.0501E+01 -4.6940E+01  0.0000E+00

           1    1.00490E-01     1.3644E-04 -4.9878E-03  2.5982E-01  2.5987E-01
ac ID =   33377                 4.2550E-01 -1.2521E+00 -2.7103E-02  1.3227E+00
                               -3.7387E-01  1.0590E+01 -4.6886E+01  2.5147E+03

           1    2.00480E-01    -4.4294E-02  4.8565E-04  4.4110E-01  4.4332E-01
ac ID =   33377                 3.0986E-01 -1.5960E+00  2.1768E-02  1.6259E+00
                               -3.7386E-01  1.0591E+01 -4.6888E+01  2.5147E+03

           1    3.00470E-01     1.4790E-02 -3.1887E-03  2.1709E-01  2.1762E-01
ac ID =   33377                 2.5433E-02 -3.4137E-01  6.3379E-02  3.4813E-01
                               -3.7382E-01  1.0591E+01 -4.6889E+01  2.5147E+03

           1    4.00460E-01     2.7365E-03  1.0561E-02  8.8429E-02  8.9100E-02
ac ID =   33377                -4.9322E-01 -9.4945E-01 -1.7603E-03  1.0699E+00
                               -3.7384E-01  1.0592E+01 -4.6890E+01  2.5147E+03

           1    5.00450E-01    -4.0368E-02  3.8573E-03  1.6308E-01  1.6805E-01
ac ID =   33377                -3.9457E-01 -1.4988E+00 -1.0950E-01  1.5537E+00
                               -3.7385E-01  1.0594E+01 -4.6893E+01  2.5147E+03

           1    6.00440E-01    -1.0979E-02  4.0135E-03  3.4638E-01  3.4658E-01
ac ID =   33377                 9.6199E-02 -1.3114E+00 -3.9185E-02  1.3155E+00
                               -3.7386E-01  1.0595E+01 -4.6897E+01  2.5147E+03

           1    7.00430E-01     3.2179E-03 -5.2871E-03  2.9552E-01  2.9558E-01
ac ID =   33377                 1.3349E-01 -4.8288E-01  8.6710E-02  5.0844E-01
                               -3.7390E-01  1.0597E+01 -4.6901E+01  2.5147E+03

           1    8.00420E-01    -3.0603E-02 -1.5942E-03  1.0230E-01  1.0680E-01
ac ID =   33377                 8.8678E-02 -1.0269E+00  4.6071E-02  1.0317E+00
                               -3.7395E-01  1.0599E+01 -4.6904E+01  2.5147E+03

           1    9.00410E-01    -3.8596E-02  5.1162E-04  6.6660E-02  7.7029E-02
ac ID =   33377                 9.3163E-02 -1.0472E+00 -6.1232E-03  1.0513E+00
                               -3.7400E-01  1.0601E+01 -4.6909E+01  2.5147E+03

           1    1.00040E+00     1.5695E-02 -4.0772E-03  2.2599E-01  2.2657E-01
ac ID =   33377                 3.6897E-01 -2.4077E-01 -6.3349E-02  4.4511E-01
                               -3.7401E-01  1.0604E+01 -4.6915E+01  2.5147E+03

           1    1.10039E+00     2.0036E-03 -3.3030E-03  2.7260E-01  2.7262E-01
ac ID =   33377                 3.6014E-01 -8.1108E-01 -5.7044E-02  8.8928E-01
                               -3.7403E-01  1.0606E+01 -4.6921E+01  2.5147E+03

           1    1.20038E+00    -3.1828E-02 -4.7821E-04  1.2988E-01  1.3373E-01
ac ID =   33377                -1.5673E-01 -1.1303E+00  9.3855E-05  1.1411E+00
                               -3.7406E-01  1.0609E+01 -4.6926E+01  2.5147E+03

           1    1.30037E+00    -8.0006E-03  4.9359E-03  7.7200E-02  7.7771E-02
ac ID =   33377                -2.8317E-01 -8.1716E-01  1.0669E-02  8.6490E-01
                               -3.7410E-01  1.0612E+01 -4.6933E+01  2.5147E+03

           1    1.40036E+00     9.6930E-03  3.0564E-03  1.7913E-01  1.7942E-01
ac ID =   33377                -2.7756E-01 -7.7394E-01  2.9575E-02  8.2274E-01
                               -3.7413E-01  1.0615E+01 -4.6940E+01  2.5147E+03

           1    1.50035E+00    -2.4111E-02  1.0157E-03  3.3090E-01  3.3178E-01
ac ID =   33377                 4.3303E-03 -1.4901E+00 -4.1643E-02  1.4907E+00
                               -3.7417E-01  1.0619E+01 -4.6948E+01  2.5147E+03

           1    1.60034E+00    -1.5869E-02 -2.0601E-03  2.2236E-01  2.2294E-01
ac ID =   33377                -1.5505E-02 -1.2399E+00 -2.6320E-02  1.2403E+00
                               -3.7425E-01  1.0623E+01 -4.6955E+01  2.5147E+03

           1    1.70033E+00     2.1236E-03 -5.3980E-04  6.1943E-02  6.1982E-02
ac ID =   33377                -3.4152E-02 -5.1924E-01  7.4251E-02  5.2564E-01
                               -3.7434E-01  1.0626E+01 -4.6963E+01  2.5147E+03

           1    1.80032E+00    -1.4080E-02  2.5700E-04  8.3153E-02  8.4337E-02
ac ID =   33377                 1.0576E-01 -9.3865E-01  1.3291E-01  9.5390E-01
                               -3.7442E-01  1.0631E+01 -4.6972E+01  2.5147E+03

           1    1.90031E+00    -2.8650E-03 -3.2077E-03  1.9682E-01  1.9686E-01
ac ID =   33377                 3.0351E-01 -6.1275E-01 -3.8662E-02  6.8489E-01
                               -3.7448E-01  1.0635E+01 -4.6982E+01  2.5147E+03

           1    2.00030E+00     2.6881E-03 -3.2679E-03  1.5721E-01  1.5726E-01
ac ID =   33377                 2.2507E-01 -2.5324E-01 -2.0140E-01  3.9414E-01
                               -3.7455E-01  1.0640E+01 -4.6991E+01  2.5147E+03

           1    2.10029E+00    -1.9203E-02  2.1378E-03  6.0988E-03  2.0262E-02
ac ID =   33377                -6.3226E-02 -4.7601E-01 -3.9509E-02  4.8182E-01
                               -3.7462E-01  1.0644E+01 -4.7000E+01  2.5147E+03

           1    2.20028E+00    -4.4472E-03  3.1536E-03  8.6514E-03  1.0226E-02
ac ID =   33377                -2.3209E-01 -3.8129E-01  4.3619E-02  4.4850E-01
                               -3.7469E-01  1.0649E+01 -4.7010E+01  2.5147E+03

           1    2.30027E+00     7.3857E-03  1.8292E-03  1.5333E-01  1.5351E-01
ac ID =   33377                -1.1749E-01 -5.6005E-01  1.5213E-02  5.7244E-01
                               -3.7476E-01  1.0655E+01 -4.7020E+01  2.5147E+03

           1    2.40026E+00    -1.0396E-02 -1.3083E-03  1.8906E-01  1.8935E-01
ac ID =   33377                -8.2719E-02 -9.3121E-01  1.3956E-01  9.4523E-01
                               -3.7485E-01  1.0660E+01 -4.7030E+01  2.5147E+03

           1    2.50025E+00    -8.0949E-03  4.8817E-03 -5.4386E-03  1.0906E-02
ac ID =   33377                -1.5920E-01 -4.2855E-01  5.1866E-02  4.6009E-01
                               -3.7497E-01  1.0665E+01 -4.7040E+01  2.5147E+03

           1    2.60024E+00     8.1334E-03  5.0297E-03 -7.8236E-02  7.8818E-02
ac ID =   33377                -1.8085E-01  4.2147E-01 -1.6115E-01  4.8613E-01
                               -3.7509E-01  1.0671E+01 -4.7051E+01  2.5147E+03

           1    2.70023E+00     7.3563E-03 -5.2674E-03  5.7147E-03  1.0701E-02
ac ID =   33377                 6.5832E-02  4.6722E-01 -1.2492E-01  4.8810E-01
                               -3.7520E-01  1.0677E+01 -4.7062E+01  2.5147E+03

           1    2.80022E+00     1.7121E-02 -1.0048E-02  4.9790E-02  5.3601E-02
ac ID =   33377                 3.8610E-01  6.8701E-01 -1.2066E-01  7.9726E-01
                               -3.7531E-01  1.0684E+01 -4.7073E+01  2.5147E+03

           1    2.90021E+00     3.1892E-02 -8.6370E-03 -3.4496E-02  4.7766E-02
ac ID =   33377                 2.7133E-01  1.2771E+00 -1.1849E-01  1.3110E+00
                               -3.7543E-01  1.0690E+01 -4.7084E+01  2.5147E+03

           1    3.00020E+00     2.7169E-02  6.2236E-04 -1.2060E-01  1.2362E-01
ac ID =   33377                -3.7308E-03  1.2362E+00  7.2522E-02  1.2383E+00
                               -3.7558E-01  1.0697E+01 -4.7095E+01  2.5147E+03

           1    3.10019E+00     4.1390E-02 -5.6989E-03 -4.0214E-02  5.7989E-02
ac ID =   33377                 1.6896E-01  9.5406E-01  3.5411E-01  1.0316E+00
                               -3.7576E-01  1.0705E+01 -4.7106E+01  2.5147E+03

           1    3.20018E+00     4.6371E-02 -3.1095E-03  3.2770E-02  5.6867E-02
ac ID =   33377                 2.5913E-01  1.0161E+00  4.5075E-01  1.1414E+00
                               -3.7601E-01  1.0713E+01 -4.7118E+01  2.5147E+03

           1    3.30017E+00     4.1009E-02 -7.9408E-04 -4.8255E-02  6.3332E-02
ac ID =   33377                 2.0547E-02  1.0212E+00  1.1594E-01  1.0280E+00
                               -3.7631E-01  1.0722E+01 -4.7130E+01  2.5147E+03

           1    3.40016E+00     5.3556E-02 -3.4121E-03 -1.7281E-01  1.8095E-01
ac ID =   33377                 1.0686E-01  1.6021E+00 -1.4485E-01  1.6121E+00
                               -3.7670E-01  1.0731E+01 -4.7142E+01  2.5147E+03

           1    3.50015E+00     5.9927E-02  8.1707E-04 -2.0381E-01  2.1244E-01
ac ID =   33377                 6.2306E-02  2.0835E+00 -5.8051E-01  2.1637E+00
                               -3.7719E-01  1.0741E+01 -4.7154E+01  2.5147E+03

           1    3.60014E+00     6.3902E-02 -1.6123E-02 -1.2528E-01  1.4156E-01
ac ID =   33377                 4.5484E-01  2.7813E+00 -6.4238E-01  2.8905E+00
                               -3.7775E-01  1.0753E+01 -4.7167E+01  2.5147E+03

           1    3.70013E+00     6.8412E-02 -2.7382E-02 -1.3473E-01  1.5357E-01
ac ID =   33377                 8.1648E-01  3.1565E+00 -3.4213E-01  3.2783E+00
                               -3.7841E-01  1.0765E+01 -4.7179E+01  2.5147E+03

           1    3.80012E+00     7.5759E-02 -4.7252E-03 -2.5576E-01  2.6679E-01
ac ID =   33377                 3.2989E-01  4.0059E+00  6.6246E-01  4.0737E+00
                               -3.7912E-01  1.0778E+01 -4.7191E+01  2.5147E+03

           1    3.90011E+00     8.6153E-02  5.1977E-03 -3.1133E-01  3.2307E-01
ac ID =   33377                 2.8723E-02  3.8079E+00  1.1888E+00  3.9892E+00
                               -3.7967E-01  1.0792E+01 -4.7204E+01  2.5147E+03

           1    4.00010E+00     8.2093E-02 -3.9730E-03 -2.4637E-01  2.5972E-01
ac ID =   33377                 5.1970E-01  2.6195E+00 -1.9922E-01  2.6779E+00
                               -3.8021E-01  1.0808E+01 -4.7217E+01  2.5147E+03

           1    4.10009E+00     1.0512E-01 -7.0504E-03 -2.2035E-01  2.4424E-01
ac ID =   33377                 5.6684E-01  3.2308E+00 -7.9110E-01  3.3742E+00
                               -3.8083E-01  1.0824E+01 -4.7230E+01  2.5147E+03

           1    4.20008E+00     6.7624E-02  6.1638E-04 -3.0012E-01  3.0765E-01
ac ID =   33377                -3.3014E-01  3.8838E+00  2.2284E-01  3.9042E+00
                               -3.8143E-01  1.0841E+01 -4.7242E+01  2.5147E+03

           1    4.30007E+00     8.2710E-02 -3.8276E-03 -4.7443E-01  4.8161E-01
ac ID =   33377                 1.8499E-01  4.5562E+00  9.9154E-01  4.6665E+00
                               -3.8197E-01  1.0860E+01 -4.7255E+01  2.5147E+03

           1    4.40006E+00     1.4241E-01  9.0783E-03 -3.9601E-01  4.2094E-01
ac ID =   33377                 5.2365E-01  4.7937E+00 -5.5453E-01  4.8540E+00
                               -3.8260E-01  1.0881E+01 -4.7268E+01  2.5147E+03

           1    4.50005E+00     1.0108E-01  7.0891E-03 -3.5967E-01  3.7367E-01
ac ID =   33377                 5.7427E-01  4.3193E+00 -1.5134E+00  4.6127E+00
                               -3.8314E-01  1.0903E+01 -4.7282E+01  2.5147E+03

           1    4.60004E+00     1.4182E-01 -4.9702E-02 -3.9665E-01  4.2416E-01
ac ID =   33377                 4.0783E-01  4.5274E+00  3.1711E-01  4.5568E+00
                               -3.8354E-01  1.0927E+01 -4.7296E+01  2.5147E+03

           1    4.70003E+00     9.6816E-02 -2.9094E-03 -4.8099E-01  4.9065E-01
ac ID =   33377                 1.1347E+00  3.8968E+00  7.0642E-01  4.1197E+00
                               -3.8407E-01  1.0952E+01 -4.7309E+01  2.5147E+03

           1    4.80002E+00     1.3204E-01  2.3342E-02 -5.6423E-01  5.7994E-01
ac ID =   33377                 6.3387E-02  5.7420E+00  1.9467E-01  5.7456E+00
                               -3.8466E-01  1.0978E+01 -4.7323E+01  2.5147E+03

           1    4.90001E+00     1.1197E-01  1.1168E-02 -5.1565E-01  5.2778E-01
ac ID =   33377                -6.9983E-02  5.2751E+00 -1.2795E-01  5.2771E+00
                               -3.8502E-01  1.1007E+01 -4.7337E+01  2.5147E+03

           1    5.00000E+00     1.1887E-01 -1.5232E-02 -5.1841E-01  5.3208E-01
ac ID =   33377                -4.4762E-01  5.4440E+00  7.8511E-01  5.5185E+00
                               -3.8521E-01  1.1037E+01 -4.7352E+01  2.5147E+03

           1    5.10049E+00     1.3446E-01  1.1444E-02 -6.3196E-01  6.4620E-01
ac ID =   33377                 2.7705E-01  5.0273E+00  9.3104E-01  5.1203E+00
                               -3.8552E-01  1.1068E+01 -4.7365E+01  2.5147E+03

           1    5.20048E+00     1.3487E-01  4.4305E-02 -6.1299E-01  6.2922E-01
ac ID =   33377                -9.5768E-01  5.8883E+00 -3.9884E-01  5.9789E+00
                               -3.8579E-01  1.1102E+01 -4.7380E+01  2.5147E+03

           1    5.30047E+00     1.1955E-01 -6.1542E-03 -6.4667E-01  6.5766E-01
ac ID =   33377                 1.9188E-01  5.3278E+00 -3.2526E-01  5.3412E+00
                               -3.8578E-01  1.1137E+01 -4.7394E+01  2.5147E+03

           1    5.40046E+00     1.4581E-01 -2.0637E-02 -6.9364E-01  7.0910E-01
ac ID =   33377                 2.5763E-01  7.0209E+00  4.6164E-01  7.0407E+00
                               -3.8572E-01  1.1174E+01 -4.7408E+01  2.5147E+03

           1    5.50045E+00     1.5184E-01 -2.8931E-03 -7.6332E-01  7.7828E-01
ac ID =   33377                 4.1893E-01  6.2368E+00  1.5519E-01  6.2528E+00
                               -3.8572E-01  1.1212E+01 -4.7422E+01  2.5147E+03

           1    5.60044E+00     1.7405E-01  6.4545E-02 -8.1985E-01  8.4061E-01
ac ID =   33377                -1.0856E+00  6.7601E+00 -2.7230E-01  6.8522E+00
                               -3.8554E-01  1.1252E+01 -4.7436E+01  2.5147E+03

           1    5.70043E+00     1.0498E-01 -3.9654E-02 -8.1449E-01  8.2218E-01
ac ID =   33377                 2.0862E-01  6.1491E+00 -5.5118E-01  6.1773E+00
                               -3.8490E-01  1.1294E+01 -4.7450E+01  2.5147E+03

           1    5.80042E+00     1.1871E-01 -3.3761E-02 -8.6472E-01  8.7348E-01
ac ID =   33377                 9.0350E-01  6.4782E+00 -3.8502E-01  6.5522E+00
                               -3.8468E-01  1.1338E+01 -4.7464E+01  2.5147E+03

           1    5.90041E+00     1.5789E-01  5.8281E-02 -9.2394E-01  9.3915E-01
ac ID =   33377                -1.2765E+00  7.1116E+00  1.5286E+00  7.3852E+00
                               -3.8451E-01  1.1382E+01 -4.7478E+01  2.5147E+03

           1    6.00040E+00     1.5396E-01  4.7691E-02 -9.3088E-01  9.4473E-01
ac ID =   33377                -8.6452E-01  6.4983E+00  7.2456E-01  6.5954E+00
                               -3.8410E-01  1.1429E+01 -4.7491E+01  2.5147E+03

           1    6.10039E+00     1.0771E-01 -2.7060E-02 -9.5186E-01  9.5832E-01
ac ID =   33377                 7.4663E-01  6.1237E+00 -1.2553E+00  6.2955E+00
                               -3.8363E-01  1.1477E+01 -4.7504E+01  2.5147E+03

           1    6.20038E+00     1.7035E-01 -8.4668E-03 -9.8711E-01  1.0017E+00
ac ID =   33377                -4.1169E-01  7.5045E+00 -8.6353E-01  7.5652E+00
                               -3.8327E-01  1.1526E+01 -4.7517E+01  2.5147E+03

           1    6.30037E+00     1.3254E-01  2.3996E-02 -1.0290E+00  1.0378E+00
ac ID =   33377                 1.1790E-01  6.7586E+00 -2.5084E-01  6.7643E+00
                               -3.8294E-01  1.1577E+01 -4.7530E+01  2.5147E+03

           1    6.40036E+00     1.3097E-01  3.0049E-02 -1.1155E+00  1.1236E+00
ac ID =   33377                -9.1971E-01  7.2256E+00  2.9607E-01  7.2899E+00
                               -3.8245E-01  1.1629E+01 -4.7542E+01  2.5147E+03

           1    6.50035E+00     1.8160E-01 -4.3685E-02 -1.1431E+00  1.1583E+00
ac ID =   33377                 6.2892E-01  8.8255E+00  5.1666E-02  8.8481E+00
                               -3.8189E-01  1.1683E+01 -4.7554E+01  2.5147E+03

           1    6.60034E+00     1.6323E-01 -1.7621E-02 -1.1872E+00  1.1985E+00
ac ID =   33377                -4.3387E-01  8.0374E+00  2.1383E-01  8.0519E+00
                               -3.8136E-01  1.1739E+01 -4.7565E+01  2.5147E+03

           1    6.70033E+00     1.7917E-01  5.8375E-02 -1.1956E+00  1.2104E+00
ac ID =   33377                -1.5936E+00  8.2364E+00  1.4811E+00  8.5189E+00
                               -3.8087E-01  1.1796E+01 -4.7576E+01  2.5147E+03

           1    6.80032E+00     1.6309E-01 -9.5390E-03 -1.2527E+00  1.2633E+00
ac ID =   33377                 3.5643E-01  8.6017E+00  8.9460E-01  8.6555E+00
                               -3.8029E-01  1.1855E+01 -4.7586E+01  2.5147E+03

           1    6.90031E+00     1.6865E-01  6.0683E-03 -1.2960E+00  1.3069E+00
ac ID =   33377                -6.5363E-01  8.3631E+00  3.8405E-01  8.3974E+00
                               -3.7958E-01  1.1915E+01 -4.7596E+01  2.5147E+03

           1    7.00030E+00     1.8581E-01  9.6474E-03 -1.3124E+00  1.3255E+00
ac ID =   33377                -8.1067E-01  8.6335E+00  1.4999E-01  8.6727E+00
                               -3.7889E-01  1.1976E+01 -4.7605E+01  2.5147E+03

           1    7.10029E+00     1.7689E-01  1.6309E-02 -1.3748E+00  1.3862E+00
ac ID =   33377                -5.1755E-01  9.2111E+00 -1.9806E-01  9.2278E+00
                               -3.7835E-01  1.2040E+01 -4.7614E+01  2.5147E+03

           1    7.20028E+00     2.0093E-01  7.2491E-03 -1.4323E+00  1.4464E+00
ac ID =   33377                 5.6205E-02  9.6119E+00 -5.8880E-01  9.6301E+00
                               -3.7758E-01  1.2104E+01 -4.7621E+01  2.5147E+03

           1    7.30027E+00     1.7922E-01 -1.5408E-02 -1.5206E+00  1.5312E+00
ac ID =   33377                -3.4088E-01  9.8123E+00 -1.4904E+00  9.9307E+00
                               -3.7680E-01  1.2170E+01 -4.7628E+01  2.5147E+03

           1    7.40026E+00     2.0484E-01  9.0603E-03 -1.5485E+00  1.5620E+00
ac ID =   33377                -1.1065E+00  1.0451E+01 -6.9636E-01  1.0532E+01
                               -3.7603E-01  1.2238E+01 -4.7634E+01  2.5147E+03

           1    7.50025E+00     2.1215E-01 -2.8255E-03 -1.5481E+00  1.5625E+00
ac ID =   33377                 1.6469E-01  1.0761E+01  2.7249E-01  1.0766E+01
                               -3.7527E-01  1.2307E+01 -4.7639E+01  2.5147E+03

           1    7.60024E+00     2.0142E-01  6.1757E-03 -1.6069E+00  1.6195E+00
ac ID =   33377                -4.1538E-01  1.0208E+01  1.1038E-01  1.0217E+01
                               -3.7439E-01  1.2378E+01 -4.7643E+01  2.5147E+03

           1    7.70023E+00     2.3026E-01  1.4115E-02 -1.6147E+00  1.6311E+00
ac ID =   33377                -1.1289E+00  1.1091E+01 -3.6893E-02  1.1149E+01
                               -3.7346E-01  1.2450E+01 -4.7646E+01  2.5147E+03

           1    7.80022E+00     2.2071E-01 -9.3903E-03 -1.6631E+00  1.6777E+00
ac ID =   33377                -1.0319E-01  1.1044E+01 -1.1796E-01  1.1045E+01
                               -3.7256E-01  1.2523E+01 -4.7648E+01  2.5147E+03

           1    7.90021E+00     2.2052E-01  1.8897E-02 -1.7007E+00  1.7150E+00
ac ID =   33377                -5.0116E-01  1.1412E+01  2.2577E-02  1.1423E+01
                               -3.7166E-01  1.2598E+01 -4.7650E+01  2.5147E+03

           1    8.00020E+00     2.3994E-01  2.8970E-02 -1.7267E+00  1.7435E+00
ac ID =   33377                -6.5680E-01  1.1544E+01  6.7259E-01  1.1582E+01
                               -3.7068E-01  1.2675E+01 -4.7650E+01  2.5147E+03

           1    8.10019E+00     2.4322E-01 -6.5552E-03 -1.8000E+00  1.8163E+00
ac ID =   33377                -1.9233E-01  1.2472E+01  3.9321E-01  1.2480E+01
                               -3.6960E-01  1.2753E+01 -4.7649E+01  2.5147E+03

           1    8.20018E+00     2.5320E-01 -1.8794E-02 -1.8509E+00  1.8683E+00
ac ID =   33377                -2.5459E-01  1.2859E+01 -8.3501E-01  1.2889E+01
                               -3.6856E-01  1.2832E+01 -4.7646E+01  2.5147E+03

           1    8.30017E+00     2.5313E-01  1.5325E-02 -1.8727E+00  1.8898E+00
ac ID =   33377                -5.5769E-01  1.3043E+01 -4.0381E-01  1.3061E+01
                               -3.6751E-01  1.2913E+01 -4.7643E+01  2.5147E+03

           1    8.40016E+00     2.6828E-01  7.8278E-03 -1.9157E+00  1.9344E+00
ac ID =   33377                -3.6160E-01  1.3781E+01  1.4347E-01  1.3787E+01
                               -3.6632E-01  1.2995E+01 -4.7638E+01  2.5147E+03

           1    8.50015E+00     2.5342E-01 -1.9293E-02 -1.9207E+00  1.9374E+00
ac ID =   33377                -3.2715E-01  1.3672E+01  5.6865E-01  1.3688E+01
                               -3.6511E-01  1.3079E+01 -4.7632E+01  2.5147E+03

           1    8.60014E+00     2.7339E-01  1.2434E-02 -1.9354E+00  1.9547E+00
ac ID =   33377                -5.1672E-01  1.4022E+01  2.2366E-01  1.4033E+01
                               -3.6389E-01  1.3164E+01 -4.7625E+01  2.5147E+03

           1    8.70013E+00     2.8120E-01  2.2864E-02 -2.0110E+00  2.0307E+00
ac ID =   33377                -8.0095E-01  1.4263E+01  2.8910E-01  1.4289E+01
                               -3.6258E-01  1.3250E+01 -4.7616E+01  2.5147E+03

           1    8.80012E+00     2.7797E-01 -7.7126E-04 -2.0512E+00  2.0700E+00
ac ID =   33377                -1.5011E-01  1.4471E+01 -2.3243E-01  1.4474E+01
                               -3.6128E-01  1.3337E+01 -4.7606E+01  2.5147E+03

           1    8.90011E+00     2.4733E-01  2.2921E-02 -2.0689E+00  2.0838E+00
ac ID =   33377                -1.2674E+00  1.4380E+01  1.3451E-01  1.4436E+01
                               -3.5988E-01  1.3426E+01 -4.7594E+01  2.5147E+03

           1    9.00010E+00     2.9251E-01 -1.7332E-02 -2.1063E+00  2.1266E+00
ac ID =   33377                 7.0714E-02  1.5432E+01 -2.7811E-01  1.5434E+01
                               -3.5845E-01  1.3515E+01 -4.7581E+01  2.5147E+03

           1    9.10009E+00     2.9397E-01  1.2532E-03 -2.1151E+00  2.1354E+00
ac ID =   33377                -3.5196E-01  1.5365E+01 -8.8975E-02  1.5369E+01
                               -3.5705E-01  1.3606E+01 -4.7566E+01  2.5147E+03

           1    9.20008E+00     2.5419E-01 -2.9075E-03 -2.0796E+00  2.0951E+00
ac ID =   33377                -2.1698E-01  1.4982E+01  3.9925E-01  1.4989E+01
                               -3.5558E-01  1.3698E+01 -4.7550E+01  2.5147E+03

           1    9.30007E+00     2.7852E-01 -1.2602E-02 -2.1645E+00  2.1824E+00
ac ID =   33377                 8.0175E-02  1.5943E+01 -8.2906E-01  1.5965E+01
                               -3.5412E-01  1.3790E+01 -4.7531E+01  2.5147E+03

           1    9.40006E+00     3.3230E-01 -5.3111E-03 -2.1316E+00  2.1573E+00
ac ID =   33377                -3.1343E-02  1.5565E+01 -7.4053E-01  1.5582E+01
                               -3.5275E-01  1.3883E+01 -4.7510E+01  2.5147E+03

           1    9.50005E+00     2.7463E-01  1.3368E-02 -2.2117E+00  2.2287E+00
ac ID =   33377                -1.1937E+00  1.4949E+01 -3.7289E-01  1.5001E+01
                               -3.5137E-01  1.3976E+01 -4.7487E+01  2.5147E+03

           1    9.60004E+00     2.8948E-01  6.3083E-03 -2.2258E+00  2.2445E+00
ac ID =   33377                -1.9694E-01  1.6200E+01 -1.1784E+00  1.6244E+01
                               -3.4999E-01  1.4071E+01 -4.7463E+01  2.5147E+03

           1    9.70003E+00     2.8210E-01 -9.4047E-04 -2.1487E+00  2.1671E+00
ac ID =   33377                -7.6043E-01  1.4916E+01  7.3733E-01  1.4954E+01
                               -3.4858E-01  1.4166E+01 -4.7436E+01  2.5147E+03

           1    9.80002E+00     3.2383E-01  2.6818E-02 -2.2615E+00  2.2847E+00
ac ID =   33377                -5.9636E-01  1.6693E+01  5.0130E-01  1.6712E+01
                               -3.4737E-01  1.4262E+01 -4.7407E+01  2.5147E+03

           1    9.90001E+00     2.9191E-01  1.8855E-02 -2.3036E+00  2.3221E+00
ac ID =   33377                -1.4192E+00  1.6051E+01 -9.0848E-01  1.6139E+01
                               -3.4601E-01  1.4359E+01 -4.7377E+01  2.5147E+03

           1    1.00005E+01     3.3621E-01 -3.9462E-03 -2.2638E+00  2.2886E+00
ac ID =   33377                -2.2153E-01  1.7118E+01 -1.5369E+00  1.7189E+01
                               -3.4473E-01  1.4458E+01 -4.7344E+01  2.5147E+03

           1    1.01005E+01     3.1362E-01 -2.2939E-02 -2.3044E+00  2.3258E+00
ac ID =   33377                -7.7295E-01  1.6652E+01  3.3311E-01  1.6673E+01
                               -3.4334E-01  1.4557E+01 -4.7310E+01  2.5147E+03

           1    1.02005E+01     3.3504E-01  1.4386E-02 -2.3633E+00  2.3870E+00
ac ID =   33377                -9.5604E-01  1.7458E+01  3.4147E-01  1.7488E+01
                               -3.4215E-01  1.4657E+01 -4.7274E+01  2.5147E+03

           1    1.03005E+01     3.2033E-01 -5.5073E-03 -2.3586E+00  2.3802E+00
ac ID =   33377                -9.0801E-01  1.6812E+01  3.7301E-01  1.6840E+01
                               -3.4071E-01  1.4759E+01 -4.7236E+01  2.5147E+03

           1    1.04005E+01     3.2771E-01 -4.3471E-03 -2.3636E+00  2.3862E+00
ac ID =   33377                -9.2077E-01  1.6922E+01 -5.1765E-01  1.6955E+01
                               -3.3939E-01  1.4861E+01 -4.7196E+01  2.5147E+03

           1    1.05004E+01     3.2238E-01  1.5352E-02 -2.3475E+00  2.3695E+00
ac ID =   33377                -8.1111E-01  1.6978E+01 -1.9892E-01  1.6999E+01
                               -3.3811E-01  1.4964E+01 -4.7154E+01  2.5147E+03

           1    1.06004E+01     3.2796E-01  2.3323E-02 -2.3472E+00  2.3701E+00
ac ID =   33377                -1.5190E+00  1.6811E+01  6.3865E-01  1.6892E+01
                               -3.3682E-01  1.5069E+01 -4.7110E+01  2.5147E+03

           1    1.07004E+01     3.4055E-01  1.1398E-03 -2.3548E+00  2.3793E+00
ac ID =   33377                -6.8923E-01  1.7120E+01  1.5435E-02  1.7133E+01
                               -3.3563E-01  1.5174E+01 -4.7063E+01  2.5147E+03

           1    1.08004E+01     3.4631E-01  1.6258E-02 -2.3471E+00  2.3726E+00
ac ID =   33377                -1.3586E+00  1.6264E+01 -3.2431E-04  1.6321E+01
                               -3.3442E-01  1.5281E+01 -4.7015E+01  2.5147E+03

           1    1.09004E+01     3.1859E-01  6.1782E-03 -2.3812E+00  2.4025E+00
ac ID =   33377                -8.3152E-01  1.6578E+01 -6.5418E-01  1.6611E+01
                               -3.3326E-01  1.5389E+01 -4.6966E+01  2.5147E+03

           1    1.10004E+01     3.4028E-01  1.1873E-03 -2.3026E+00  2.3276E+00
ac ID =   33377                -1.1533E+00  1.6187E+01 -5.8652E-01  1.6239E+01
                               -3.3213E-01  1.5498E+01 -4.6914E+01  2.5147E+03

           1    1.11004E+01     3.2912E-01  2.4527E-02 -2.3808E+00  2.4036E+00
ac ID =   33377                -5.3962E-01  1.6024E+01 -2.6759E-01  1.6035E+01
                               -3.3114E-01  1.5607E+01 -4.6860E+01  2.5147E+03

           1    1.12004E+01     3.4676E-01 -1.0221E-02 -2.3662E+00  2.3915E+00
ac ID =   33377                -1.3031E+00  1.6661E+01 -3.7899E-01  1.6716E+01
                               -3.2995E-01  1.5719E+01 -4.6804E+01  2.5147E+03

           1    1.13004E+01     3.2465E-01 -7.2353E-03 -2.2973E+00  2.3202E+00
ac ID =   33377                -5.9261E-01  1.5834E+01 -9.7417E-01  1.5875E+01
                               -3.2892E-01  1.5831E+01 -4.6747E+01  2.5147E+03

           1    1.14004E+01     3.4204E-01  1.4530E-02 -2.2803E+00  2.3058E+00
ac ID =   33377                -1.1210E+00  1.6106E+01  1.0722E-01  1.6145E+01
                               -3.2795E-01  1.5944E+01 -4.6687E+01  2.5147E+03

           1    1.15003E+01     3.4847E-01  9.3756E-03 -2.2648E+00  2.2915E+00
ac ID =   33377                -1.3891E+00  1.5350E+01  9.6535E-02  1.5413E+01
                               -3.2689E-01  1.6058E+01 -4.6626E+01  2.5147E+03

           1    1.16003E+01     3.3604E-01  3.1713E-03 -2.3025E+00  2.3269E+00
ac ID =   33377                -8.7296E-01  1.5758E+01 -6.4017E-01  1.5795E+01
                               -3.2587E-01  1.6174E+01 -4.6563E+01  2.5147E+03

           1    1.17003E+01     3.3675E-01  1.1637E-02 -2.2825E+00  2.3072E+00
ac ID =   33377                -1.3683E+00  1.5434E+01 -2.6715E-01  1.5497E+01
                               -3.2484E-01  1.6291E+01 -4.6498E+01  2.5147E+03

           1    1.18003E+01     3.3466E-01  1.0427E-02 -2.2397E+00  2.2646E+00
ac ID =   33377                -1.1314E+00  1.5378E+01 -1.5950E-01  1.5421E+01
                               -3.2390E-01  1.6408E+01 -4.6431E+01  2.5147E+03

           1    1.19003E+01     3.3204E-01  1.1034E-02 -2.2729E+00  2.2970E+00
ac ID =   33377                -1.2449E+00  1.5287E+01  2.4409E-01  1.5339E+01
                               -3.2284E-01  1.6527E+01 -4.6362E+01  2.5147E+03

           1    1.20003E+01     3.3681E-01  7.0279E-03 -2.2503E+00  2.2754E+00
ac ID =   33377                -8.4284E-01  1.5154E+01 -5.2656E-01  1.5187E+01
                               -3.2188E-01  1.6647E+01 -4.6291E+01  2.5147E+03

           1    1.21003E+01     3.4208E-01 -1.1418E-02 -2.1961E+00  2.2226E+00
ac ID =   33377                -9.8893E-01  1.4803E+01 -4.6118E-01  1.4844E+01
                               -3.2090E-01  1.6767E+01 -4.6218E+01  2.5147E+03

           1    1.22003E+01     3.2364E-01  1.9316E-02 -2.1676E+00  2.1917E+00
ac ID =   33377                -8.3987E-01  1.4734E+01 -2.1136E-01  1.4760E+01
                               -3.2000E-01  1.6888E+01 -4.6144E+01  2.5147E+03

           1    1.23003E+01     3.3037E-01 -5.0126E-03 -2.1319E+00  2.1573E+00
ac ID =   33377                -7.6931E-01  1.4262E+01 -7.0090E-02  1.4282E+01
                               -3.1901E-01  1.7011E+01 -4.6068E+01  2.5147E+03

           1    1.24003E+01     3.5221E-01 -3.7594E-03 -2.0986E+00  2.1279E+00
ac ID =   33377                -7.3272E-01  1.4472E+01 -5.3450E-01  1.4500E+01
                               -3.1810E-01  1.7134E+01 -4.5990E+01  2.5147E+03

           1    1.25002E+01     3.2524E-01  2.1834E-02 -2.1047E+00  2.1298E+00
ac ID =   33377                -1.5565E+00  1.3883E+01 -7.7886E-01  1.3992E+01
                               -3.1721E-01  1.7258E+01 -4.5910E+01  2.5147E+03

           1    1.26002E+01     3.0539E-01 -2.6106E-03 -2.0489E+00  2.0716E+00
ac ID =   33377                -7.7823E-01  1.3806E+01 -4.2303E-01  1.3835E+01
                               -3.1631E-01  1.7384E+01 -4.5828E+01  2.5147E+03

           1    1.27002E+01     3.3028E-01 -1.6563E-02 -1.9900E+00  2.0173E+00
ac ID =   33377                -5.0015E-01  1.4004E+01  2.6949E-01  1.4015E+01
                               -3.1541E-01  1.7509E+01 -4.5745E+01  2.5147E+03

           1    1.28002E+01     3.3730E-01  2.0700E-02 -1.9783E+00  2.0069E+00
ac ID =   33377                -1.2318E+00  1.3556E+01  5.6323E-01  1.3623E+01
                               -3.1460E-01  1.7636E+01 -4.5660E+01  2.5147E+03

           1    1.29002E+01     3.2050E-01  1.3311E-02 -1.9318E+00  1.9583E+00
ac ID =   33377                -6.9451E-01  1.3186E+01 -3.9427E-01  1.3211E+01
                               -3.1378E-01  1.7763E+01 -4.5573E+01  2.5147E+03

           1    1.30002E+01     3.3349E-01 -4.0592E-03 -1.8756E+00  1.9050E+00
ac ID =   33377                -7.8359E-01  1.2624E+01 -4.3396E-02  1.2648E+01
                               -3.1277E-01  1.7891E+01 -4.5485E+01  2.5147E+03

           1    1.31002E+01     3.3822E-01  1.3069E-02 -1.8461E+00  1.8769E+00
ac ID =   33377                -5.5877E-01  1.2385E+01  1.0426E-01  1.2398E+01
                               -3.1185E-01  1.8019E+01 -4.5395E+01  2.5147E+03

           1    1.32002E+01     2.9306E-01  2.6726E-02 -1.8182E+00  1.8419E+00
ac ID =   33377                -1.4430E+00  1.1728E+01 -2.5812E-02  1.1817E+01
                               -3.1095E-01  1.8148E+01 -4.5303E+01  2.5147E+03

           1    1.33002E+01     3.0071E-01  5.5721E-03 -1.7796E+00  1.8049E+00
ac ID =   33377                -9.7937E-01  1.1662E+01 -8.3666E-01  1.1732E+01
                               -3.0987E-01  1.8278E+01 -4.5210E+01  2.5147E+03

           1    1.34002E+01     3.1632E-01  1.6930E-03 -1.7535E+00  1.7818E+00
ac ID =   33377                -8.6878E-01  1.1378E+01 -1.0581E+00  1.1461E+01
                               -3.0887E-01  1.8407E+01 -4.5115E+01  2.5147E+03

           1    1.35001E+01     3.0791E-01  2.5722E-02 -1.7194E+00  1.7470E+00
ac ID =   33377                -1.0663E+00  1.1033E+01 -5.3685E-01  1.1097E+01
                               -3.0791E-01  1.8538E+01 -4.5018E+01  2.5147E+03

           1    1.36001E+01     3.0370E-01  2.3102E-03 -1.6795E+00  1.7067E+00
ac ID =   33377                -1.1207E+00  1.0840E+01 -1.6658E-01  1.0899E+01
                               -3.0681E-01  1.8669E+01 -4.4920E+01  2.5147E+03

           1    1.37001E+01     3.0608E-01  1.4887E-03 -1.6453E+00  1.6735E+00
ac ID =   33377                -4.3949E-01  1.0262E+01 -1.7256E-01  1.0273E+01
                               -3.0579E-01  1.8800E+01 -4.4821E+01  2.5147E+03

           1    1.38001E+01     3.1006E-01  2.0207E-03 -1.6051E+00  1.6347E+00
ac ID =   33377                -5.6465E-01  9.9196E+00 -5.6110E-01  9.9515E+00
                               -3.0470E-01  1.8932E+01 -4.4720E+01  2.5147E+03

           1    1.39001E+01     2.6933E-01  8.7370E-03 -1.5395E+00  1.5629E+00
ac ID =   33377                -9.8833E-01  8.7990E+00 -8.0888E-02  8.8547E+00
                               -3.0360E-01  1.9064E+01 -4.4618E+01  2.5147E+03

           1    1.40001E+01     2.7511E-01  1.0742E-02 -1.4926E+00  1.5178E+00
ac ID =   33377                -7.1007E-01  8.3359E+00  2.5544E-01  8.3700E+00
                               -3.0254E-01  1.9197E+01 -4.4514E+01  2.5147E+03

           1    1.41001E+01     2.7163E-01 -3.2239E-03 -1.4617E+00  1.4867E+00
ac ID =   33377                -8.2544E-01  8.0693E+00  2.7475E-01  8.1160E+00
                               -3.0141E-01  1.9330E+01 -4.4409E+01  2.5147E+03

           1    1.42001E+01     2.5409E-01  7.2011E-03 -1.4051E+00  1.4279E+00
ac ID =   33377                -1.0868E+00  7.4282E+00  4.9130E-02  7.5075E+00
                               -3.0032E-01  1.9464E+01 -4.4303E+01  2.5147E+03

           1    1.43001E+01     2.6995E-01  1.3480E-02 -1.3191E+00  1.3465E+00
ac ID =   33377                -1.1239E+00  7.0887E+00 -2.8361E-01  7.1828E+00
                               -2.9929E-01  1.9597E+01 -4.4196E+01  2.5147E+03

           1    1.44001E+01     2.6264E-01  6.3333E-03 -1.2937E+00  1.3201E+00
ac ID =   33377                -6.7232E-01  6.5970E+00 -6.6227E-02  6.6315E+00
                               -2.9820E-01  1.9732E+01 -4.4087E+01  2.5147E+03

           1    1.45000E+01     2.6673E-01  1.9562E-02 -1.2317E+00  1.2604E+00
ac ID =   33377                -1.1625E+00  6.2715E+00 -3.0319E-02  6.3784E+00
                               -2.9713E-01  1.9866E+01 -4.3978E+01  2.5147E+03

           1    1.46000E+01     2.1026E-01 -1.1763E-04 -1.1706E+00  1.1893E+00
ac ID =   33377                -5.6262E-01  4.9729E+00 -5.3669E-01  5.0333E+00
                               -2.9602E-01  2.0001E+01 -4.3867E+01  2.5147E+03

           1    1.47000E+01     2.4278E-01  1.0876E-02 -1.1826E+00  1.2074E+00
ac ID =   33377                -8.9642E-01  5.2819E+00 -2.7835E-01  5.3646E+00
                               -2.9493E-01  2.0136E+01 -4.3755E+01  2.5147E+03

           1    1.48005E+01     2.2513E-01  3.8195E-04 -1.0786E+00  1.1018E+00
ac ID =   33377                -6.2556E-01  4.2560E+00 -2.2252E-01  4.3075E+00
                               -2.9371E-01  2.0272E+01 -4.3641E+01  2.5147E+03

           1    1.49005E+01     2.1850E-01  1.7222E-02 -1.0443E+00  1.0670E+00
ac ID =   33377                -1.0310E+00  3.7725E+00 -4.5141E-01  3.9368E+00
                               -2.9254E-01  2.0407E+01 -4.3527E+01  2.5147E+03

           1    1.50005E+01     2.1807E-01  1.5315E-03 -1.0138E+00  1.0370E+00
ac ID =   33377                -6.3488E-01  4.1788E+00 -8.2285E-01  4.3061E+00
                               -2.9140E-01  2.0543E+01 -4.3412E+01  2.5147E+03

           1    1.51005E+01     2.1600E-01  2.9141E-03 -9.2829E-01  9.5309E-01
ac ID =   33377                -1.1789E+00  3.1936E+00 -3.6386E-02  3.4044E+00
                               -2.9015E-01  2.0678E+01 -4.3296E+01  2.5147E+03

           1    1.52005E+01     1.8736E-01  1.5657E-02 -9.0768E-01  9.2695E-01
ac ID =   33377                -8.0478E-01  3.1146E+00  5.2716E-02  3.2173E+00
                               -2.8905E-01  2.0814E+01 -4.3179E+01  2.5147E+03

           1    1.53005E+01     1.9500E-01  9.6696E-03 -8.2867E-01  8.5136E-01
ac ID =   33377                -1.0593E+00  2.4827E+00  1.1222E-01  2.7015E+00
                               -2.8788E-01  2.0950E+01 -4.3061E+01  2.5147E+03

           1    1.54005E+01     1.8095E-01 -1.0978E-02 -7.8620E-01  8.0683E-01
ac ID =   33377                -5.8168E-01  2.5340E+00 -3.7112E-01  2.6262E+00
                               -2.8675E-01  2.1086E+01 -4.2943E+01  2.5147E+03

           1    1.55004E+01     1.8484E-01  9.3238E-03 -7.5166E-01  7.7411E-01
ac ID =   33377                -1.1710E+00  2.4928E+00 -2.5287E-01  2.7657E+00
                               -2.8560E-01  2.1222E+01 -4.2823E+01  2.5147E+03

           1    1.56004E+01     1.7595E-01  1.1450E-02 -6.8458E-01  7.0692E-01
ac ID =   33377                -8.6947E-01  3.0145E+00 -8.3845E-02  3.1385E+00
                               -2.8458E-01  2.1358E+01 -4.2704E+01  2.5147E+03

           1    1.57004E+01     1.9481E-01  5.7751E-03 -6.3628E-01  6.6546E-01
ac ID =   33377                -4.6483E-01  3.2816E+00  3.3661E-01  3.3314E+00
                               -2.8348E-01  2.1494E+01 -4.2583E+01  2.5147E+03

           1    1.58004E+01     1.9399E-01  6.6322E-03 -6.1282E-01  6.4283E-01
ac ID =   33377                -1.1685E+00  3.3464E+00  3.8543E-01  3.5655E+00
                               -2.8235E-01  2.1630E+01 -4.2462E+01  2.5147E+03

           1    1.59004E+01     1.7568E-01  1.8434E-02 -5.4122E-01  5.6932E-01
ac ID =   33377                -9.3308E-01  3.4651E+00 -4.4940E-01  3.6166E+00
                               -2.8146E-01  2.1766E+01 -4.2341E+01  2.5147E+03

           1    1.60004E+01     1.8829E-01 -4.7499E-04 -4.7415E-01  5.1017E-01
ac ID =   33377                -5.4725E-01  3.6389E+00  1.1238E-01  3.6815E+00
                               -2.8035E-01  2.1902E+01 -4.2219E+01  2.5147E+03

           1    1.61004E+01     1.7628E-01 -1.0082E-03 -4.3375E-01  4.6821E-01
ac ID =   33377                -6.3714E-01  3.7707E+00 -1.8563E-01  3.8286E+00
                               -2.7939E-01  2.2039E+01 -4.2098E+01  2.5147E+03

           1    1.62004E+01     1.6574E-01  2.7495E-02 -3.7445E-01  4.1041E-01
ac ID =   33377                -8.7420E-01  3.4352E+00 -2.6167E-01  3.5543E+00
                               -2.7854E-01  2.2175E+01 -4.1976E+01  2.5147E+03

           1    1.63004E+01     1.7023E-01 -9.9293E-03 -3.2805E-01  3.6972E-01
ac ID =   33377                -6.5189E-01  3.6694E+00 -5.3221E-01  3.7647E+00
                               -2.7751E-01  2.2311E+01 -4.1854E+01  2.5147E+03

           1    1.64004E+01     1.6534E-01  4.9579E-03 -2.8011E-01  3.2530E-01
ac ID =   33377                -5.0783E-01  3.2229E+00 -7.3361E-01  3.3442E+00
                               -2.7663E-01  2.2447E+01 -4.1732E+01  2.5147E+03

           1    1.65003E+01     1.8862E-01  6.8869E-03 -2.3946E-01  3.0490E-01
ac ID =   33377                -1.0421E+00  3.5776E+00 -1.2666E-01  3.7284E+00
                               -2.7574E-01  2.2583E+01 -4.1610E+01  2.5147E+03

           1    1.66003E+01     1.8145E-01  1.5453E-02 -2.0544E-01  2.7453E-01
ac ID =   33377                -6.8244E-01  3.7154E+00 -1.0575E-01  3.7790E+00
                               -2.7489E-01  2.2719E+01 -4.1489E+01  2.5147E+03

           1    1.67003E+01     1.6060E-01 -1.2344E-02 -1.5310E-01  2.2222E-01
ac ID =   33377                -5.5856E-01  3.4633E+00 -2.0424E-02  3.5082E+00
                               -2.7397E-01  2.2855E+01 -4.1367E+01  2.5147E+03

           1    1.68003E+01     1.6795E-01  7.1229E-03 -1.0546E-01  1.9844E-01
ac ID =   33377                -6.3763E-01  3.3055E+00 -9.1317E-02  3.3677E+00
                               -2.7315E-01  2.2991E+01 -4.1247E+01  2.5147E+03

           1    1.69003E+01     1.5947E-01  1.9153E-02 -3.6048E-02  1.6461E-01
ac ID =   33377                -6.8771E-01  2.8057E+00  2.5226E-01  2.8998E+00
                               -2.7237E-01  2.3127E+01 -4.1126E+01  2.5147E+03

           1    1.70003E+01     1.2589E-01 -8.3747E-03  1.0120E-02  1.2657E-01
ac ID =   33377                -3.7291E-01  1.8835E+00 -3.1933E-01  1.9464E+00
                               -2.7146E-01  2.3263E+01 -4.1006E+01  2.5147E+03

           1    1.71003E+01     1.2963E-01  3.2769E-03  2.7904E-02  1.3264E-01
ac ID =   33377                -2.9210E-01  1.8848E+00 -3.6180E-01  1.9413E+00
                               -2.7071E-01  2.3399E+01 -4.0887E+01  2.5147E+03

           1    1.72003E+01     1.4931E-01  8.7671E-03  6.9543E-02  1.6495E-01
ac ID =   33377                -6.2681E-01  2.3835E+00 -2.8999E-01  2.4815E+00
                               -2.6988E-01  2.3535E+01 -4.0768E+01  2.5147E+03

           1    1.73003E+01     1.2256E-01 -3.5611E-03  1.4366E-01  1.8887E-01
ac ID =   33377                -3.2954E-01  1.6509E+00  1.7127E-01  1.6921E+00
                               -2.6912E-01  2.3672E+01 -4.0651E+01  2.5147E+03

           1    1.74003E+01     1.2174E-01  7.0632E-03  1.6216E-01  2.0289E-01
ac ID =   33377                -2.7712E-01  1.6266E+00  4.9025E-01  1.7214E+00
                               -2.6836E-01  2.3808E+01 -4.0534E+01  2.5147E+03

           1    1.75002E+01     1.2967E-01 -8.3279E-03  1.9030E-01  2.3043E-01
ac ID =   33377                -2.2095E-01  1.1542E+00 -2.1882E-02  1.1754E+00
                               -2.6758E-01  2.3944E+01 -4.0417E+01  2.5147E+03

           1    1.76002E+01     1.0499E-01  1.9657E-02  2.1909E-01  2.4374E-01
ac ID =   33377                -5.4093E-01  5.2598E-01 -5.4441E-01  9.3040E-01
                               -2.6693E-01  2.4081E+01 -4.0302E+01  2.5147E+03

           1    1.77002E+01     7.8572E-02 -3.6832E-03  2.8881E-01  2.9933E-01
ac ID =   33377                -3.8087E-01 -2.6625E-01 -7.6004E-02  4.7088E-01
                               -2.6617E-01  2.4217E+01 -4.0188E+01  2.5147E+03

           1    1.78002E+01     1.0441E-01 -1.0023E-03  3.1522E-01  3.3206E-01
ac ID =   33377                -5.0540E-02  6.2719E-02 -8.7579E-02  1.1899E-01
                               -2.6551E-01  2.4354E+01 -4.0074E+01  2.5147E+03

           1    1.79002E+01     8.4285E-02  3.1269E-03  3.4095E-01  3.5123E-01
ac ID =   33377                -3.0378E-01 -5.7237E-01 -7.3061E-02  6.5209E-01
                               -2.6484E-01  2.4491E+01 -3.9962E+01  2.5147E+03

           1    1.80002E+01     7.2983E-02  1.1711E-02  3.7992E-01  3.8704E-01
ac ID =   33377                -6.7252E-01 -1.4205E+00 -7.4628E-02  1.5734E+00
                               -2.6419E-01  2.4628E+01 -3.9851E+01  2.5147E+03

           1    1.81002E+01     9.3941E-02 -9.2496E-03  4.1595E-01  4.2652E-01
ac ID =   33377                 2.1365E-01 -1.3264E+00 -6.3932E-01  1.4878E+00
                               -2.6359E-01  2.4766E+01 -3.9741E+01  2.5147E+03

           1    1.82002E+01     8.9926E-02 -1.3720E-03  4.3196E-01  4.4122E-01
ac ID =   33377                -6.0039E-01 -1.5815E+00 -1.7883E-01  1.7011E+00
                               -2.6291E-01  2.4903E+01 -3.9632E+01  2.5147E+03

           1    1.83002E+01     7.2749E-02  1.9516E-03  4.7253E-01  4.7810E-01
ac ID =   33377                 7.8380E-03 -1.6477E+00 -1.7314E-01  1.6568E+00
                               -2.6240E-01  2.5041E+01 -3.9525E+01  2.5147E+03

           1    1.84002E+01     3.6033E-02  5.4619E-03  4.9269E-01  4.9403E-01
ac ID =   33377                -5.3817E-01 -2.9102E+00  1.7736E-02  2.9596E+00
                               -2.6179E-01  2.5179E+01 -3.9419E+01  2.5147E+03

           1    1.85001E+01     9.7830E-02 -3.8210E-03  4.9746E-01  5.0700E-01
ac ID =   33377                -3.6265E-02 -1.9168E+00 -2.9222E-01  1.9393E+00
                               -2.6122E-01  2.5318E+01 -3.9314E+01  2.5147E+03

           1    1.86001E+01     5.4298E-02  3.2851E-03  5.8224E-01  5.8477E-01
ac ID =   33377                -2.7108E-01 -3.2258E+00 -4.6630E-01  3.2706E+00
                               -2.6071E-01  2.5456E+01 -3.9211E+01  2.5147E+03

           1    1.87001E+01     2.5023E-02  1.6109E-02  5.9922E-01  5.9996E-01
ac ID =   33377                -4.2077E-01 -4.2256E+00 -2.6203E-01  4.2545E+00
                               -2.6021E-01  2.5595E+01 -3.9109E+01  2.5147E+03

           1    1.88001E+01     7.9455E-02 -8.7987E-03  5.7701E-01  5.8252E-01
ac ID =   33377                -1.1424E-01 -2.7098E+00 -3.8656E-01  2.7396E+00
                               -2.5972E-01  2.5735E+01 -3.9009E+01  2.5147E+03

           1    1.89001E+01     3.5508E-02  3.6782E-03  6.3396E-01  6.3497E-01
ac ID =   33377                -2.8722E-01 -4.5025E+00 -1.6943E-01  4.5148E+00
                               -2.5927E-01  2.5875E+01 -3.8910E+01  2.5147E+03

           1    1.90001E+01     2.5610E-02  1.1587E-02  6.8075E-01  6.8133E-01
ac ID =   33377                -5.2104E-01 -4.9082E+00 -1.7056E-01  4.9387E+00
                               -2.5890E-01  2.6015E+01 -3.8814E+01  2.5147E+03

           1    1.91001E+01     6.8311E-02  6.5049E-03  6.6334E-01  6.6688E-01
ac ID =   33377                -5.1176E-01 -4.4228E+00 -3.2807E-01  4.4644E+00
                               -2.5852E-01  2.6156E+01 -3.8718E+01  2.5147E+03

           1    1.92001E+01     1.1516E-02 -1.8034E-02  7.0651E-01  7.0683E-01
ac ID =   33377                 4.2854E-02 -5.6866E+00 -2.1334E-01  5.6907E+00
                               -2.5819E-01  2.6297E+01 -3.8625E+01  2.5147E+03

           1    1.93001E+01     1.8192E-02  2.0010E-02  7.1346E-01  7.1397E-01
ac ID =   33377                -5.7216E-01 -6.0265E+00 -1.6152E-01  6.0557E+00
                               -2.5795E-01  2.6439E+01 -3.8533E+01  2.5147E+03

           1    1.94001E+01     4.0469E-02 -1.6395E-03  7.3437E-01  7.3548E-01
ac ID =   33377                -4.0644E-01 -5.6656E+00 -1.7110E-01  5.6828E+00
                               -2.5769E-01  2.6581E+01 -3.8443E+01  2.5147E+03

           1    1.95000E+01     1.9610E-02 -1.5731E-03  7.5459E-01  7.5484E-01
ac ID =   33377                 4.1604E-02 -6.5515E+00 -3.9734E-01  6.5636E+00
                               -2.5749E-01  2.6724E+01 -3.8355E+01  2.5147E+03

           1    1.96000E+01     8.0315E-03 -6.2114E-03  7.3774E-01  7.3781E-01
ac ID =   33377                -1.4562E-01 -6.8842E+00 -5.6339E-01  6.9087E+00
                               -2.5734E-01  2.6867E+01 -3.8269E+01  2.5147E+03

           1    1.97005E+01     3.5384E-02  2.2139E-02  7.4791E-01  7.4908E-01
ac ID =   33377                -5.5997E-01 -6.4153E+00 -4.4070E-01  6.4548E+00
                               -2.5721E-01  2.7012E+01 -3.8184E+01  2.5147E+03

           1    1.98005E+01     5.5121E-03 -4.7122E-03  7.6846E-01  7.6850E-01
ac ID =   33377                -5.8335E-02 -7.3017E+00 -1.9872E-01  7.3046E+00
                               -2.5714E-01  2.7156E+01 -3.8101E+01  2.5147E+03

           1    1.99005E+01     1.1466E-02 -4.0458E-03  7.7059E-01  7.7068E-01
ac ID =   33377                 4.9142E-02 -6.9978E+00 -7.7802E-02  6.9984E+00
                               -2.5709E-01  2.7301E+01 -3.8020E+01  2.5147E+03

           1    2.00005E+01     3.0427E-02  7.5879E-03  7.8045E-01  7.8107E-01
ac ID =   33377                -6.6312E-01 -6.9118E+00 -2.7864E-02  6.9436E+00
                               -2.5708E-01  2.7447E+01 -3.7941E+01  2.5147E+03

           1    2.01005E+01     1.2833E-02  9.3902E-03  7.8370E-01  7.8387E-01
ac ID =   33377                -2.1256E-01 -7.8198E+00 -2.2697E-01  7.8260E+00
                               -2.5717E-01  2.7593E+01 -3.7864E+01  2.5147E+03

           1    2.02005E+01     1.4741E-02 -7.2545E-03  7.7771E-01  7.7788E-01
ac ID =   33377                -9.1413E-02 -7.7989E+00 -2.2651E-01  7.8027E+00
                               -2.5723E-01  2.7739E+01 -3.7789E+01  2.5147E+03

           1    2.03005E+01     1.6529E-02 -2.6310E-03  8.0268E-01  8.0285E-01
ac ID =   33377                -3.4432E-01 -7.9920E+00 -1.9967E-01  8.0019E+00
                               -2.5733E-01  2.7886E+01 -3.7715E+01  2.5147E+03

           1    2.04005E+01     8.4536E-03  1.8680E-02  7.8512E-01  7.8539E-01
ac ID =   33377                -7.4107E-01 -8.3018E+00 -1.5338E-02  8.3348E+00
                               -2.5754E-01  2.8034E+01 -3.7644E+01  2.5147E+03

           1    2.05004E+01     2.6418E-03 -2.3709E-02  7.6671E-01  7.6708E-01
ac ID =   33377                 4.5955E-01 -8.4536E+00 -1.4272E-01  8.4673E+00
                               -2.5772E-01  2.8182E+01 -3.7574E+01  2.5147E+03

           1    2.06004E+01     2.1271E-02  1.1984E-02  7.8974E-01  7.9012E-01
ac ID =   33377                -4.1223E-01 -8.4424E+00 -1.9329E-01  8.4547E+00
                               -2.5795E-01  2.8330E+01 -3.7506E+01  2.5147E+03

           1    2.07004E+01     5.3739E-03  2.9076E-03  7.9515E-01  7.9517E-01
ac ID =   33377                -3.9770E-01 -8.9814E+00 -2.4400E-01  8.9935E+00
                               -2.5822E-01  2.8479E+01 -3.7440E+01  2.5147E+03

           1    2.08004E+01     1.1437E-02 -4.2851E-03  7.7838E-01  7.7847E-01
ac ID =   33377                 1.8415E-02 -8.9228E+00 -5.3374E-03  8.9229E+00
                               -2.5854E-01  2.8629E+01 -3.7376E+01  2.5147E+03

           1    2.09004E+01     6.2866E-03 -7.8634E-03  7.9191E-01  7.9198E-01
ac ID =   33377                 2.4520E-02 -8.9387E+00 -8.5622E-02  8.9392E+00
                               -2.5883E-01  2.8778E+01 -3.7313E+01  2.5147E+03

           1    2.10004E+01     1.7099E-02  1.1027E-02  7.8299E-01  7.8325E-01
ac ID =   33377                -3.0843E-01 -9.0569E+00 -1.0597E-01  9.0628E+00
                               -2.5920E-01  2.8929E+01 -3.7253E+01  2.5147E+03

           1    2.11004E+01     8.4568E-03  9.2579E-03  7.8466E-01  7.8476E-01
ac ID =   33377                -2.2602E-01 -9.3654E+00 -2.5350E-01  9.3716E+00
                               -2.5961E-01  2.9080E+01 -3.7194E+01  2.5147E+03

           1    2.12004E+01     1.6191E-02 -1.1566E-02  7.7255E-01  7.7281E-01
ac ID =   33377                 2.6085E-02 -9.3618E+00 -3.6726E-01  9.3690E+00
                               -2.5997E-01  2.9231E+01 -3.7137E+01  2.5147E+03

           1    2.13004E+01     1.3640E-02  7.9124E-03  7.5509E-01  7.5525E-01
ac ID =   33377                -2.1689E-01 -9.5982E+00 -4.5008E-01  9.6112E+00
                               -2.6044E-01  2.9383E+01 -3.7082E+01  2.5147E+03

           1    2.14004E+01     2.3686E-02  9.7539E-03  7.2641E-01  7.2686E-01
ac ID =   33377                -3.0273E-01 -9.2357E+00 -2.2575E-01  9.2434E+00
                               -2.6089E-01  2.9535E+01 -3.7028E+01  2.5147E+03

           1    2.15003E+01     1.5303E-02 -7.9232E-03  7.1251E-01  7.1272E-01
ac ID =   33377                 2.8931E-01 -9.6066E+00 -5.8106E-03  9.6110E+00
                               -2.6134E-01  2.9688E+01 -3.6976E+01  2.5147E+03

           1    2.16003E+01     4.8551E-02 -8.6670E-03  7.0152E-01  7.0325E-01
ac ID =   33377                -3.5025E-02 -9.3651E+00  8.5179E-02  9.3656E+00
                               -2.6178E-01  2.9840E+01 -3.6926E+01  2.5147E+03

           1    2.17003E+01     3.3883E-02  5.2395E-03  6.8841E-01  6.8927E-01
ac ID =   33377                -1.0648E-01 -9.5496E+00 -1.9686E-01  9.5522E+00
                               -2.6237E-01  2.9994E+01 -3.6878E+01  2.5147E+03

           1    2.18003E+01     2.1548E-02 -1.4794E-03  6.5308E-01  6.5344E-01
ac ID =   33377                 5.8250E-02 -9.9211E+00 -2.3015E-01  9.9240E+00
                               -2.6289E-01  3.0147E+01 -3.6831E+01  2.5147E+03

           1    2.19003E+01     3.4513E-02 -1.2637E-02  6.4864E-01  6.4968E-01
ac ID =   33377                 1.7636E-01 -9.6675E+00 -2.6033E-02  9.6692E+00
                               -2.6338E-01  3.0301E+01 -3.6785E+01  2.5147E+03

           1    2.20003E+01     3.6644E-02  7.5679E-03  6.2014E-01  6.2127E-01
ac ID =   33377                -4.8853E-02 -9.9101E+00 -3.9434E-02  9.9103E+00
                               -2.6399E-01  3.0455E+01 -3.6741E+01  2.5147E+03

           1    2.21003E+01     3.4775E-02  1.4026E-03  6.0144E-01  6.0245E-01
ac ID =   33377                -1.6654E-01 -1.0006E+01  1.5548E-01  1.0008E+01
                               -2.6453E-01  3.0610E+01 -3.6699E+01  2.5147E+03

           1    2.22003E+01     5.0312E-02  2.9605E-03  5.8347E-01  5.8564E-01
ac ID =   33377                 9.8578E-02 -1.0248E+01 -3.3756E-01  1.0254E+01
                               -2.6513E-01  3.0765E+01 -3.6658E+01  2.5147E+03

           1    2.23003E+01     5.2798E-02 -4.6068E-03  5.5012E-01  5.5266E-01
ac ID =   33377                 3.3046E-01 -1.0124E+01 -3.6197E-01  1.0136E+01
                               -2.6575E-01  3.0920E+01 -3.6618E+01  2.5147E+03

           1    2.24003E+01     2.2623E-02  1.0615E-02  5.3304E-01  5.3362E-01
ac ID =   33377                -1.4475E-02 -1.1005E+01 -6.6689E-04  1.1005E+01
                               -2.6637E-01  3.1075E+01 -3.6580E+01  2.5147E+03

           1    2.25002E+01     4.2838E-02 -2.2635E-03  5.1836E-01  5.2013E-01
ac ID =   33377                 1.9347E-01 -1.1075E+01  1.7869E-02  1.1077E+01
                               -2.6698E-01  3.1230E+01 -3.6542E+01  2.5147E+03

           1    2.26002E+01     5.8179E-02 -1.1657E-02  4.7521E-01  4.7890E-01
ac ID =   33377                 5.2590E-01 -1.0768E+01 -1.5616E-01  1.0782E+01
                               -2.6762E-01  3.1386E+01 -3.6506E+01  2.5147E+03

           1    2.27002E+01     1.5259E-02  6.9103E-03  4.6211E-01  4.6242E-01
ac ID =   33377                 1.4683E-01 -1.2129E+01 -1.9084E-01  1.2132E+01
                               -2.6826E-01  3.1542E+01 -3.6471E+01  2.5147E+03

           1    2.28002E+01     3.8505E-02 -2.7078E-03  4.5080E-01  4.5245E-01
ac ID =   33377                 1.8277E-01 -1.2119E+01 -2.7269E-01  1.2123E+01
                               -2.6889E-01  3.1698E+01 -3.6437E+01  2.5147E+03

           1    2.29002E+01     5.7713E-02  2.6498E-03  4.0716E-01  4.1124E-01
ac ID =   33377                 1.7122E-01 -1.2103E+01 -2.6802E-01  1.2107E+01
                               -2.6956E-01  3.1854E+01 -3.6404E+01  2.5147E+03

           1    2.30002E+01     2.6763E-02 -7.7073E-03  3.8034E-01  3.8136E-01
ac ID =   33377                 9.5466E-02 -1.3134E+01  9.6255E-02  1.3135E+01
                               -2.7014E-01  3.2011E+01 -3.6372E+01  2.5147E+03

           1    2.31002E+01     4.6231E-02 -1.6121E-04  3.6201E-01  3.6495E-01
ac ID =   33377                 1.8905E-01 -1.2910E+01 -4.9023E-02  1.2911E+01
                               -2.7082E-01  3.2167E+01 -3.6341E+01  2.5147E+03

           1    2.32002E+01     5.7955E-02  4.9830E-03  3.0677E-01  3.1224E-01
ac ID =   33377                 1.8468E-01 -1.2687E+01 -1.6334E-01  1.2689E+01
                               -2.7149E-01  3.2324E+01 -3.6311E+01  2.5147E+03

           1    2.33002E+01     3.4168E-02 -1.1143E-02  2.9603E-01  2.9820E-01
ac ID =   33377                 3.5244E-01 -1.3503E+01 -1.2175E-01  1.3508E+01
                               -2.7210E-01  3.2481E+01 -3.6281E+01  2.5147E+03

           1    2.34002E+01     4.5487E-02  5.9143E-03  2.7232E-01  2.7615E-01
ac ID =   33377                 2.1761E-01 -1.3567E+01 -5.8502E-03  1.3568E+01
                               -2.7278E-01  3.2638E+01 -3.6251E+01  2.5147E+03

           1    2.35001E+01     5.5144E-02 -7.4915E-03  2.3402E-01  2.4055E-01
ac ID =   33377                 3.0119E-01 -1.3310E+01 -1.4947E-01  1.3314E+01
                               -2.7342E-01  3.2795E+01 -3.6223E+01  2.5147E+03

           1    2.36001E+01     5.2802E-02 -7.8216E-03  1.9961E-01  2.0663E-01
ac ID =   33377                 3.8603E-01 -1.3677E+01 -1.1854E-01  1.3683E+01
                               -2.7405E-01  3.2952E+01 -3.6195E+01  2.5147E+03

           1    2.37001E+01     6.1681E-02 -3.1590E-03  1.8484E-01  1.9489E-01
ac ID =   33377                 2.4634E-01 -1.3536E+01 -8.6891E-02  1.3538E+01
                               -2.7471E-01  3.3109E+01 -3.6167E+01  2.5147E+03

           1    2.38001E+01     6.7131E-02  1.0233E-02  1.5955E-01  1.7340E-01
ac ID =   33377                 5.2373E-03 -1.3517E+01 -3.3291E-01  1.3521E+01
                               -2.7538E-01  3.3266E+01 -3.6139E+01  2.5147E+03

           1    2.39001E+01     6.3916E-02 -6.7724E-03  1.2270E-01  1.3852E-01
ac ID =   33377                 2.4209E-01 -1.3626E+01 -2.6789E-01  1.3631E+01
                               -2.7597E-01  3.3423E+01 -3.6112E+01  2.5147E+03

           1    2.40001E+01     6.7934E-02  1.2987E-03  9.9790E-02  1.2073E-01
ac ID =   33377                -7.6194E-02 -1.3599E+01 -6.9083E-02  1.3599E+01
                               -2.7658E-01  3.3580E+01 -3.6085E+01  2.5147E+03

           1    2.41001E+01     6.9679E-02 -1.3369E-04  7.8482E-02  1.0495E-01
ac ID =   33377                 8.3448E-02 -1.3665E+01  4.9042E-02  1.3665E+01
                               -2.7719E-01  3.3737E+01 -3.6058E+01  2.5147E+03

           1    2.42001E+01     7.1753E-02  5.4349E-03  4.8094E-02  8.6552E-02
ac ID =   33377                -1.6128E-02 -1.3720E+01  1.1684E-02  1.3720E+01
                               -2.7777E-01  3.3894E+01 -3.6032E+01  2.5147E+03

           1    2.43001E+01     9.1647E-02 -2.5352E-03  1.6052E-02  9.3077E-02
ac ID =   33377                 2.3658E-01 -1.3516E+01 -2.7761E-01  1.3521E+01
                               -2.7836E-01  3.4050E+01 -3.6005E+01  2.5147E+03

           1    2.44001E+01     8.0217E-02 -9.7142E-04 -1.1201E-02  8.1001E-02
ac ID =   33377                 1.5922E-01 -1.3728E+01 -3.3986E-01  1.3733E+01
                               -2.7892E-01  3.4207E+01 -3.5978E+01  2.5147E+03

           1    2.45005E+01     9.0483E-02  1.8913E-03 -5.0655E-02  1.0371E-01
ac ID =   33377                 2.0469E-01 -1.3539E+01 -4.2112E-01  1.3547E+01
                               -2.7950E-01  3.4364E+01 -3.5951E+01  2.5147E+03

           1    2.46005E+01     1.0318E-01 -5.6037E-03 -6.6160E-02  1.2270E-01
ac ID =   33377                 2.6690E-01 -1.3257E+01 -1.7013E-01  1.3260E+01
                               -2.8003E-01  3.4520E+01 -3.5924E+01  2.5147E+03

           1    2.47005E+01     1.0254E-01 -2.7225E-04 -8.5115E-02  1.3326E-01
ac ID =   33377                 2.1842E-01 -1.3333E+01 -9.6932E-02  1.3335E+01
                               -2.8057E-01  3.4676E+01 -3.5897E+01  2.5147E+03

           1    2.48005E+01     1.1079E-01  4.0849E-03 -1.2508E-01  1.6714E-01
ac ID =   33377                 1.4065E-02 -1.3119E+01 -1.1459E-01  1.3119E+01
                               -2.8108E-01  3.4831E+01 -3.5870E+01  2.5147E+03

           1    2.49005E+01     1.1315E-01  1.8829E-03 -1.3797E-01  1.7845E-01
ac ID =   33377                 1.4812E-01 -1.3037E+01 -1.9565E-01  1.3039E+01
                               -2.8159E-01  3.4987E+01 -3.5842E+01  2.5147E+03

