 LSTC 50th% Full_FE H-III Dummy (Beta Version, February 17, 2019)        
                    ls-dyna smp s R16 R16.0_619_d222963 date 03/18/2025

{BEGIN LEGEND}
 Entity #        Title
    22626                                                                                     
{END LEGEND}




 n o d a l   p r i n t   o u t   f o r   t i m e  s t e p       1                              ( at time 0.0000000E+00 )

 nodal point  x-disp     y-disp      z-disp      x-vel       y-vel       z-vel      x-accl      y-accl      z-accl      x-coor      y-coor      z-coor
    22626  0.00000E+00 0.00000E+00 0.00000E+00 0.00000E+00 0.00000E+00-3.12000E+00 0.00000E+00 0.00000E+00 0.00000E+00 4.79642E+01-2.20298E+01 7.33850E+00



 n o d a l   p r i n t   o u t   f o r   t i m e  s t e p       1                              ( at time 0.0000000E+00 )

 nodal point  x-rot      y-rot       z-rot       x-rot vel   y-rot vel   z-rot vel   x-rot acc   y-rot acc   z-rot acc
    22626  0.00000E+00 0.00000E+00 0.00000E+00 0.00000E+00 0.00000E+00 0.00000E+00 0.00000E+00 0.00000E+00 0.00000E+00



 n o d a l   p r i n t   o u t   f o r   t i m e  s t e p     201                              ( at time 9.9989993E-02 )

 nodal point  x-disp     y-disp      z-disp      x-vel       y-vel       z-vel      x-accl      y-accl      z-accl      x-coor      y-coor      z-coor
    22626  8.34227E-07-4.04508E-06-3.12016E-01 4.76497E-05-4.96468E-04-3.12074E+00 4.76544E-04-4.96518E-03-7.42748E-03 4.79642E+01-2.20298E+01 7.02648E+00



 n o d a l   p r i n t   o u t   f o r   t i m e  s t e p     201                              ( at time 9.9989993E-02 )

 nodal point  x-rot      y-rot       z-rot       x-rot vel   y-rot vel   z-rot vel   x-rot acc   y-rot acc   z-rot acc
    22626  9.60460E-09 3.04051E-08 5.27052E-08 1.30686E-06 2.72141E-06 5.21097E-06 1.30699E-05 2.72169E-05 5.21149E-05



 n o d a l   p r i n t   o u t   f o r   t i m e  s t e p     401                              ( at time 1.9997999E-01 )

 nodal point  x-disp     y-disp      z-disp      x-vel       y-vel       z-vel      x-accl      y-accl      z-accl      x-coor      y-coor      z-coor
    22626 -5.12754E-05-5.21545E-04-6.23853E-01-1.09635E-03-1.11150E-02-3.11558E+00-1.14412E-02-1.06196E-01 5.16204E-02 4.79641E+01-2.20303E+01 6.71465E+00



 n o d a l   p r i n t   o u t   f o r   t i m e  s t e p     401                              ( at time 1.9997999E-01 )

 nodal point  x-rot      y-rot       z-rot       x-rot vel   y-rot vel   z-rot vel   x-rot acc   y-rot acc   z-rot acc
    22626  4.60232E-07 1.32992E-06 2.50224E-06 2.67226E-06 1.90612E-05 3.49801E-05 1.36554E-05 1.63414E-04 2.97721E-04



 n o d a l   p r i n t   o u t   f o r   t i m e  s t e p     601                              ( at time 2.9996998E-01 )

 nodal point  x-disp     y-disp      z-disp      x-vel       y-vel       z-vel      x-accl      y-accl      z-accl      x-coor      y-coor      z-coor
    22626 -2.45533E-05-1.97636E-03-9.35238E-01 1.66066E-03-1.60422E-02-3.11415E+00 2.75729E-02-4.92776E-02 1.43375E-02 4.79642E+01-2.20318E+01 6.40326E+00



 n o d a l   p r i n t   o u t   f o r   t i m e  s t e p     601                              ( at time 2.9996998E-01 )

 nodal point  x-rot      y-rot       z-rot       x-rot vel   y-rot vel   z-rot vel   x-rot acc   y-rot acc   z-rot acc
    22626  6.74639E-07 2.41155E-06 4.82813E-06 8.25379E-06 5.31794E-06 1.46732E-05 5.58209E-05-1.37446E-04-2.03089E-04



 n o d a l   p r i n t   o u t   f o r   t i m e  s t e p     801                              ( at time 3.9995997E-01 )

 nodal point  x-disp     y-disp      z-disp      x-vel       y-vel       z-vel      x-accl      y-accl      z-accl      x-coor      y-coor      z-coor
    22626  5.94563E-05-3.57405E-03-1.24663E+00 1.94750E-04-1.73893E-02-3.11353E+00-1.46605E-02-1.34718E-02 6.15181E-03 4.79642E+01-2.20334E+01 6.09187E+00



 n o d a l   p r i n t   o u t   f o r   t i m e  s t e p     801                              ( at time 3.9995997E-01 )

 nodal point  x-rot      y-rot       z-rot       x-rot vel   y-rot vel   z-rot vel   x-rot acc   y-rot acc   z-rot acc
    22626  1.58181E-06 3.68099E-06 6.68029E-06 6.26952E-06 2.42850E-05 3.82622E-05-1.98447E-05 1.89690E-04 2.35913E-04



 n o d a l   p r i n t   o u t   f o r   t i m e  s t e p    1001                              ( at time 4.9994997E-01 )

 nodal point  x-disp     y-disp      z-disp      x-vel       y-vel       z-vel      x-accl      y-accl      z-accl      x-coor      y-coor      z-coor
    22626  7.27535E-05-5.63147E-03-1.55782E+00 8.88686E-04-2.38471E-02-3.11085E+00 6.94006E-03-6.45850E-02 2.67866E-02 4.79643E+01-2.20354E+01 5.78068E+00



 n o d a l   p r i n t   o u t   f o r   t i m e  s t e p    1001                              ( at time 4.9994997E-01 )

 nodal point  x-rot      y-rot       z-rot       x-rot vel   y-rot vel   z-rot vel   x-rot acc   y-rot acc   z-rot acc
    22626  1.49454E-06 6.64814E-06 1.18373E-05-4.83231E-06 4.37640E-05 7.19950E-05-1.11029E-04 1.94809E-04 3.37362E-04



 n o d a l   p r i n t   o u t   f o r   t i m e  s t e p    1201                              ( at time 5.9993996E-01 )

 nodal point  x-disp     y-disp      z-disp      x-vel       y-vel       z-vel      x-accl      y-accl      z-accl      x-coor      y-coor      z-coor
    22626  5.29556E-05-8.13742E-03-1.86888E+00-5.67060E-04-2.61260E-02-3.11084E+00-1.45589E-02-2.27912E-02 1.38297E-04 4.79642E+01-2.20379E+01 5.46962E+00



 n o d a l   p r i n t   o u t   f o r   t i m e  s t e p    1201                              ( at time 5.9993996E-01 )

 nodal point  x-rot      y-rot       z-rot       x-rot vel   y-rot vel   z-rot vel   x-rot acc   y-rot acc   z-rot acc
    22626  1.26505E-06 9.87485E-06 1.77371E-05-2.14124E-06 2.63374E-05 5.29293E-05 2.69134E-05-1.74283E-04-1.90676E-04



 n o d a l   p r i n t   o u t   f o r   t i m e  s t e p    1401                              ( at time 6.9992995E-01 )

 nodal point  x-disp     y-disp      z-disp      x-vel       y-vel       z-vel      x-accl      y-accl      z-accl      x-coor      y-coor      z-coor
    22626  1.97037E-05-1.10207E-02-2.17976E+00 7.13571E-04-3.22401E-02-3.10770E+00 1.28076E-02-6.11473E-02 3.14196E-02 4.79642E+01-2.20408E+01 5.15874E+00



 n o d a l   p r i n t   o u t   f o r   t i m e  s t e p    1401                              ( at time 6.9992995E-01 )

 nodal point  x-rot      y-rot       z-rot       x-rot vel   y-rot vel   z-rot vel   x-rot acc   y-rot acc   z-rot acc
    22626  1.10237E-06 1.30698E-05 2.27044E-05-2.44922E-06 3.78241E-05 5.92549E-05-3.08011E-06 1.14879E-04 6.32630E-05



 n o d a l   p r i n t   o u t   f o r   t i m e  s t e p    1601                              ( at time 7.9991994E-01 )

 nodal point  x-disp     y-disp      z-disp      x-vel       y-vel       z-vel      x-accl      y-accl      z-accl      x-coor      y-coor      z-coor
    22626  1.33067E-04-1.45710E-02-2.49038E+00 1.37204E-03-3.68144E-02-3.10600E+00 6.58536E-03-4.57474E-02 1.69628E-02 4.79643E+01-2.20444E+01 4.84812E+00



 n o d a l   p r i n t   o u t   f o r   t i m e  s t e p    1601                              ( at time 7.9991994E-01 )

 nodal point  x-rot      y-rot       z-rot       x-rot vel   y-rot vel   z-rot vel   x-rot acc   y-rot acc   z-rot acc
    22626  1.00672E-06 1.72056E-05 2.96651E-05 2.97587E-06 4.86793E-05 7.62943E-05 5.42564E-05 1.08563E-04 1.70411E-04



 n o d a l   p r i n t   o u t   f o r   t i m e  s t e p    1801                              ( at time 8.9990994E-01 )

 nodal point  x-disp     y-disp      z-disp      x-vel       y-vel       z-vel      x-accl      y-accl      z-accl      x-coor      y-coor      z-coor
    22626  2.07408E-04-1.82140E-02-2.80104E+00-5.13608E-04-3.64338E-02-3.10742E+00-1.88584E-02 3.80651E-03-1.41802E-02 4.79644E+01-2.20480E+01 4.53746E+00



 n o d a l   p r i n t   o u t   f o r   t i m e  s t e p    1801                              ( at time 8.9990994E-01 )

 nodal point  x-rot      y-rot       z-rot       x-rot vel   y-rot vel   z-rot vel   x-rot acc   y-rot acc   z-rot acc
    22626  1.02467E-06 2.13206E-05 3.66559E-05-1.89271E-06 3.79497E-05 6.82864E-05-4.86907E-05-1.07307E-04-8.00872E-05



 n o d a l   p r i n t   o u t   f o r   t i m e  s t e p    2001                              ( at time 9.9989993E-01 )

 nodal point  x-disp     y-disp      z-disp      x-vel       y-vel       z-vel      x-accl      y-accl      z-accl      x-coor      y-coor      z-coor
    22626  1.09807E-04-2.19276E-02-3.11175E+00-8.19865E-04-3.83974E-02-3.10755E+00-3.06288E-03-1.96378E-02-1.31859E-03 4.79643E+01-2.20517E+01 4.22675E+00



 n o d a l   p r i n t   o u t   f o r   t i m e  s t e p    2001                              ( at time 9.9989993E-01 )

 nodal point  x-rot      y-rot       z-rot       x-rot vel   y-rot vel   z-rot vel   x-rot acc   y-rot acc   z-rot acc
    22626  8.56960E-07 2.55335E-05 4.38497E-05-9.65773E-07 4.61638E-05 8.59566E-05 9.27032E-06 8.21489E-05 1.76720E-04



 n o d a l   p r i n t   o u t   f o r   t i m e  s t e p    2201                              ( at time 1.0998899E+00 )

 nodal point  x-disp     y-disp      z-disp      x-vel       y-vel       z-vel      x-accl      y-accl      z-accl      x-coor      y-coor      z-coor
    22626  9.18941E-05-2.58761E-02-3.42246E+00-2.17865E-04-4.02557E-02-3.10712E+00 6.02061E-03-1.85855E-02 4.35396E-03 4.79643E+01-2.20557E+01 3.91605E+00



 n o d a l   p r i n t   o u t   f o r   t i m e  s t e p    2201                              ( at time 1.0998899E+00 )

 nodal point  x-rot      y-rot       z-rot       x-rot vel   y-rot vel   z-rot vel   x-rot acc   y-rot acc   z-rot acc
    22626  9.33012E-07 3.03118E-05 5.24803E-05 5.30961E-06 4.64498E-05 7.50675E-05 6.27601E-05 2.86076E-06-1.08902E-04



 n o d a l   p r i n t   o u t   f o r   t i m e  s t e p    2401                              ( at time 1.1998799E+00 )

 nodal point  x-disp     y-disp      z-disp      x-vel       y-vel       z-vel      x-accl      y-accl      z-accl      x-coor      y-coor      z-coor
    22626  1.34341E-04-2.98901E-02-3.73320E+00 7.34732E-04-3.98011E-02-3.10850E+00 9.52692E-03 4.54695E-03-1.38034E-02 4.79643E+01-2.20597E+01 3.60531E+00



 n o d a l   p r i n t   o u t   f o r   t i m e  s t e p    2401                              ( at time 1.1998799E+00 )

 nodal point  x-rot      y-rot       z-rot       x-rot vel   y-rot vel   z-rot vel   x-rot acc   y-rot acc   z-rot acc
    22626  1.33656E-06 3.44659E-05 5.93281E-05 5.02947E-06 3.99010E-05 6.55576E-05-2.80171E-06-6.54946E-05-9.51090E-05



 n o d a l   p r i n t   o u t   f o r   t i m e  s t e p    2601                              ( at time 1.2998699E+00 )

 nodal point  x-disp     y-disp      z-disp      x-vel       y-vel       z-vel      x-accl      y-accl      z-accl      x-coor      y-coor      z-coor
    22626  1.46175E-04-3.37304E-02-4.04413E+00-4.24441E-04-3.65907E-02-3.11133E+00-1.15929E-02 3.21070E-02-2.83055E-02 4.79643E+01-2.20635E+01 3.29437E+00



 n o d a l   p r i n t   o u t   f o r   t i m e  s t e p    2601                              ( at time 1.2998699E+00 )

 nodal point  x-rot      y-rot       z-rot       x-rot vel   y-rot vel   z-rot vel   x-rot acc   y-rot acc   z-rot acc
    22626  1.63858E-06 3.85440E-05 6.61322E-05-2.48180E-06 4.54735E-05 7.98407E-05-7.51202E-05 5.57307E-05 1.42845E-04



 n o d a l   p r i n t   o u t   f o r   t i m e  s t e p    2801                              ( at time 1.3998599E+00 )

 nodal point  x-disp     y-disp      z-disp      x-vel       y-vel       z-vel      x-accl      y-accl      z-accl      x-coor      y-coor      z-coor
    22626  3.22025E-05-3.71241E-02-4.35543E+00-1.30911E-03-3.14367E-02-3.11511E+00-8.84754E-03 5.15452E-02-3.78194E-02 4.79642E+01-2.20669E+01 2.98307E+00



 n o d a l   p r i n t   o u t   f o r   t i m e  s t e p    2801                              ( at time 1.3998599E+00 )

 nodal point  x-rot      y-rot       z-rot       x-rot vel   y-rot vel   z-rot vel   x-rot acc   y-rot acc   z-rot acc
    22626  1.20458E-06 4.29491E-05 7.39894E-05-4.50894E-06 4.45727E-05 7.34735E-05-2.02734E-05-9.00915E-06-6.36778E-05



 n o d a l   p r i n t   o u t   f o r   t i m e  s t e p    3001                              ( at time 1.4998499E+00 )

 nodal point  x-disp     y-disp      z-disp      x-vel       y-vel       z-vel      x-accl      y-accl      z-accl      x-coor      y-coor      z-coor
    22626 -7.75756E-05-4.01687E-02-4.66702E+00-4.96946E-04-2.97709E-02-3.11713E+00 8.12242E-03 1.66600E-02-2.02175E-02 4.79641E+01-2.20700E+01 2.67148E+00



 n o d a l   p r i n t   o u t   f o r   t i m e  s t e p    3001                              ( at time 1.4998499E+00 )

 nodal point  x-rot      y-rot       z-rot       x-rot vel   y-rot vel   z-rot vel   x-rot acc   y-rot acc   z-rot acc
    22626  8.27437E-07 4.68524E-05 8.05187E-05-1.64528E-06 3.19097E-05 5.70756E-05 2.86395E-05-1.26643E-04-1.63996E-04



 n o d a l   p r i n t   o u t   f o r   t i m e  s t e p    3201                              ( at time 1.5998399E+00 )

 nodal point  x-disp     y-disp      z-disp      x-vel       y-vel       z-vel      x-accl      y-accl      z-accl      x-coor      y-coor      z-coor
    22626 -1.24291E-04-4.30592E-02-4.97879E+00-6.98390E-04-2.75057E-02-3.11940E+00-2.01464E-03 2.26544E-02-2.27045E-02 4.79641E+01-2.20728E+01 2.35971E+00



 n o d a l   p r i n t   o u t   f o r   t i m e  s t e p    3201                              ( at time 1.5998399E+00 )

 nodal point  x-rot      y-rot       z-rot       x-rot vel   y-rot vel   z-rot vel   x-rot acc   y-rot acc   z-rot acc
    22626  5.15620E-07 4.99113E-05 8.53932E-05-1.53585E-06 3.26387E-05 4.78619E-05 1.09435E-06 7.29102E-06-9.21463E-05



 n o d a l   p r i n t   o u t   f o r   t i m e  s t e p    3401                              ( at time 1.6998299E+00 )

 nodal point  x-disp     y-disp      z-disp      x-vel       y-vel       z-vel      x-accl      y-accl      z-accl      x-coor      y-coor      z-coor
    22626 -2.10893E-04-4.55737E-02-5.29089E+00-1.12505E-03-2.24407E-02-3.12325E+00-4.26701E-03 5.06546E-02-3.84727E-02 4.79640E+01-2.20754E+01 2.04762E+00



 n o d a l   p r i n t   o u t   f o r   t i m e  s t e p    3401                              ( at time 1.6998299E+00 )

 nodal point  x-rot      y-rot       z-rot       x-rot vel   y-rot vel   z-rot vel   x-rot acc   y-rot acc   z-rot acc
    22626  3.01326E-07 5.29947E-05 9.04301E-05-3.85857E-06 2.98607E-05 4.78315E-05-2.32295E-05-2.77834E-05-3.03256E-07



 n o d a l   p r i n t   o u t   f o r   t i m e  s t e p    3601                              ( at time 1.7998199E+00 )

 nodal point  x-disp     y-disp      z-disp      x-vel       y-vel       z-vel      x-accl      y-accl      z-accl      x-coor      y-coor      z-coor
    22626 -3.12510E-04-4.75644E-02-5.60339E+00-1.32870E-03-1.77160E-02-3.12732E+00-2.03671E-03 4.72523E-02-4.07403E-02 4.79639E+01-2.20774E+01 1.73511E+00



 n o d a l   p r i n t   o u t   f o r   t i m e  s t e p    3601                              ( at time 1.7998199E+00 )

 nodal point  x-rot      y-rot       z-rot       x-rot vel   y-rot vel   z-rot vel   x-rot acc   y-rot acc   z-rot acc
    22626  1.54770E-07 5.57828E-05 9.51869E-05-3.89902E-07 2.14402E-05 4.21457E-05 3.46902E-05-8.42128E-05-5.68637E-05



 n o d a l   p r i n t   o u t   f o r   t i m e  s t e p    3801                              ( at time 1.8998099E+00 )

 nodal point  x-disp     y-disp      z-disp      x-vel       y-vel       z-vel      x-accl      y-accl      z-accl      x-coor      y-coor      z-coor
    22626 -5.00171E-04-4.92021E-02-5.91621E+00-2.16059E-03-1.51669E-02-3.12982E+00-8.31974E-03 2.54934E-02-2.49673E-02 4.79637E+01-2.20790E+01 1.42229E+00



 n o d a l   p r i n t   o u t   f o r   t i m e  s t e p    3801                              ( at time 1.8998099E+00 )

 nodal point  x-rot      y-rot       z-rot       x-rot vel   y-rot vel   z-rot vel   x-rot acc   y-rot acc   z-rot acc
    22626 -8.94161E-08 5.76808E-05 9.86032E-05 1.59716E-06 1.55623E-05 2.75932E-05 1.98726E-05-5.87849E-05-1.45540E-04



 n o d a l   p r i n t   o u t   f o r   t i m e  s t e p    4001                              ( at time 1.9997999E+00 )

 nodal point  x-disp     y-disp      z-disp      x-vel       y-vel       z-vel      x-accl      y-accl      z-accl      x-coor      y-coor      z-coor
    22626 -6.73510E-04-5.05927E-02-6.22929E+00-1.64974E-03-1.28135E-02-3.13210E+00 5.10904E-03 2.35362E-02-2.28356E-02 4.79635E+01-2.20804E+01 1.10921E+00



 n o d a l   p r i n t   o u t   f o r   t i m e  s t e p    4001                              ( at time 1.9997999E+00 )

 nodal point  x-rot      y-rot       z-rot       x-rot vel   y-rot vel   z-rot vel   x-rot acc   y-rot acc   z-rot acc
    22626  1.14980E-07 5.90186E-05 1.00915E-04 3.43445E-06 1.32684E-05 2.02147E-05 1.83747E-05-2.29418E-05-7.37916E-05



 n o d a l   p r i n t   o u t   f o r   t i m e  s t e p    4201                              ( at time 2.0997899E+00 )

 nodal point  x-disp     y-disp      z-disp      x-vel       y-vel       z-vel      x-accl      y-accl      z-accl      x-coor      y-coor      z-coor
    22626 -8.42793E-04-5.16837E-02-6.54262E+00-1.86437E-03-9.15296E-03-3.13518E+00-2.14658E-03 3.66090E-02-3.07996E-02 4.79633E+01-2.20815E+01 7.95877E-01



 n o d a l   p r i n t   o u t   f o r   t i m e  s t e p    4201                              ( at time 2.0997899E+00 )

 nodal point  x-rot      y-rot       z-rot       x-rot vel   y-rot vel   z-rot vel   x-rot acc   y-rot acc   z-rot acc
    22626  4.01241E-07 5.96596E-05 1.02001E-04-1.35207E-06 3.38928E-06 1.67007E-06-4.78700E-05-9.88008E-05-1.85465E-04



 n o d a l   p r i n t   o u t   f o r   t i m e  s t e p    4401                              ( at time 2.1997798E+00 )

 nodal point  x-disp     y-disp      z-disp      x-vel       y-vel       z-vel      x-accl      y-accl      z-accl      x-coor      y-coor      z-coor
    22626 -1.08500E-03-5.23703E-02-6.85629E+00-2.76811E-03-4.41660E-03-3.13894E+00-9.03831E-03 4.73684E-02-3.76358E-02 4.79631E+01-2.20822E+01 4.82213E-01



 n o d a l   p r i n t   o u t   f o r   t i m e  s t e p    4401                              ( at time 2.1997798E+00 )

 nodal point  x-rot      y-rot       z-rot       x-rot vel   y-rot vel   z-rot vel   x-rot acc   y-rot acc   z-rot acc
    22626  2.22059E-07 5.96526E-05 1.01932E-04-1.26279E-06-2.04212E-06-2.96587E-06 8.92938E-07-5.43195E-05-4.63641E-05



 n o d a l   p r i n t   o u t   f o r   t i m e  s t e p    4601                              ( at time 2.2997698E+00 )

 nodal point  x-disp     y-disp      z-disp      x-vel       y-vel       z-vel      x-accl      y-accl      z-accl      x-coor      y-coor      z-coor
    22626 -1.39398E-03-5.25657E-02-7.17034E+00-3.51651E-03-8.02381E-05-3.14228E+00-7.48473E-03 4.33679E-02-3.33747E-02 4.79628E+01-2.20824E+01 1.68163E-01



 n o d a l   p r i n t   o u t   f o r   t i m e  s t e p    4601                              ( at time 2.2997698E+00 )

 nodal point  x-rot      y-rot       z-rot       x-rot vel   y-rot vel   z-rot vel   x-rot acc   y-rot acc   z-rot acc
    22626 -1.67423E-07 5.93404E-05 1.01561E-04-4.49856E-06-9.86382E-06-1.30414E-05-3.23609E-05-7.82247E-05-1.00765E-04



 n o d a l   p r i n t   o u t   f o r   t i m e  s t e p    4801                              ( at time 2.3997598E+00 )

 nodal point  x-disp     y-disp      z-disp      x-vel       y-vel       z-vel      x-accl      y-accl      z-accl      x-coor      y-coor      z-coor
    22626 -1.76285E-03-5.24784E-02-7.48464E+00-3.62682E-03 1.86895E-03-3.14440E+00-1.10320E-03 1.94939E-02-2.11594E-02 4.79624E+01-2.20823E+01-1.46135E-01



 n o d a l   p r i n t   o u t   f o r   t i m e  s t e p    4801                              ( at time 2.3997598E+00 )

 nodal point  x-rot      y-rot       z-rot       x-rot vel   y-rot vel   z-rot vel   x-rot acc   y-rot acc   z-rot acc
    22626 -7.15166E-07 5.80744E-05 9.90722E-05-6.03026E-06-1.62055E-05-3.39188E-05-1.53186E-05-6.34229E-05-2.08795E-04



 n o d a l   p r i n t   o u t   f o r   t i m e  s t e p    5001                              ( at time 2.4997498E+00 )

 nodal point  x-disp     y-disp      z-disp      x-vel       y-vel       z-vel      x-accl      y-accl      z-accl      x-coor      y-coor      z-coor
    22626 -2.15619E-03-5.21712E-02-7.79916E+00-4.24267E-03 4.95906E-03-3.14711E+00-6.15905E-03 3.09041E-02-2.71299E-02 4.79620E+01-2.20820E+01-4.60661E-01



 n o d a l   p r i n t   o u t   f o r   t i m e  s t e p    5001                              ( at time 2.4997498E+00 )

 nodal point  x-rot      y-rot       z-rot       x-rot vel   y-rot vel   z-rot vel   x-rot acc   y-rot acc   z-rot acc
    22626 -1.16393E-06 5.58418E-05 9.51061E-05-4.06743E-06-2.62423E-05-4.84215E-05 1.96302E-05-1.00378E-04-1.45041E-04



 n o d a l   p r i n t   o u t   f o r   t i m e  s t e p    5201                              ( at time 2.5997398E+00 )

 nodal point  x-disp     y-disp      z-disp      x-vel       y-vel       z-vel      x-accl      y-accl      z-accl      x-coor      y-coor      z-coor
    22626 -2.63066E-03-5.14568E-02-8.11403E+00-5.26017E-03 9.27340E-03-3.15070E+00-1.01761E-02 4.31477E-02-3.59047E-02 4.79615E+01-2.20812E+01-7.75526E-01



 n o d a l   p r i n t   o u t   f o r   t i m e  s t e p    5201                              ( at time 2.5997398E+00 )

 nodal point  x-rot      y-rot       z-rot       x-rot vel   y-rot vel   z-rot vel   x-rot acc   y-rot acc   z-rot acc
    22626 -1.53595E-06 5.27372E-05 8.96641E-05-4.66510E-06-3.58537E-05-6.23939E-05-5.97728E-06-9.61238E-05-1.39738E-04



 n o d a l   p r i n t   o u t   f o r   t i m e  s t e p    5401                              ( at time 2.6997298E+00 )

 nodal point  x-disp     y-disp      z-disp      x-vel       y-vel       z-vel      x-accl      y-accl      z-accl      x-coor      y-coor      z-coor
    22626 -3.20075E-03-5.03217E-02-8.42925E+00-6.43205E-03 1.29793E-02-3.15421E+00-1.17199E-02 3.70629E-02-3.51440E-02 4.79610E+01-2.20801E+01-1.09074E+00



 n o d a l   p r i n t   o u t   f o r   t i m e  s t e p    5401                              ( at time 2.6997298E+00 )

 nodal point  x-rot      y-rot       z-rot       x-rot vel   y-rot vel   z-rot vel   x-rot acc   y-rot acc   z-rot acc
    22626 -1.83286E-06 4.89842E-05 8.31559E-05-1.85221E-06-4.13581E-05-6.69299E-05 2.81317E-05-5.50499E-05-4.53644E-05



 n o d a l   p r i n t   o u t   f o r   t i m e  s t e p    5601                              ( at time 2.7997198E+00 )

 nodal point  x-disp     y-disp      z-disp      x-vel       y-vel       z-vel      x-accl      y-accl      z-accl      x-coor      y-coor      z-coor
    22626 -3.91489E-03-4.88975E-02-8.74475E+00-7.68538E-03 1.51502E-02-3.15635E+00-1.25345E-02 2.17107E-02-2.13502E-02 4.79603E+01-2.20787E+01-1.40625E+00



 n o d a l   p r i n t   o u t   f o r   t i m e  s t e p    5601                              ( at time 2.7997198E+00 )

 nodal point  x-rot      y-rot       z-rot       x-rot vel   y-rot vel   z-rot vel   x-rot acc   y-rot acc   z-rot acc
    22626 -1.96826E-06 4.40915E-05 7.50494E-05 2.96138E-07-5.73809E-05-9.86124E-05 2.14857E-05-1.60244E-04-3.16857E-04



 n o d a l   p r i n t   o u t   f o r   t i m e  s t e p    5801                              ( at time 2.8997098E+00 )

 nodal point  x-disp     y-disp      z-disp      x-vel       y-vel       z-vel      x-accl      y-accl      z-accl      x-coor      y-coor      z-coor
    22626 -4.68703E-03-4.73290E-02-9.06044E+00-7.82039E-03 1.61428E-02-3.15804E+00-1.35025E-03 9.92767E-03-1.69247E-02 4.79595E+01-2.20771E+01-1.72194E+00



 n o d a l   p r i n t   o u t   f o r   t i m e  s t e p    5801                              ( at time 2.8997098E+00 )

 nodal point  x-rot      y-rot       z-rot       x-rot vel   y-rot vel   z-rot vel   x-rot acc   y-rot acc   z-rot acc
    22626 -1.76845E-06 3.76498E-05 6.41368E-05 2.46436E-06-6.65932E-05-1.15380E-04 2.16844E-05-9.21314E-05-1.67695E-04



 n o d a l   p r i n t   o u t   f o r   t i m e  s t e p    6001                              ( at time 2.9996998E+00 )

 nodal point  x-disp     y-disp      z-disp      x-vel       y-vel       z-vel      x-accl      y-accl      z-accl      x-coor      y-coor      z-coor
    22626 -5.50783E-03-4.55970E-02-9.37632E+00-8.83186E-03 1.86357E-02-3.16041E+00-1.01157E-02 2.49312E-02-2.36582E-02 4.79587E+01-2.20754E+01-2.03782E+00



 n o d a l   p r i n t   o u t   f o r   t i m e  s t e p    6001                              ( at time 2.9996998E+00 )

 nodal point  x-rot      y-rot       z-rot       x-rot vel   y-rot vel   z-rot vel   x-rot acc   y-rot acc   z-rot acc
    22626 -1.53731E-06 3.07867E-05 5.25694E-05 5.55530E-07-7.08208E-05-1.20952E-04-1.90902E-05-4.22806E-05-5.57286E-05



 n o d a l   p r i n t   o u t   f o r   t i m e  s t e p    6201                              ( at time 3.0996898E+00 )

 nodal point  x-disp     y-disp      z-disp      x-vel       y-vel       z-vel      x-accl      y-accl      z-accl      x-coor      y-coor      z-coor
    22626 -6.47349E-03-4.36157E-02-9.69245E+00-1.04163E-02 2.05622E-02-3.16240E+00-1.58457E-02 1.92672E-02-1.99743E-02 4.79577E+01-2.20734E+01-2.35395E+00



 n o d a l   p r i n t   o u t   f o r   t i m e  s t e p    6201                              ( at time 3.0996898E+00 )

 nodal point  x-rot      y-rot       z-rot       x-rot vel   y-rot vel   z-rot vel   x-rot acc   y-rot acc   z-rot acc
    22626 -1.58674E-06 2.34278E-05 3.99361E-05-1.97256E-06-7.58366E-05-1.33429E-04-2.52834E-05-5.01630E-05-1.24780E-04



 n o d a l   p r i n t   o u t   f o r   t i m e  s t e p    6401                              ( at time 3.1996798E+00 )

 nodal point  x-disp     y-disp      z-disp      x-vel       y-vel       z-vel      x-accl      y-accl      z-accl      x-coor      y-coor      z-coor
    22626 -7.54493E-03-4.15851E-02-1.00087E+01-1.09383E-02 1.97628E-02-3.16298E+00-5.22126E-03-7.99489E-03-5.77745E-03 4.79566E+01-2.20714E+01-2.67020E+00



 n o d a l   p r i n t   o u t   f o r   t i m e  s t e p    6401                              ( at time 3.1996798E+00 )

 nodal point  x-rot      y-rot       z-rot       x-rot vel   y-rot vel   z-rot vel   x-rot acc   y-rot acc   z-rot acc
    22626 -1.71866E-06 1.53539E-05 2.63382E-05-1.53099E-06-8.52739E-05-1.44003E-04 4.41611E-06-9.43826E-05-1.05746E-04



 n o d a l   p r i n t   o u t   f o r   t i m e  s t e p    6601                              ( at time 3.2996698E+00 )

 nodal point  x-disp     y-disp      z-disp      x-vel       y-vel       z-vel      x-accl      y-accl      z-accl      x-coor      y-coor      z-coor
    22626 -8.65103E-03-3.97054E-02-1.03249E+01-1.11977E-02 1.78281E-02-3.16269E+00-2.59408E-03-1.93496E-02 2.88516E-03 4.79555E+01-2.20695E+01-2.98645E+00



 n o d a l   p r i n t   o u t   f o r   t i m e  s t e p    6601                              ( at time 3.2996698E+00 )

 nodal point  x-rot      y-rot       z-rot       x-rot vel   y-rot vel   z-rot vel   x-rot acc   y-rot acc   z-rot acc
    22626 -1.98570E-06 6.66004E-06 1.15769E-05-2.46239E-06-8.95199E-05-1.51612E-04-9.31490E-06-4.24639E-05-7.61053E-05



 n o d a l   p r i n t   o u t   f o r   t i m e  s t e p    6801                              ( at time 3.3996598E+00 )

 nodal point  x-disp     y-disp      z-disp      x-vel       y-vel       z-vel      x-accl      y-accl      z-accl      x-coor      y-coor      z-coor
    22626 -9.80172E-03-3.80140E-02-1.06412E+01-1.17075E-02 1.60369E-02-3.16262E+00-5.09874E-03-1.79138E-02 6.89098E-04 4.79544E+01-2.20678E+01-3.30268E+00



 n o d a l   p r i n t   o u t   f o r   t i m e  s t e p    6801                              ( at time 3.3996598E+00 )

 nodal point  x-rot      y-rot       z-rot       x-rot vel   y-rot vel   z-rot vel   x-rot acc   y-rot acc   z-rot acc
    22626 -2.03289E-06-2.22987E-06-3.71945E-06-2.61565E-06-8.80800E-05-1.53225E-04-1.53282E-06 1.44000E-05-1.61219E-05



 n o d a l   p r i n t   o u t   f o r   t i m e  s t e p    7001                              ( at time 3.4996498E+00 )

 nodal point  x-disp     y-disp      z-disp      x-vel       y-vel       z-vel      x-accl      y-accl      z-accl      x-coor      y-coor      z-coor
    22626 -1.09995E-02-3.64841E-02-1.09574E+01-1.23278E-02 1.44944E-02-3.16282E+00-6.20339E-03-1.54266E-02-1.91946E-03 4.79532E+01-2.20663E+01-3.61893E+00



 n o d a l   p r i n t   o u t   f o r   t i m e  s t e p    7001                              ( at time 3.4996498E+00 )

 nodal point  x-rot      y-rot       z-rot       x-rot vel   y-rot vel   z-rot vel   x-rot acc   y-rot acc   z-rot acc
    22626 -2.02504E-06-1.08910E-05-1.85512E-05 6.67709E-07-8.71730E-05-1.47342E-04 3.28370E-05 9.07098E-06 5.88358E-05



 n o d a l   p r i n t   o u t   f o r   t i m e  s t e p    7201                              ( at time 3.5996397E+00 )

 nodal point  x-disp     y-disp      z-disp      x-vel       y-vel       z-vel      x-accl      y-accl      z-accl      x-coor      y-coor      z-coor
    22626 -1.22543E-02-3.51412E-02-1.12737E+01-1.24119E-02 1.20941E-02-3.16260E+00-8.41339E-04-2.40052E-02 2.10783E-03 4.79519E+01-2.20649E+01-3.93517E+00



 n o d a l   p r i n t   o u t   f o r   t i m e  s t e p    7201                              ( at time 3.5996397E+00 )

 nodal point  x-rot      y-rot       z-rot       x-rot vel   y-rot vel   z-rot vel   x-rot acc   y-rot acc   z-rot acc
    22626 -2.03071E-06-1.95162E-05-3.30332E-05 2.14235E-06-8.47341E-05-1.38661E-04 1.47479E-05 2.43917E-05 8.68147E-05



 n o d a l   p r i n t   o u t   f o r   t i m e  s t e p    7401                              ( at time 3.6996297E+00 )

 nodal point  x-disp     y-disp      z-disp      x-vel       y-vel       z-vel      x-accl      y-accl      z-accl      x-coor      y-coor      z-coor
    22626 -1.34843E-02-3.40972E-02-1.15899E+01-1.21423E-02 8.71171E-03-3.16159E+00 2.69650E-03-3.38270E-02 1.01147E-02 4.79507E+01-2.20639E+01-4.25135E+00



 n o d a l   p r i n t   o u t   f o r   t i m e  s t e p    7401                              ( at time 3.6996297E+00 )

 nodal point  x-rot      y-rot       z-rot       x-rot vel   y-rot vel   z-rot vel   x-rot acc   y-rot acc   z-rot acc
    22626 -1.77492E-06-2.78021E-05-4.68293E-05 3.72665E-06-8.13434E-05-1.36490E-04 1.58445E-05 3.39104E-05 2.17081E-05



 n o d a l   p r i n t   o u t   f o r   t i m e  s t e p    7601                              ( at time 3.7996197E+00 )

 nodal point  x-disp     y-disp      z-disp      x-vel       y-vel       z-vel      x-accl      y-accl      z-accl      x-coor      y-coor      z-coor
    22626 -1.46694E-02-3.33643E-02-1.19059E+01-1.15815E-02 6.00649E-03-3.16089E+00 5.60911E-03-2.70550E-02 7.06744E-03 4.79495E+01-2.20632E+01-4.56744E+00



 n o d a l   p r i n t   o u t   f o r   t i m e  s t e p    7601                              ( at time 3.7996197E+00 )

 nodal point  x-rot      y-rot       z-rot       x-rot vel   y-rot vel   z-rot vel   x-rot acc   y-rot acc   z-rot acc
    22626 -1.30949E-06-3.56150E-05-6.00954E-05 5.30538E-06-7.23614E-05-1.21949E-04 1.57889E-05 8.98285E-05 1.45433E-04



 n o d a l   p r i n t   o u t   f o r   t i m e  s t e p    7801                              ( at time 3.8996097E+00 )

 nodal point  x-disp     y-disp      z-disp      x-vel       y-vel       z-vel      x-accl      y-accl      z-accl      x-coor      y-coor      z-coor
    22626 -1.57967E-02-3.28633E-02-1.22220E+01-1.09379E-02 4.22621E-03-3.16080E+00 6.43583E-03-1.78046E-02 8.17856E-04 4.79484E+01-2.20627E+01-4.88349E+00



 n o d a l   p r i n t   o u t   f o r   t i m e  s t e p    7801                              ( at time 3.8996097E+00 )

 nodal point  x-rot      y-rot       z-rot       x-rot vel   y-rot vel   z-rot vel   x-rot acc   y-rot acc   z-rot acc
    22626 -9.45107E-07-4.22151E-05-7.12140E-05 5.83690E-07-5.77247E-05-9.62203E-05-4.72216E-05 1.46382E-04 2.57308E-04



 n o d a l   p r i n t   o u t   f o r   t i m e  s t e p    8001                              ( at time 3.9995997E+00 )

 nodal point  x-disp     y-disp      z-disp      x-vel       y-vel       z-vel      x-accl      y-accl      z-accl      x-coor      y-coor      z-coor
    22626 -1.68645E-02-3.24925E-02-1.25381E+01-1.03924E-02 3.14194E-03-3.16114E+00 5.45637E-03-1.08438E-02-3.38827E-03 4.79473E+01-2.20623E+01-5.19956E+00



 n o d a l   p r i n t   o u t   f o r   t i m e  s t e p    8001                              ( at time 3.9995997E+00 )

 nodal point  x-rot      y-rot       z-rot       x-rot vel   y-rot vel   z-rot vel   x-rot acc   y-rot acc   z-rot acc
    22626 -8.14624E-07-4.74628E-05-7.98999E-05-1.27876E-07-4.67539E-05-7.99374E-05-7.11637E-06 1.09719E-04 1.62845E-04



 n o d a l   p r i n t   o u t   f o r   t i m e  s t e p    8201                              ( at time 4.0995897E+00 )

 nodal point  x-disp     y-disp      z-disp      x-vel       y-vel       z-vel      x-accl      y-accl      z-accl      x-coor      y-coor      z-coor
    22626 -1.78209E-02-3.22930E-02-1.28541E+01-8.59948E-03 6.34045E-04-3.16063E+00 1.79306E-02-2.50814E-02 5.13366E-03 4.79464E+01-2.20621E+01-5.51562E+00



 n o d a l   p r i n t   o u t   f o r   t i m e  s t e p    8201                              ( at time 4.0995897E+00 )

 nodal point  x-rot      y-rot       z-rot       x-rot vel   y-rot vel   z-rot vel   x-rot acc   y-rot acc   z-rot acc
    22626 -8.19912E-07-5.15858E-05-8.68674E-05-1.97790E-07-3.22023E-05-5.65751E-05-6.99210E-07 1.45531E-04 2.33646E-04



 n o d a l   p r i n t   o u t   f o r   t i m e  s t e p    8401                              ( at time 4.1995797E+00 )

 nodal point  x-disp     y-disp      z-disp      x-vel       y-vel       z-vel      x-accl      y-accl      z-accl      x-coor      y-coor      z-coor
    22626 -1.86019E-02-3.23552E-02-1.31701E+01-6.97977E-03-1.78980E-03-3.16004E+00 1.61988E-02-2.42409E-02 5.87761E-03 4.79456E+01-2.20621E+01-5.83162E+00



 n o d a l   p r i n t   o u t   f o r   t i m e  s t e p    8401                              ( at time 4.1995797E+00 )

 nodal point  x-rot      y-rot       z-rot       x-rot vel   y-rot vel   z-rot vel   x-rot acc   y-rot acc   z-rot acc
    22626 -8.02821E-07-5.39656E-05-9.08201E-05-2.54392E-07-1.42179E-05-2.31252E-05-5.66079E-07 1.79862E-04 3.34533E-04



 n o d a l   p r i n t   o u t   f o r   t i m e  s t e p    8601                              ( at time 4.2995697E+00 )

 nodal point  x-disp     y-disp      z-disp      x-vel       y-vel       z-vel      x-accl      y-accl      z-accl      x-coor      y-coor      z-coor
    22626 -1.92352E-02-3.26537E-02-1.34861E+01-5.56137E-03-3.88054E-03-3.15988E+00 1.41854E-02-2.09096E-02 1.64525E-03 4.79449E+01-2.20624E+01-6.14757E+00



 n o d a l   p r i n t   o u t   f o r   t i m e  s t e p    8601                              ( at time 4.2995697E+00 )

 nodal point  x-rot      y-rot       z-rot       x-rot vel   y-rot vel   z-rot vel   x-rot acc   y-rot acc   z-rot acc
    22626 -8.21881E-07-5.44027E-05-9.16728E-05-3.69206E-07 2.90868E-06 4.80308E-06-1.14826E-06 1.71283E-04 2.79311E-04



 n o d a l   p r i n t   o u t   f o r   t i m e  s t e p    8801                              ( at time 4.3995597E+00 )

 nodal point  x-disp     y-disp      z-disp      x-vel       y-vel       z-vel      x-accl      y-accl      z-accl      x-coor      y-coor      z-coor
    22626 -1.97015E-02-3.30824E-02-1.38021E+01-3.79798E-03-4.73215E-03-3.16048E+00 1.76356E-02-8.51693E-03-5.98491E-03 4.79445E+01-2.20629E+01-6.46355E+00



 n o d a l   p r i n t   o u t   f o r   t i m e  s t e p    8801                              ( at time 4.3995597E+00 )

 nodal point  x-rot      y-rot       z-rot       x-rot vel   y-rot vel   z-rot vel   x-rot acc   y-rot acc   z-rot acc
    22626 -7.93931E-07-5.31184E-05-8.93490E-05 8.56294E-07 2.22231E-05 4.01357E-05 1.22562E-05 1.93164E-04 3.53361E-04



 n o d a l   p r i n t   o u t   f o r   t i m e  s t e p    9001                              ( at time 4.4995497E+00 )

 nodal point  x-disp     y-disp      z-disp      x-vel       y-vel       z-vel      x-accl      y-accl      z-accl      x-coor      y-coor      z-coor
    22626 -1.99991E-02-3.36518E-02-1.41181E+01-2.04504E-03-6.99503E-03-3.16010E+00 1.75311E-02-2.26310E-02 3.79360E-03 4.79442E+01-2.20634E+01-6.77956E+00



 n o d a l   p r i n t   o u t   f o r   t i m e  s t e p    9001                              ( at time 4.4995497E+00 )

 nodal point  x-rot      y-rot       z-rot       x-rot vel   y-rot vel   z-rot vel   x-rot acc   y-rot acc   z-rot acc
    22626 -6.54578E-07-4.96567E-05-8.32428E-05 3.57424E-06 4.39864E-05 7.66312E-05 2.71820E-05 2.17654E-04 3.64990E-04



 n o d a l   p r i n t   o u t   f o r   t i m e  s t e p    9201                              ( at time 4.5995397E+00 )

 nodal point  x-disp     y-disp      z-disp      x-vel       y-vel       z-vel      x-accl      y-accl      z-accl      x-coor      y-coor      z-coor
    22626 -2.01102E-02-3.45054E-02-1.44340E+01-1.19608E-04-9.89917E-03-3.15950E+00 1.92563E-02-2.90443E-02 5.94438E-03 4.79441E+01-2.20643E+01-7.09550E+00



 n o d a l   p r i n t   o u t   f o r   t i m e  s t e p    9201                              ( at time 4.5995397E+00 )

 nodal point  x-rot      y-rot       z-rot       x-rot vel   y-rot vel   z-rot vel   x-rot acc   y-rot acc   z-rot acc
    22626 -3.46653E-07-4.44350E-05-7.41295E-05 4.06192E-06 6.00389E-05 1.03114E-04 4.87729E-06 1.60541E-04 2.64852E-04



 n o d a l   p r i n t   o u t   f o r   t i m e  s t e p    9401                              ( at time 4.6995297E+00 )

 nodal point  x-disp     y-disp      z-disp      x-vel       y-vel       z-vel      x-accl      y-accl      z-accl      x-coor      y-coor      z-coor
    22626 -1.99883E-02-3.55973E-02-1.47499E+01 2.36045E-03-1.18691E-02-3.15810E+00 2.48031E-02-1.97010E-02 1.40228E-02 4.79442E+01-2.20654E+01-7.41138E+00



 n o d a l   p r i n t   o u t   f o r   t i m e  s t e p    9401                              ( at time 4.6995297E+00 )

 nodal point  x-rot      y-rot       z-rot       x-rot vel   y-rot vel   z-rot vel   x-rot acc   y-rot acc   z-rot acc
    22626 -3.36957E-07-3.68615E-05-6.12016E-05-2.47738E-06 9.70770E-05 1.49878E-04-6.53996E-05 3.70419E-04 4.67690E-04



 n o d a l   p r i n t   o u t   f o r   t i m e  s t e p    9601                              ( at time 4.7995197E+00 )

 nodal point  x-disp     y-disp      z-disp      x-vel       y-vel       z-vel      x-accl      y-accl      z-accl      x-coor      y-coor      z-coor
    22626 -1.96667E-02-3.68050E-02-1.50655E+01 4.25254E-03-1.23705E-02-3.15580E+00 1.89228E-02-5.01512E-03 2.30526E-02 4.79445E+01-2.20666E+01-7.72704E+00



 n o d a l   p r i n t   o u t   f o r   t i m e  s t e p    9601                              ( at time 4.7995197E+00 )

 nodal point  x-rot      y-rot       z-rot       x-rot vel   y-rot vel   z-rot vel   x-rot acc   y-rot acc   z-rot acc
    22626  4.68460E-07-2.47398E-05-4.47170E-05 1.23435E-05 1.51442E-04 1.86898E-04 1.48224E-04 5.43706E-04 3.70235E-04



 n o d a l   p r i n t   o u t   f o r   t i m e  s t e p    9801                              ( at time 4.8995097E+00 )

 nodal point  x-disp     y-disp      z-disp      x-vel       y-vel       z-vel      x-accl      y-accl      z-accl      x-coor      y-coor      z-coor
    22626 -1.91444E-02-3.80762E-02-1.53808E+01 6.44528E-03-1.29688E-02-3.14850E+00 2.19296E-02-5.98323E-03 7.29587E-02 4.79450E+01-2.20679E+01-8.04225E+00



 n o d a l   p r i n t   o u t   f o r   t i m e  s t e p    9801                              ( at time 4.8995097E+00 )

 nodal point  x-rot      y-rot       z-rot       x-rot vel   y-rot vel   z-rot vel   x-rot acc   y-rot acc   z-rot acc
    22626  1.95197E-06-5.47919E-06-2.47515E-05 2.10244E-05 2.31686E-04 2.08772E-04 8.68173E-05 8.02524E-04 2.18769E-04



 n o d a l   p r i n t   o u t   f o r   t i m e  s t e p   10001                              ( at time 4.9994997E+00 )

 nodal point  x-disp     y-disp      z-disp      x-vel       y-vel       z-vel      x-accl      y-accl      z-accl      x-coor      y-coor      z-coor
    22626 -1.83643E-02-3.94163E-02-1.56950E+01 8.82431E-03-1.32488E-02-3.13584E+00 2.37926E-02-2.80014E-03 1.26620E-01 4.79458E+01-2.20692E+01-8.35650E+00



 n o d a l   p r i n t   o u t   f o r   t i m e  s t e p   10001                              ( at time 4.9994997E+00 )

 nodal point  x-rot      y-rot       z-rot       x-rot vel   y-rot vel   z-rot vel   x-rot acc   y-rot acc   z-rot acc
    22626  6.34241E-06 2.45487E-05-3.40585E-06 7.89621E-05 3.72736E-04 2.15966E-04 5.79433E-04 1.41063E-03 7.19408E-05



 n o d a l   p r i n t   o u t   f o r   t i m e  s t e p   10202                              ( at time 5.0999896E+00 )

 nodal point  x-disp     y-disp      z-disp      x-vel       y-vel       z-vel      x-accl      y-accl      z-accl      x-coor      y-coor      z-coor
    22626 -1.73108E-02-4.06975E-02-1.60092E+01 1.20584E-02-1.15910E-02-3.11669E+00 3.21828E-02 1.64968E-02 1.90579E-01 4.79469E+01-2.20705E+01-8.67074E+00



 n o d a l   p r i n t   o u t   f o r   t i m e  s t e p   10202                              ( at time 5.0999896E+00 )

 nodal point  x-rot      y-rot       z-rot       x-rot vel   y-rot vel   z-rot vel   x-rot acc   y-rot acc   z-rot acc
    22626  1.78382E-05 7.06772E-05 1.83786E-05 1.54442E-04 5.56557E-04 2.08521E-04 7.51127E-04 1.82925E-03-7.40814E-05



 n o d a l   p r i n t   o u t   f o r   t i m e  s t e p   10402                              ( at time 5.1999796E+00 )

 nodal point  x-disp     y-disp      z-disp      x-vel       y-vel       z-vel      x-accl      y-accl      z-accl      x-coor      y-coor      z-coor
    22626 -1.59260E-02-4.16991E-02-1.63197E+01 1.56387E-02-8.49444E-03-3.09338E+00 3.58067E-02 3.09688E-02 2.33141E-01 4.79483E+01-2.20715E+01-8.98123E+00



 n o d a l   p r i n t   o u t   f o r   t i m e  s t e p   10402                              ( at time 5.1999796E+00 )

 nodal point  x-rot      y-rot       z-rot       x-rot vel   y-rot vel   z-rot vel   x-rot acc   y-rot acc   z-rot acc
    22626  3.90210E-05 1.37211E-04 3.84396E-05 2.62131E-04 7.80889E-04 1.89725E-04 1.07698E-03 2.24355E-03-1.87982E-04



 n o d a l   p r i n t   o u t   f o r   t i m e  s t e p   10602                              ( at time 5.2999696E+00 )

 nodal point  x-disp     y-disp      z-disp      x-vel       y-vel       z-vel      x-accl      y-accl      z-accl      x-coor      y-coor      z-coor
    22626 -1.42216E-02-4.23166E-02-1.66277E+01 1.87841E-02-3.77275E-03-3.06620E+00 3.14577E-02 4.72217E-02 2.71794E-01 4.79500E+01-2.20721E+01-9.28920E+00



 n o d a l   p r i n t   o u t   f o r   t i m e  s t e p   10602                              ( at time 5.2999696E+00 )

 nodal point  x-rot      y-rot       z-rot       x-rot vel   y-rot vel   z-rot vel   x-rot acc   y-rot acc   z-rot acc
    22626  7.11466E-05 2.27419E-04 5.56775E-05 3.94928E-04 1.02535E-03 1.49451E-04 1.32811E-03 2.44484E-03-4.02779E-04



 n o d a l   p r i n t   o u t   f o r   t i m e  s t e p   10802                              ( at time 5.3999596E+00 )

 nodal point  x-disp     y-disp      z-disp      x-vel       y-vel       z-vel      x-accl      y-accl      z-accl      x-coor      y-coor      z-coor
    22626 -1.21834E-02-4.23731E-02-1.69327E+01 2.19443E-02 2.52781E-03-3.03444E+00 3.16052E-02 6.30119E-02 3.17641E-01 4.79520E+01-2.20722E+01-9.59421E+00



 n o d a l   p r i n t   o u t   f o r   t i m e  s t e p   10802                              ( at time 5.3999596E+00 )

 nodal point  x-rot      y-rot       z-rot       x-rot vel   y-rot vel   z-rot vel   x-rot acc   y-rot acc   z-rot acc
    22626  1.19038E-04 3.44891E-04 6.84059E-05 5.67551E-04 1.31927E-03 9.78009E-05 1.72641E-03 2.93948E-03-5.16554E-04



 n o d a l   p r i n t   o u t   f o r   t i m e  s t e p   11002                              ( at time 5.4999496E+00 )

 nodal point  x-disp     y-disp      z-disp      x-vel       y-vel       z-vel      x-accl      y-accl      z-accl      x-coor      y-coor      z-coor
    22626 -9.77555E-03-4.18164E-02-1.72344E+01 2.63657E-02 8.65891E-03-3.00080E+00 4.42181E-02 6.13172E-02 3.36433E-01 4.79544E+01-2.20716E+01-9.89592E+00



 n o d a l   p r i n t   o u t   f o r   t i m e  s t e p   11002                              ( at time 5.4999496E+00 )

 nodal point  x-rot      y-rot       z-rot       x-rot vel   y-rot vel   z-rot vel   x-rot acc   y-rot acc   z-rot acc
    22626  1.83008E-04 4.92413E-04 7.59810E-05 7.22089E-04 1.62263E-03 4.24817E-05 1.54554E-03 3.03394E-03-5.53248E-04



 n o d a l   p r i n t   o u t   f o r   t i m e  s t e p   11202                              ( at time 5.5999396E+00 )

 nodal point  x-disp     y-disp      z-disp      x-vel       y-vel       z-vel      x-accl      y-accl      z-accl      x-coor      y-coor      z-coor
    22626 -6.95940E-03-4.06229E-02-1.75326E+01 3.01747E-02 1.63667E-02-2.96293E+00 3.80942E-02 7.70857E-02 3.78754E-01 4.79572E+01-2.20704E+01-1.01941E+01



 n o d a l   p r i n t   o u t   f o r   t i m e  s t e p   11202                              ( at time 5.5999396E+00 )

 nodal point  x-rot      y-rot       z-rot       x-rot vel   y-rot vel   z-rot vel   x-rot acc   y-rot acc   z-rot acc
    22626  2.63589E-04 6.72478E-04 7.72340E-05 8.89663E-04 1.96623E-03-3.65032E-05 1.67591E-03 3.43638E-03-7.89929E-04



 n o d a l   p r i n t   o u t   f o r   t i m e  s t e p   11402                              ( at time 5.6999296E+00 )

 nodal point  x-disp     y-disp      z-disp      x-vel       y-vel       z-vel      x-accl      y-accl      z-accl      x-coor      y-coor      z-coor
    22626 -3.71236E-03-3.85611E-02-1.78270E+01 3.48264E-02 2.51737E-02-2.92511E+00 4.65215E-02 8.80788E-02 3.78264E-01 4.79605E+01-2.20684E+01-1.04885E+01



 n o d a l   p r i n t   o u t   f o r   t i m e  s t e p   11402                              ( at time 5.6999296E+00 )

 nodal point  x-rot      y-rot       z-rot       x-rot vel   y-rot vel   z-rot vel   x-rot acc   y-rot acc   z-rot acc
    22626  3.62777E-04 8.85731E-04 7.08484E-05 1.08019E-03 2.30545E-03-1.03635E-04 1.90541E-03 3.39253E-03-6.71380E-04



 n o d a l   p r i n t   o u t   f o r   t i m e  s t e p   11602                              ( at time 5.7999195E+00 )

 nodal point  x-disp     y-disp      z-disp      x-vel       y-vel       z-vel      x-accl      y-accl      z-accl      x-coor      y-coor      z-coor
    22626 -4.52123E-05-3.56474E-02-1.81175E+01 3.93107E-02 3.24892E-02-2.88556E+00 4.48471E-02 7.31616E-02 3.95481E-01 4.79641E+01-2.20654E+01-1.07790E+01



 n o d a l   p r i n t   o u t   f o r   t i m e  s t e p   11602                              ( at time 5.7999195E+00 )

 nodal point  x-rot      y-rot       z-rot       x-rot vel   y-rot vel   z-rot vel   x-rot acc   y-rot acc   z-rot acc
    22626  4.79468E-04 1.13448E-03 5.66491E-05 1.24112E-03 2.66065E-03-1.78902E-04 1.60954E-03 3.55232E-03-7.52745E-04



 n o d a l   p r i n t   o u t   f o r   t i m e  s t e p   11802                              ( at time 5.8999095E+00 )

 nodal point  x-disp     y-disp      z-disp      x-vel       y-vel       z-vel      x-accl      y-accl      z-accl      x-coor      y-coor      z-coor
    22626  4.18940E-03-3.20565E-02-1.84039E+01 4.54605E-02 3.96774E-02-2.84286E+00 6.15046E-02 7.18894E-02 4.27079E-01 4.79684E+01-2.20618E+01-1.10654E+01



 n o d a l   p r i n t   o u t   f o r   t i m e  s t e p   11802                              ( at time 5.8999095E+00 )

 nodal point  x-rot      y-rot       z-rot       x-rot vel   y-rot vel   z-rot vel   x-rot acc   y-rot acc   z-rot acc
    22626  6.12899E-04 1.41791E-03 3.35340E-05 1.44428E-03 2.99888E-03-2.79573E-04 2.03177E-03 3.38260E-03-1.00681E-03



 n o d a l   p r i n t   o u t   f o r   t i m e  s t e p   12002                              ( at time 5.9998995E+00 )

 nodal point  x-disp     y-disp      z-disp      x-vel       y-vel       z-vel      x-accl      y-accl      z-accl      x-coor      y-coor      z-coor
    22626  9.07897E-03-2.76645E-02-1.86860E+01 5.16738E-02 4.84505E-02-2.79873E+00 6.21388E-02 8.77401E-02 4.41329E-01 4.79733E+01-2.20575E+01-1.13475E+01



 n o d a l   p r i n t   o u t   f o r   t i m e  s t e p   12002                              ( at time 5.9998995E+00 )

 nodal point  x-rot      y-rot       z-rot       x-rot vel   y-rot vel   z-rot vel   x-rot acc   y-rot acc   z-rot acc
    22626  7.66559E-04 1.73496E-03 5.43271E-07 1.62636E-03 3.34377E-03-3.86079E-04 1.82102E-03 3.44931E-03-1.06517E-03



 n o d a l   p r i n t   o u t   f o r   t i m e  s t e p   12202                              ( at time 6.0998895E+00 )

 nodal point  x-disp     y-disp      z-disp      x-vel       y-vel       z-vel      x-accl      y-accl      z-accl      x-coor      y-coor      z-coor
    22626  1.45269E-02-2.25005E-02-1.89636E+01 5.75324E-02 5.52493E-02-2.75574E+00 5.85913E-02 6.79950E-02 4.29898E-01 4.79787E+01-2.20523E+01-1.16251E+01



 n o d a l   p r i n t   o u t   f o r   t i m e  s t e p   12202                              ( at time 6.0998895E+00 )

 nodal point  x-rot      y-rot       z-rot       x-rot vel   y-rot vel   z-rot vel   x-rot acc   y-rot acc   z-rot acc
    22626  9.38769E-04 2.08738E-03-4.24756E-05 1.82520E-03 3.69320E-03-4.76262E-04 1.98851E-03 3.49461E-03-9.01921E-04



 n o d a l   p r i n t   o u t   f o r   t i m e  s t e p   12402                              ( at time 6.1998795E+00 )

 nodal point  x-disp     y-disp      z-disp      x-vel       y-vel       z-vel      x-accl      y-accl      z-accl      x-coor      y-coor      z-coor
    22626  2.06115E-02-1.65919E-02-1.92369E+01 6.48081E-02 6.30041E-02-2.70959E+00 7.27651E-02 7.75554E-02 4.61549E-01 4.79848E+01-2.20464E+01-1.18984E+01



 n o d a l   p r i n t   o u t   f o r   t i m e  s t e p   12402                              ( at time 6.1998795E+00 )

 nodal point  x-rot      y-rot       z-rot       x-rot vel   y-rot vel   z-rot vel   x-rot acc   y-rot acc   z-rot acc
    22626  1.12997E-03 2.47350E-03-9.60066E-05 2.00649E-03 4.02698E-03-5.88118E-04 1.81310E-03 3.33809E-03-1.11866E-03



 n o d a l   p r i n t   o u t   f o r   t i m e  s t e p   12602                              ( at time 6.2998695E+00 )

 nodal point  x-disp     y-disp      z-disp      x-vel       y-vel       z-vel      x-accl      y-accl      z-accl      x-coor      y-coor      z-coor
    22626  2.75027E-02-9.97326E-03-1.95056E+01 7.33083E-02 6.93317E-02-2.66364E+00 8.50099E-02 6.32828E-02 4.59543E-01 4.79917E+01-2.20398E+01-1.21670E+01



 n o d a l   p r i n t   o u t   f o r   t i m e  s t e p   12602                              ( at time 6.2998695E+00 )

 nodal point  x-rot      y-rot       z-rot       x-rot vel   y-rot vel   z-rot vel   x-rot acc   y-rot acc   z-rot acc
    22626  1.34203E-03 2.89131E-03-1.60925E-04 2.23116E-03 4.34212E-03-7.05073E-04 2.24698E-03 3.15181E-03-1.16968E-03



 n o d a l   p r i n t   o u t   f o r   t i m e  s t e p   12802                              ( at time 6.3998595E+00 )

 nodal point  x-disp     y-disp      z-disp      x-vel       y-vel       z-vel      x-accl      y-accl      z-accl      x-coor      y-coor      z-coor
    22626  3.51916E-02-2.70115E-03-1.97695E+01 8.07850E-02 7.55926E-02-2.61710E+00 7.47751E-02 6.26146E-02 4.65481E-01 4.79994E+01-2.20325E+01-1.24310E+01



 n o d a l   p r i n t   o u t   f o r   t i m e  s t e p   12802                              ( at time 6.3998595E+00 )

 nodal point  x-rot      y-rot       z-rot       x-rot vel   y-rot vel   z-rot vel   x-rot acc   y-rot acc   z-rot acc
    22626  1.57457E-03 3.34100E-03-2.36067E-04 2.41505E-03 4.65293E-03-7.93084E-04 1.83909E-03 3.10841E-03-8.80197E-04



 n o d a l   p r i n t   o u t   f o r   t i m e  s t e p   13002                              ( at time 6.4998495E+00 )

 nodal point  x-disp     y-disp      z-disp      x-vel       y-vel       z-vel      x-accl      y-accl      z-accl      x-coor      y-coor      z-coor
    22626  4.36968E-02 5.27095E-03-2.00288E+01 8.99527E-02 8.34927E-02-2.56961E+00 9.16864E-02 7.90095E-02 4.74971E-01 4.80079E+01-2.20245E+01-1.26903E+01



 n o d a l   p r i n t   o u t   f o r   t i m e  s t e p   13002                              ( at time 6.4998495E+00 )

 nodal point  x-rot      y-rot       z-rot       x-rot vel   y-rot vel   z-rot vel   x-rot acc   y-rot acc   z-rot acc
    22626  1.82663E-03 3.82139E-03-3.21271E-04 2.63289E-03 4.94726E-03-9.13867E-04 2.17854E-03 2.94351E-03-1.20795E-03



 n o d a l   p r i n t   o u t   f o r   t i m e  s t e p   13202                              ( at time 6.5998395E+00 )

 nodal point  x-disp     y-disp      z-disp      x-vel       y-vel       z-vel      x-accl      y-accl      z-accl      x-coor      y-coor      z-coor
    22626  5.31581E-02 1.39995E-02-2.02833E+01 9.93866E-02 9.08702E-02-2.51948E+00 9.43474E-02 7.37819E-02 5.01276E-01 4.80173E+01-2.20158E+01-1.29448E+01



 n o d a l   p r i n t   o u t   f o r   t i m e  s t e p   13202                              ( at time 6.5998395E+00 )

 nodal point  x-rot      y-rot       z-rot       x-rot vel   y-rot vel   z-rot vel   x-rot acc   y-rot acc   z-rot acc
    22626  2.10045E-03 4.33024E-03-4.18030E-04 2.84152E-03 5.23528E-03-1.02225E-03 2.08653E-03 2.88056E-03-1.08389E-03



 n o d a l   p r i n t   o u t   f o r   t i m e  s t e p   13402                              ( at time 6.6998295E+00 )

 nodal point  x-disp     y-disp      z-disp      x-vel       y-vel       z-vel      x-accl      y-accl      z-accl      x-coor      y-coor      z-coor
    22626  6.35022E-02 2.34853E-02-2.05327E+01 1.08301E-01 9.83262E-02-2.46935E+00 8.91498E-02 7.45673E-02 5.01352E-01 4.80277E+01-2.20063E+01-1.31942E+01



 n o d a l   p r i n t   o u t   f o r   t i m e  s t e p   13402                              ( at time 6.6998295E+00 )

 nodal point  x-rot      y-rot       z-rot       x-rot vel   y-rot vel   z-rot vel   x-rot acc   y-rot acc   z-rot acc
    22626  2.39581E-03 4.86789E-03-5.26607E-04 3.05877E-03 5.51184E-03-1.13368E-03 2.17270E-03 2.76581E-03-1.11445E-03



 n o d a l   p r i n t   o u t   f o r   t i m e  s t e p   13602                              ( at time 6.7998195E+00 )

 nodal point  x-disp     y-disp      z-disp      x-vel       y-vel       z-vel      x-accl      y-accl      z-accl      x-coor      y-coor      z-coor
    22626  7.47607E-02 3.36867E-02-2.07770E+01 1.17295E-01 1.05367E-01-2.41691E+00 8.99480E-02 7.04154E-02 5.24462E-01 4.80389E+01-2.19961E+01-1.34385E+01



 n o d a l   p r i n t   o u t   f o r   t i m e  s t e p   13602                              ( at time 6.7998195E+00 )

 nodal point  x-rot      y-rot       z-rot       x-rot vel   y-rot vel   z-rot vel   x-rot acc   y-rot acc   z-rot acc
    22626  2.71273E-03 5.43293E-03-6.46283E-04 3.27645E-03 5.79776E-03-1.25736E-03 2.17704E-03 2.85948E-03-1.23691E-03



 n o d a l   p r i n t   o u t   f o r   t i m e  s t e p   13802                              ( at time 6.8998095E+00 )

 nodal point  x-disp     y-disp      z-disp      x-vel       y-vel       z-vel      x-accl      y-accl      z-accl      x-coor      y-coor      z-coor
    22626  8.69509E-02 4.45895E-02-2.10161E+01 1.25984E-01 1.12457E-01-2.36387E+00 8.69082E-02 7.09027E-02 5.30452E-01 4.80511E+01-2.19852E+01-1.36776E+01



 n o d a l   p r i n t   o u t   f o r   t i m e  s t e p   13802                              ( at time 6.8998095E+00 )

 nodal point  x-rot      y-rot       z-rot       x-rot vel   y-rot vel   z-rot vel   x-rot acc   y-rot acc   z-rot acc
    22626  3.05264E-03 6.02706E-03-7.78224E-04 3.52181E-03 6.08923E-03-1.38382E-03 2.45392E-03 2.91501E-03-1.26477E-03



 n o d a l   p r i n t   o u t   f o r   t i m e  s t e p   14002                              ( at time 6.9997995E+00 )

 nodal point  x-disp     y-disp      z-disp      x-vel       y-vel       z-vel      x-accl      y-accl      z-accl      x-coor      y-coor      z-coor
    22626  9.99446E-02 5.62720E-02-2.12497E+01 1.34128E-01 1.20386E-01-2.31067E+00 8.14398E-02 7.93011E-02 5.32080E-01 4.80641E+01-2.19735E+01-1.39112E+01



 n o d a l   p r i n t   o u t   f o r   t i m e  s t e p   14002                              ( at time 6.9997995E+00 )

 nodal point  x-rot      y-rot       z-rot       x-rot vel   y-rot vel   z-rot vel   x-rot acc   y-rot acc   z-rot acc
    22626  3.41734E-03 6.64999E-03-9.22658E-04 3.77580E-03 6.36217E-03-1.49857E-03 2.54010E-03 2.72971E-03-1.14758E-03



 n o d a l   p r i n t   o u t   f o r   t i m e  s t e p   14202                              ( at time 7.0997895E+00 )

 nodal point  x-disp     y-disp      z-disp      x-vel       y-vel       z-vel      x-accl      y-accl      z-accl      x-coor      y-coor      z-coor
    22626  1.13723E-01 6.86731E-02-2.14780E+01 1.41945E-01 1.27436E-01-2.25511E+00 7.81857E-02 7.05094E-02 5.55688E-01 4.80779E+01-2.19611E+01-1.41395E+01



 n o d a l   p r i n t   o u t   f o r   t i m e  s t e p   14202                              ( at time 7.0997895E+00 )

 nodal point  x-rot      y-rot       z-rot       x-rot vel   y-rot vel   z-rot vel   x-rot acc   y-rot acc   z-rot acc
    22626  3.80646E-03 7.30059E-03-1.07827E-03 4.01470E-03 6.65042E-03-1.62592E-03 2.38919E-03 2.88275E-03-1.27362E-03



 n o d a l   p r i n t   o u t   f o r   t i m e  s t e p   14402                              ( at time 7.1997794E+00 )

 nodal point  x-disp     y-disp      z-disp      x-vel       y-vel       z-vel      x-accl      y-accl      z-accl      x-coor      y-coor      z-coor
    22626  1.28289E-01 8.16154E-02-2.17006E+01 1.49379E-01 1.32038E-01-2.19923E+00 7.43442E-02 4.60217E-02 5.58826E-01 4.80925E+01-2.19482E+01-1.43621E+01



 n o d a l   p r i n t   o u t   f o r   t i m e  s t e p   14402                              ( at time 7.1997794E+00 )

 nodal point  x-rot      y-rot       z-rot       x-rot vel   y-rot vel   z-rot vel   x-rot acc   y-rot acc   z-rot acc
    22626  4.22081E-03 7.98089E-03-1.24537E-03 4.28134E-03 6.94402E-03-1.73371E-03 2.66674E-03 2.93634E-03-1.07803E-03



 n o d a l   p r i n t   o u t   f o r   t i m e  s t e p   14602                              ( at time 7.2997694E+00 )

 nodal point  x-disp     y-disp      z-disp      x-vel       y-vel       z-vel      x-accl      y-accl      z-accl      x-coor      y-coor      z-coor
    22626  1.43619E-01 9.51499E-02-2.19176E+01 1.56385E-01 1.38704E-01-2.13939E+00 7.00652E-02 6.66716E-02 5.98474E-01 4.81078E+01-2.19346E+01-1.45791E+01



 n o d a l   p r i n t   o u t   f o r   t i m e  s t e p   14602                              ( at time 7.2997694E+00 )

 nodal point  x-rot      y-rot       z-rot       x-rot vel   y-rot vel   z-rot vel   x-rot acc   y-rot acc   z-rot acc
    22626  4.66247E-03 8.69135E-03-1.42352E-03 4.55257E-03 7.25828E-03-1.84372E-03 2.71260E-03 3.14287E-03-1.10016E-03



 n o d a l   p r i n t   o u t   f o r   t i m e  s t e p   14802                              ( at time 7.3997594E+00 )

 nodal point  x-disp     y-disp      z-disp      x-vel       y-vel       z-vel      x-accl      y-accl      z-accl      x-coor      y-coor      z-coor
    22626  1.59588E-01 1.09183E-01-2.21286E+01 1.62623E-01 1.42531E-01-2.08072E+00 6.23903E-02 3.82684E-02 5.86707E-01 4.81238E+01-2.19206E+01-1.47901E+01



 n o d a l   p r i n t   o u t   f o r   t i m e  s t e p   14802                              ( at time 7.3997594E+00 )

 nodal point  x-rot      y-rot       z-rot       x-rot vel   y-rot vel   z-rot vel   x-rot acc   y-rot acc   z-rot acc
    22626  5.13096E-03 9.43234E-03-1.61235E-03 4.81620E-03 7.56489E-03-1.93817E-03 2.63649E-03 3.06639E-03-9.44623E-04



 n o d a l   p r i n t   o u t   f o r   t i m e  s t e p   15002                              ( at time 7.4997494E+00 )

 nodal point  x-disp     y-disp      z-disp      x-vel       y-vel       z-vel      x-accl      y-accl      z-accl      x-coor      y-coor      z-coor
    22626  1.76149E-01 1.23584E-01-2.23336E+01 1.68461E-01 1.45452E-01-2.01732E+00 5.83800E-02 2.92109E-02 6.34066E-01 4.81403E+01-2.19062E+01-1.49951E+01



 n o d a l   p r i n t   o u t   f o r   t i m e  s t e p   15002                              ( at time 7.4997494E+00 )

 nodal point  x-rot      y-rot       z-rot       x-rot vel   y-rot vel   z-rot vel   x-rot acc   y-rot acc   z-rot acc
    22626  5.62569E-03 1.02047E-02-1.81088E-03 5.09529E-03 7.88628E-03-2.02853E-03 2.79121E-03 3.21421E-03-9.03713E-04



 n o d a l   p r i n t   o u t   f o r   t i m e  s t e p   15202                              ( at time 7.5997394E+00 )

 nodal point  x-disp     y-disp      z-disp      x-vel       y-vel       z-vel      x-accl      y-accl      z-accl      x-coor      y-coor      z-coor
    22626  1.93212E-01 1.38269E-01-2.25320E+01 1.73321E-01 1.47315E-01-1.95265E+00 4.86059E-02 1.86346E-02 6.46852E-01 4.81574E+01-2.18915E+01-1.51935E+01



 n o d a l   p r i n t   o u t   f o r   t i m e  s t e p   15202                              ( at time 7.5997394E+00 )

 nodal point  x-rot      y-rot       z-rot       x-rot vel   y-rot vel   z-rot vel   x-rot acc   y-rot acc   z-rot acc
    22626  6.15133E-03 1.10099E-02-2.01930E-03 5.40933E-03 8.19167E-03-2.12905E-03 3.14071E-03 3.05424E-03-1.00534E-03



 n o d a l   p r i n t   o u t   f o r   t i m e  s t e p   15402                              ( at time 7.6997294E+00 )

 nodal point  x-disp     y-disp      z-disp      x-vel       y-vel       z-vel      x-accl      y-accl      z-accl      x-coor      y-coor      z-coor
    22626  2.10883E-01 1.53014E-01-2.27239E+01 1.79364E-01 1.47804E-01-1.88553E+00 6.04397E-02 4.88971E-03 6.71228E-01 4.81751E+01-2.18768E+01-1.53854E+01



 n o d a l   p r i n t   o u t   f o r   t i m e  s t e p   15402                              ( at time 7.6997294E+00 )

 nodal point  x-rot      y-rot       z-rot       x-rot vel   y-rot vel   z-rot vel   x-rot acc   y-rot acc   z-rot acc
    22626  6.70599E-03 1.18424E-02-2.23637E-03 5.68479E-03 8.46368E-03-2.22722E-03 2.75490E-03 2.72041E-03-9.81767E-04



 n o d a l   p r i n t   o u t   f o r   t i m e  s t e p   15602                              ( at time 7.7997194E+00 )

 nodal point  x-disp     y-disp      z-disp      x-vel       y-vel       z-vel      x-accl      y-accl      z-accl      x-coor      y-coor      z-coor
    22626  2.29210E-01 1.67785E-01-2.29090E+01 1.86230E-01 1.48197E-01-1.81755E+00 6.86640E-02 3.93296E-03 6.79891E-01 4.81934E+01-2.18620E+01-1.55705E+01



 n o d a l   p r i n t   o u t   f o r   t i m e  s t e p   15602                              ( at time 7.7997194E+00 )

 nodal point  x-rot      y-rot       z-rot       x-rot vel   y-rot vel   z-rot vel   x-rot acc   y-rot acc   z-rot acc
    22626  7.29087E-03 1.27017E-02-2.46176E-03 6.01162E-03 8.71251E-03-2.29660E-03 3.26864E-03 2.48850E-03-6.93903E-04



 n o d a l   p r i n t   o u t   f o r   t i m e  s t e p   15802                              ( at time 7.8997094E+00 )

 nodal point  x-disp     y-disp      z-disp      x-vel       y-vel       z-vel      x-accl      y-accl      z-accl      x-coor      y-coor      z-coor
    22626  2.48102E-01 1.82636E-01-2.30873E+01 1.91717E-01 1.47353E-01-1.74883E+00 5.48752E-02-8.44340E-03 6.87207E-01 4.82123E+01-2.18472E+01-1.57488E+01



 n o d a l   p r i n t   o u t   f o r   t i m e  s t e p   15802                              ( at time 7.8997094E+00 )

 nodal point  x-rot      y-rot       z-rot       x-rot vel   y-rot vel   z-rot vel   x-rot acc   y-rot acc   z-rot acc
    22626  7.90920E-03 1.35856E-02-2.69504E-03 6.35271E-03 8.96278E-03-2.36405E-03 3.41124E-03 2.50300E-03-6.74471E-04



 n o d a l   p r i n t   o u t   f o r   t i m e  s t e p   16002                              ( at time 7.9996994E+00 )

 nodal point  x-disp     y-disp      z-disp      x-vel       y-vel       z-vel      x-accl      y-accl      z-accl      x-coor      y-coor      z-coor
    22626  2.67528E-01 1.97228E-01-2.32586E+01 1.97209E-01 1.44575E-01-1.67892E+00 5.49223E-02-2.77805E-02 6.99208E-01 4.82317E+01-2.18326E+01-1.59201E+01



 n o d a l   p r i n t   o u t   f o r   t i m e  s t e p   16002                              ( at time 7.9996994E+00 )

 nodal point  x-rot      y-rot       z-rot       x-rot vel   y-rot vel   z-rot vel   x-rot acc   y-rot acc   z-rot acc
    22626  8.56023E-03 1.44937E-02-2.93569E-03 6.66709E-03 9.20262E-03-2.43845E-03 3.14403E-03 2.39863E-03-7.44152E-04



 n o d a l   p r i n t   o u t   f o r   t i m e  s t e p   16202                              ( at time 8.0996894E+00 )

 nodal point  x-disp     y-disp      z-disp      x-vel       y-vel       z-vel      x-accl      y-accl      z-accl      x-coor      y-coor      z-coor
    22626  2.87509E-01 2.11660E-01-2.34230E+01 2.02004E-01 1.43478E-01-1.60888E+00 4.79583E-02-1.09739E-02 7.00500E-01 4.82517E+01-2.18181E+01-1.60845E+01



 n o d a l   p r i n t   o u t   f o r   t i m e  s t e p   16202                              ( at time 8.0996894E+00 )

 nodal point  x-rot      y-rot       z-rot       x-rot vel   y-rot vel   z-rot vel   x-rot acc   y-rot acc   z-rot acc
    22626  9.24448E-03 1.54244E-02-3.18342E-03 7.02579E-03 9.40519E-03-2.50149E-03 3.58738E-03 2.02591E-03-6.30425E-04



 n o d a l   p r i n t   o u t   f o r   t i m e  s t e p   16402                              ( at time 8.1996794E+00 )

 nodal point  x-disp     y-disp      z-disp      x-vel       y-vel       z-vel      x-accl      y-accl      z-accl      x-coor      y-coor      z-coor
    22626  3.08104E-01 2.25886E-01-2.35802E+01 2.08751E-01 1.41180E-01-1.53562E+00 6.74824E-02-2.29789E-02 7.32659E-01 4.82723E+01-2.18039E+01-1.62417E+01



 n o d a l   p r i n t   o u t   f o r   t i m e  s t e p   16402                              ( at time 8.1996794E+00 )

 nodal point  x-rot      y-rot       z-rot       x-rot vel   y-rot vel   z-rot vel   x-rot acc   y-rot acc   z-rot acc
    22626  9.96451E-03 1.63737E-02-3.43693E-03 7.37832E-03 9.57766E-03-2.57670E-03 3.52572E-03 1.72485E-03-7.52154E-04



 n o d a l   p r i n t   o u t   f o r   t i m e  s t e p   16602                              ( at time 8.2996694E+00 )

 nodal point  x-disp     y-disp      z-disp      x-vel       y-vel       z-vel      x-accl      y-accl      z-accl      x-coor      y-coor      z-coor
    22626  3.29290E-01 2.39742E-01-2.37302E+01 2.14083E-01 1.35335E-01-1.46516E+00 5.33161E-02-5.84608E-02 7.04690E-01 4.82935E+01-2.17900E+01-1.63917E+01



 n o d a l   p r i n t   o u t   f o r   t i m e  s t e p   16602                              ( at time 8.2996694E+00 )

 nodal point  x-rot      y-rot       z-rot       x-rot vel   y-rot vel   z-rot vel   x-rot acc   y-rot acc   z-rot acc
    22626  1.07203E-02 1.73407E-02-3.69726E-03 7.72660E-03 9.74842E-03-2.62542E-03 3.48313E-03 1.70776E-03-4.87308E-04



 n o d a l   p r i n t   o u t   f o r   t i m e  s t e p   16802                              ( at time 8.3996594E+00 )

 nodal point  x-disp     y-disp      z-disp      x-vel       y-vel       z-vel      x-accl      y-accl      z-accl      x-coor      y-coor      z-coor
    22626  3.50947E-01 2.52998E-01-2.38730E+01 2.18967E-01 1.29725E-01-1.39084E+00 4.88532E-02-5.61000E-02 7.43219E-01 4.83151E+01-2.17768E+01-1.65345E+01



 n o d a l   p r i n t   o u t   f o r   t i m e  s t e p   16802                              ( at time 8.3996594E+00 )

 nodal point  x-rot      y-rot       z-rot       x-rot vel   y-rot vel   z-rot vel   x-rot acc   y-rot acc   z-rot acc
    22626  1.15091E-02 1.83236E-02-3.96369E-03 8.07466E-03 9.91070E-03-2.69109E-03 3.48093E-03 1.62296E-03-6.56763E-04



 n o d a l   p r i n t   o u t   f o r   t i m e  s t e p   17002                              ( at time 8.4996494E+00 )

 nodal point  x-disp     y-disp      z-disp      x-vel       y-vel       z-vel      x-accl      y-accl      z-accl      x-coor      y-coor      z-coor
    22626  3.73093E-01 2.65657E-01-2.40083E+01 2.25482E-01 1.24060E-01-1.31500E+00 6.51555E-02-5.66574E-02 7.58510E-01 4.83373E+01-2.17641E+01-1.66698E+01



 n o d a l   p r i n t   o u t   f o r   t i m e  s t e p   17002                              ( at time 8.4996494E+00 )

 nodal point  x-rot      y-rot       z-rot       x-rot vel   y-rot vel   z-rot vel   x-rot acc   y-rot acc   z-rot acc
    22626  1.23373E-02 1.93210E-02-4.23655E-03 8.47579E-03 1.00271E-02-2.76719E-03 4.01173E-03 1.16434E-03-7.61037E-04



 n o d a l   p r i n t   o u t   f o r   t i m e  s t e p   17202                              ( at time 8.5996394E+00 )

 nodal point  x-disp     y-disp      z-disp      x-vel       y-vel       z-vel      x-accl      y-accl      z-accl      x-coor      y-coor      z-coor
    22626  3.95998E-01 2.77563E-01-2.41360E+01 2.32816E-01 1.15293E-01-1.23842E+00 7.33398E-02-8.76828E-02 7.65889E-01 4.83602E+01-2.17522E+01-1.67975E+01



 n o d a l   p r i n t   o u t   f o r   t i m e  s t e p   17202                              ( at time 8.5996394E+00 )

 nodal point  x-rot      y-rot       z-rot       x-rot vel   y-rot vel   z-rot vel   x-rot acc   y-rot acc   z-rot acc
    22626  1.32007E-02 2.03259E-02-4.51518E-03 8.82458E-03 1.00814E-02-2.82847E-03 3.48821E-03 5.43249E-04-6.12863E-04



 n o d a l   p r i n t   o u t   f o r   t i m e  s t e p   17402                              ( at time 8.6996293E+00 )

 nodal point  x-disp     y-disp      z-disp      x-vel       y-vel       z-vel      x-accl      y-accl      z-accl      x-coor      y-coor      z-coor
    22626  4.19480E-01 2.88668E-01-2.42560E+01 2.36949E-01 1.08285E-01-1.16409E+00 4.13406E-02-7.00867E-02 7.43307E-01 4.83837E+01-2.17411E+01-1.69175E+01



 n o d a l   p r i n t   o u t   f o r   t i m e  s t e p   17402                              ( at time 8.6996293E+00 )

 nodal point  x-rot      y-rot       z-rot       x-rot vel   y-rot vel   z-rot vel   x-rot acc   y-rot acc   z-rot acc
    22626  1.41041E-02 2.13423E-02-4.79912E-03 9.24953E-03 1.02211E-02-2.87802E-03 4.24993E-03 1.39636E-03-4.95521E-04



 n o d a l   p r i n t   o u t   f o r   t i m e  s t e p   17602                              ( at time 8.7996193E+00 )

 nodal point  x-disp     y-disp      z-disp      x-vel       y-vel       z-vel      x-accl      y-accl      z-accl      x-coor      y-coor      z-coor
    22626  4.43531E-01 2.99229E-01-2.43686E+01 2.44690E-01 1.01732E-01-1.08921E+00 7.74110E-02-6.55290E-02 7.48922E-01 4.84077E+01-2.17306E+01-1.70301E+01



 n o d a l   p r i n t   o u t   f o r   t i m e  s t e p   17602                              ( at time 8.7996193E+00 )

 nodal point  x-rot      y-rot       z-rot       x-rot vel   y-rot vel   z-rot vel   x-rot acc   y-rot acc   z-rot acc
    22626  1.50473E-02 2.23680E-02-5.08767E-03 9.61216E-03 1.02987E-02-2.90340E-03 3.62667E-03 7.76131E-04-2.53827E-04



 n o d a l   p r i n t   o u t   f o r   t i m e  s t e p   17802                              ( at time 8.8996093E+00 )

 nodal point  x-disp     y-disp      z-disp      x-vel       y-vel       z-vel      x-accl      y-accl      z-accl      x-coor      y-coor      z-coor
    22626  4.68379E-01 3.09062E-01-2.44739E+01 2.53739E-01 9.50742E-02-1.01652E+00 9.05024E-02-6.65881E-02 7.26983E-01 4.84326E+01-2.17207E+01-1.71354E+01



 n o d a l   p r i n t   o u t   f o r   t i m e  s t e p   17802                              ( at time 8.8996093E+00 )

 nodal point  x-rot      y-rot       z-rot       x-rot vel   y-rot vel   z-rot vel   x-rot acc   y-rot acc   z-rot acc
    22626  1.60289E-02 2.33991E-02-5.38140E-03 1.00022E-02 1.03505E-02-2.96639E-03 3.90100E-03 5.18073E-04-6.30043E-04



 n o d a l   p r i n t   o u t   f o r   t i m e  s t e p   18002                              ( at time 8.9995993E+00 )

 nodal point  x-disp     y-disp      z-disp      x-vel       y-vel       z-vel      x-accl      y-accl      z-accl      x-coor      y-coor      z-coor
    22626  4.94038E-01 3.18403E-01-2.45719E+01 2.59536E-01 8.98293E-02-9.45544E-01 5.79758E-02-5.24543E-02 7.09810E-01 4.84582E+01-2.17114E+01-1.72334E+01



 n o d a l   p r i n t   o u t   f o r   t i m e  s t e p   18002                              ( at time 8.9995993E+00 )

 nodal point  x-rot      y-rot       z-rot       x-rot vel   y-rot vel   z-rot vel   x-rot acc   y-rot acc   z-rot acc
    22626  1.70507E-02 2.44369E-02-5.67979E-03 1.04232E-02 1.04081E-02-2.99417E-03 4.21008E-03 5.76463E-04-2.77807E-04



 n o d a l   p r i n t   o u t   f o r   t i m e  s t e p   18202                              ( at time 9.0995893E+00 )

 nodal point  x-disp     y-disp      z-disp      x-vel       y-vel       z-vel      x-accl      y-accl      z-accl      x-coor      y-coor      z-coor
    22626  5.20367E-01 3.27298E-01-2.46629E+01 2.67669E-01 8.75286E-02-8.75943E-01 8.13406E-02-2.30093E-02 6.96077E-01 4.84845E+01-2.17025E+01-1.73244E+01



 n o d a l   p r i n t   o u t   f o r   t i m e  s t e p   18202                              ( at time 9.0995893E+00 )

 nodal point  x-rot      y-rot       z-rot       x-rot vel   y-rot vel   z-rot vel   x-rot acc   y-rot acc   z-rot acc
    22626  1.81132E-02 2.54815E-02-5.98089E-03 1.08097E-02 1.04796E-02-3.04593E-03 3.86509E-03 7.15458E-04-5.17621E-04



 n o d a l   p r i n t   o u t   f o r   t i m e  s t e p   18402                              ( at time 9.1995793E+00 )

 nodal point  x-disp     y-disp      z-disp      x-vel       y-vel       z-vel      x-accl      y-accl      z-accl      x-coor      y-coor      z-coor
    22626  5.47462E-01 3.35843E-01-2.47472E+01 2.75406E-01 8.25316E-02-8.09190E-01 7.73767E-02-4.99749E-02 6.67602E-01 4.85116E+01-2.16939E+01-1.74087E+01



 n o d a l   p r i n t   o u t   f o r   t i m e  s t e p   18402                              ( at time 9.1995793E+00 )

 nodal point  x-rot      y-rot       z-rot       x-rot vel   y-rot vel   z-rot vel   x-rot acc   y-rot acc   z-rot acc
    22626  1.92139E-02 2.65335E-02-6.28766E-03 1.12010E-02 1.05481E-02-3.07739E-03 3.91383E-03 6.84601E-04-3.14647E-04



 n o d a l   p r i n t   o u t   f o r   t i m e  s t e p   18602                              ( at time 9.2995693E+00 )

 nodal point  x-disp     y-disp      z-disp      x-vel       y-vel       z-vel      x-accl      y-accl      z-accl      x-coor      y-coor      z-coor
    22626  5.75435E-01 3.44027E-01-2.48247E+01 2.84445E-01 8.10645E-02-7.40788E-01 9.03951E-02-1.46728E-02 6.84087E-01 4.85396E+01-2.16858E+01-1.74862E+01



 n o d a l   p r i n t   o u t   f o r   t i m e  s t e p   18602                              ( at time 9.2995693E+00 )

 nodal point  x-rot      y-rot       z-rot       x-rot vel   y-rot vel   z-rot vel   x-rot acc   y-rot acc   z-rot acc
    22626  2.03532E-02 2.75900E-02-6.59633E-03 1.15638E-02 1.05716E-02-3.10947E-03 3.62802E-03 2.34624E-04-3.20810E-04



 n o d a l   p r i n t   o u t   f o r   t i m e  s t e p   18802                              ( at time 9.3995593E+00 )

 nodal point  x-disp     y-disp      z-disp      x-vel       y-vel       z-vel      x-accl      y-accl      z-accl      x-coor      y-coor      z-coor
    22626  6.04106E-01 3.51919E-01-2.48954E+01 2.89924E-01 7.77945E-02-6.75662E-01 5.48025E-02-3.27026E-02 6.51330E-01 4.85683E+01-2.16779E+01-1.75569E+01



 n o d a l   p r i n t   o u t   f o r   t i m e  s t e p   18802                              ( at time 9.3995593E+00 )

 nodal point  x-rot      y-rot       z-rot       x-rot vel   y-rot vel   z-rot vel   x-rot acc   y-rot acc   z-rot acc
    22626  2.15326E-02 2.86508E-02-6.90941E-03 1.20194E-02 1.06486E-02-3.15408E-03 4.55630E-03 7.70896E-04-4.46125E-04



 n o d a l   p r i n t   o u t   f o r   t i m e  s t e p   19002                              ( at time 9.4995493E+00 )

 nodal point  x-disp     y-disp      z-disp      x-vel       y-vel       z-vel      x-accl      y-accl      z-accl      x-coor      y-coor      z-coor
    22626  6.33556E-01 3.59797E-01-2.49596E+01 2.99674E-01 7.82150E-02-6.09863E-01 9.75028E-02 4.20538E-03 6.58054E-01 4.85977E+01-2.16700E+01-1.76211E+01



 n o d a l   p r i n t   o u t   f o r   t i m e  s t e p   19002                              ( at time 9.4995493E+00 )

 nodal point  x-rot      y-rot       z-rot       x-rot vel   y-rot vel   z-rot vel   x-rot acc   y-rot acc   z-rot acc
    22626  2.27523E-02 2.97190E-02-7.22733E-03 1.23627E-02 1.06938E-02-3.17909E-03 3.43355E-03 4.51970E-04-2.50120E-04



 n o d a l   p r i n t   o u t   f o r   t i m e  s t e p   19202                              ( at time 9.5995393E+00 )

 nodal point  x-disp     y-disp      z-disp      x-vel       y-vel       z-vel      x-accl      y-accl      z-accl      x-coor      y-coor      z-coor
    22626  6.63925E-01 3.67340E-01-2.50173E+01 3.06921E-01 7.50043E-02-5.45124E-01 7.24775E-02-3.21103E-02 6.47449E-01 4.86281E+01-2.16625E+01-1.76788E+01



 n o d a l   p r i n t   o u t   f o r   t i m e  s t e p   19202                              ( at time 9.5995393E+00 )

 nodal point  x-rot      y-rot       z-rot       x-rot vel   y-rot vel   z-rot vel   x-rot acc   y-rot acc   z-rot acc
    22626  2.40087E-02 3.07894E-02-7.54642E-03 1.27808E-02 1.07361E-02-3.21932E-03 4.18137E-03 4.22813E-04-4.02359E-04



 n o d a l   p r i n t   o u t   f o r   t i m e  s t e p   19402                              ( at time 9.6995293E+00 )

 nodal point  x-disp     y-disp      z-disp      x-vel       y-vel       z-vel      x-accl      y-accl      z-accl      x-coor      y-coor      z-coor
    22626  6.94927E-01 3.74893E-01-2.50688E+01 3.13173E-01 7.64820E-02-4.83334E-01 6.25292E-02 1.47788E-02 6.17959E-01 4.86591E+01-2.16549E+01-1.77303E+01



 n o d a l   p r i n t   o u t   f o r   t i m e  s t e p   19402                              ( at time 9.6995293E+00 )

 nodal point  x-rot      y-rot       z-rot       x-rot vel   y-rot vel   z-rot vel   x-rot acc   y-rot acc   z-rot acc
    22626  2.53054E-02 3.18630E-02-7.87053E-03 1.31483E-02 1.07500E-02-3.25124E-03 3.67571E-03 1.38464E-04-3.19224E-04



 n o d a l   p r i n t   o u t   f o r   t i m e  s t e p   19602                              ( at time 9.7995193E+00 )

 nodal point  x-disp     y-disp      z-disp      x-vel       y-vel       z-vel      x-accl      y-accl      z-accl      x-coor      y-coor      z-coor
    22626  7.26621E-01 3.82620E-01-2.51141E+01 3.21768E-01 7.62718E-02-4.23801E-01 8.59637E-02-2.10210E-03 5.95398E-01 4.86908E+01-2.16472E+01-1.77756E+01



 n o d a l   p r i n t   o u t   f o r   t i m e  s t e p   19602                              ( at time 9.7995193E+00 )

 nodal point  x-rot      y-rot       z-rot       x-rot vel   y-rot vel   z-rot vel   x-rot acc   y-rot acc   z-rot acc
    22626  2.66416E-02 3.29388E-02-8.20044E-03 1.35692E-02 1.07739E-02-3.31435E-03 4.20930E-03 2.39262E-04-6.31233E-04



 n o d a l   p r i n t   o u t   f o r   t i m e  s t e p   19802                              ( at time 9.8995093E+00 )

 nodal point  x-disp     y-disp      z-disp      x-vel       y-vel       z-vel      x-accl      y-accl      z-accl      x-coor      y-coor      z-coor
    22626  7.59217E-01 3.90046E-01-2.51534E+01 3.28520E-01 7.43978E-02-3.61628E-01 6.75180E-02-1.87419E-02 6.21787E-01 4.87234E+01-2.16397E+01-1.78149E+01



 n o d a l   p r i n t   o u t   f o r   t i m e  s t e p   19802                              ( at time 9.8995093E+00 )

 nodal point  x-rot      y-rot       z-rot       x-rot vel   y-rot vel   z-rot vel   x-rot acc   y-rot acc   z-rot acc
    22626  2.80120E-02 3.40169E-02-8.53196E-03 1.38649E-02 1.08393E-02-3.33046E-03 2.95754E-03 6.53780E-04-1.61072E-04



 n o d a l   p r i n t   o u t   f o r   t i m e  s t e p   20003                              ( at time 9.9999992E+00 )

 nodal point  x-disp     y-disp      z-disp      x-vel       y-vel       z-vel      x-accl      y-accl      z-accl      x-coor      y-coor      z-coor
[...]
    22626  2.61605E-01 1.57616E-01-7.15944E-02 1.89295E-02 8.99900E-03-6.27854E-03 1.00778E-04 4.30962E-05 3.64320E-04



 n o d a l   p r i n t   o u t   f o r   t i m e  s t e p   45205                              ( at time 2.2599738E+01 )

 nodal point  x-disp     y-disp      z-disp      x-vel       y-vel       z-vel      x-accl      y-accl      z-accl      x-coor      y-coor      z-coor
    22626  4.68159E+00 1.28085E+00-1.98363E+01 2.51338E-01 1.21047E-02 5.07327E-01 1.01927E-02-2.22844E-02-9.28606E-03 5.26458E+01-2.07489E+01-1.24978E+01



 n o d a l   p r i n t   o u t   f o r   t i m e  s t e p   45205                              ( at time 2.2599738E+01 )

 nodal point  x-rot      y-rot       z-rot       x-rot vel   y-rot vel   z-rot vel   x-rot acc   y-rot acc   z-rot acc
    22626  2.63497E-01 1.58517E-01-7.22201E-02 1.89215E-02 9.01620E-03-6.24151E-03-8.01756E-05 1.72096E-04 3.70314E-04



 n o d a l   p r i n t   o u t   f o r   t i m e  s t e p   45405                              ( at time 2.2699728E+01 )

 nodal point  x-disp     y-disp      z-disp      x-vel       y-vel       z-vel      x-accl      y-accl      z-accl      x-coor      y-coor      z-coor
    22626  4.70680E+00 1.28192E+00-1.97856E+01 2.52601E-01 9.52543E-03 5.06299E-01 1.26358E-02-2.57960E-02-1.02823E-02 5.26710E+01-2.07479E+01-1.24471E+01



 n o d a l   p r i n t   o u t   f o r   t i m e  s t e p   45405                              ( at time 2.2699728E+01 )

 nodal point  x-rot      y-rot       z-rot       x-rot vel   y-rot vel   z-rot vel   x-rot acc   y-rot acc   z-rot acc
    22626  2.65390E-01 1.59419E-01-7.28421E-02 1.89337E-02 9.02760E-03-6.20566E-03 1.21588E-04 1.13969E-04 3.58524E-04



 n o d a l   p r i n t   o u t   f o r   t i m e  s t e p   45605                              ( at time 2.2799718E+01 )

 nodal point  x-disp     y-disp      z-disp      x-vel       y-vel       z-vel      x-accl      y-accl      z-accl      x-coor      y-coor      z-coor
    22626  4.73215E+00 1.28277E+00-1.97350E+01 2.54145E-01 7.41508E-03 5.06161E-01 1.54369E-02-2.11054E-02-1.37819E-03 5.26963E+01-2.07470E+01-1.23965E+01



 n o d a l   p r i n t   o u t   f o r   t i m e  s t e p   45605                              ( at time 2.2799718E+01 )

 nodal point  x-rot      y-rot       z-rot       x-rot vel   y-rot vel   z-rot vel   x-rot acc   y-rot acc   z-rot acc
    22626  2.67284E-01 1.60322E-01-7.34607E-02 1.89489E-02 9.03851E-03-6.16403E-03 1.52658E-04 1.09096E-04 4.16353E-04



 n o d a l   p r i n t   o u t   f o r   t i m e  s t e p   45805                              ( at time 2.2899708E+01 )

 nodal point  x-disp     y-disp      z-disp      x-vel       y-vel       z-vel      x-accl      y-accl      z-accl      x-coor      y-coor      z-coor
    22626  4.75762E+00 1.28341E+00-1.96845E+01 2.55400E-01 5.34038E-03 5.04568E-01 1.25580E-02-2.07493E-02-1.59341E-02 5.27218E+01-2.07464E+01-1.23460E+01



 n o d a l   p r i n t   o u t   f o r   t i m e  s t e p   45805                              ( at time 2.2899708E+01 )

 nodal point  x-rot      y-rot       z-rot       x-rot vel   y-rot vel   z-rot vel   x-rot acc   y-rot acc   z-rot acc
    22626  2.69179E-01 1.61226E-01-7.40752E-02 1.89515E-02 9.04484E-03-6.12540E-03 2.61731E-05 6.32997E-05 3.86318E-04



 n o d a l   p r i n t   o u t   f o r   t i m e  s t e p   46005                              ( at time 2.2999698E+01 )

 nodal point  x-disp     y-disp      z-disp      x-vel       y-vel       z-vel      x-accl      y-accl      z-accl      x-coor      y-coor      z-coor
    22626  4.78319E+00 1.28383E+00-1.96341E+01 2.56469E-01 3.27947E-03 5.03862E-01 1.06869E-02-2.06110E-02-7.05426E-03 5.27474E+01-2.07460E+01-1.22956E+01



 n o d a l   p r i n t   o u t   f o r   t i m e  s t e p   46005                              ( at time 2.2999698E+01 )

 nodal point  x-rot      y-rot       z-rot       x-rot vel   y-rot vel   z-rot vel   x-rot acc   y-rot acc   z-rot acc
    22626  2.71074E-01 1.62131E-01-7.46863E-02 1.89649E-02 9.05433E-03-6.09459E-03 1.33433E-04 9.48918E-05 3.08091E-04



 n o d a l   p r i n t   o u t   f o r   t i m e  s t e p   46205                              ( at time 2.3099688E+01 )

 nodal point  x-disp     y-disp      z-disp      x-vel       y-vel       z-vel      x-accl      y-accl      z-accl      x-coor      y-coor      z-coor
    22626  4.80890E+00 1.28409E+00-1.95837E+01 2.57609E-01 1.70639E-03 5.03238E-01 1.14009E-02-1.57325E-02-6.24428E-03 5.27731E+01-2.07457E+01-1.22452E+01



 n o d a l   p r i n t   o u t   f o r   t i m e  s t e p   46205                              ( at time 2.3099688E+01 )

 nodal point  x-rot      y-rot       z-rot       x-rot vel   y-rot vel   z-rot vel   x-rot acc   y-rot acc   z-rot acc
    22626  2.72971E-01 1.63037E-01-7.52940E-02 1.89782E-02 9.06294E-03-6.05538E-03 1.33585E-04 8.61569E-05 3.92219E-04



 n o d a l   p r i n t   o u t   f o r   t i m e  s t e p   46405                              ( at time 2.3199678E+01 )

 nodal point  x-disp     y-disp      z-disp      x-vel       y-vel       z-vel      x-accl      y-accl      z-accl      x-coor      y-coor      z-coor
    22626  4.83473E+00 1.28415E+00-1.95335E+01 2.58799E-01-3.37910E-04 5.01885E-01 1.19023E-02-2.04448E-02-1.35261E-02 5.27989E+01-2.07456E+01-1.21950E+01



 n o d a l   p r i n t   o u t   f o r   t i m e  s t e p   46405                              ( at time 2.3199678E+01 )

 nodal point  x-rot      y-rot       z-rot       x-rot vel   y-rot vel   z-rot vel   x-rot acc   y-rot acc   z-rot acc
    22626  2.74869E-01 1.63943E-01-7.58978E-02 1.89867E-02 9.07196E-03-6.02675E-03 8.41993E-05 9.01789E-05 2.86245E-04



 n o d a l   p r i n t   o u t   f o r   t i m e  s t e p   46605                              ( at time 2.3299668E+01 )

 nodal point  x-disp     y-disp      z-disp      x-vel       y-vel       z-vel      x-accl      y-accl      z-accl      x-coor      y-coor      z-coor
    22626  4.86065E+00 1.28403E+00-1.94834E+01 2.59592E-01-1.68621E-03 5.00318E-01 7.92830E-03-1.34845E-02-1.56766E-02 5.28248E+01-2.07458E+01-1.21449E+01



 n o d a l   p r i n t   o u t   f o r   t i m e  s t e p   46605                              ( at time 2.3299668E+01 )

 nodal point  x-rot      y-rot       z-rot       x-rot vel   y-rot vel   z-rot vel   x-rot acc   y-rot acc   z-rot acc
    22626  2.76769E-01 1.64850E-01-7.64987E-02 1.90035E-02 9.07187E-03-5.99801E-03 1.68514E-04-9.22111E-07 2.87471E-04



 n o d a l   p r i n t   o u t   f o r   t i m e  s t e p   46805                              ( at time 2.3399658E+01 )

 nodal point  x-disp     y-disp      z-disp      x-vel       y-vel       z-vel      x-accl      y-accl      z-accl      x-coor      y-coor      z-coor
    22626  4.88667E+00 1.28379E+00-1.94334E+01 2.60640E-01-3.02899E-03 4.99052E-01 1.04789E-02-1.34291E-02-1.26636E-02 5.28508E+01-2.07460E+01-1.20949E+01



 n o d a l   p r i n t   o u t   f o r   t i m e  s t e p   46805                              ( at time 2.3399658E+01 )

 nodal point  x-rot      y-rot       z-rot       x-rot vel   y-rot vel   z-rot vel   x-rot acc   y-rot acc   z-rot acc
    22626  2.78670E-01 1.65758E-01-7.70966E-02 1.90262E-02 9.07919E-03-5.96702E-03 2.26481E-04 7.32459E-05 3.09959E-04



 n o d a l   p r i n t   o u t   f o r   t i m e  s t e p   47005                              ( at time 2.3499648E+01 )

 nodal point  x-disp     y-disp      z-disp      x-vel       y-vel       z-vel      x-accl      y-accl      z-accl      x-coor      y-coor      z-coor
    22626  4.91277E+00 1.28342E+00-1.93836E+01 2.61526E-01-4.28762E-03 4.97319E-01 8.86730E-03-1.25874E-02-1.73298E-02 5.28770E+01-2.07464E+01-1.20451E+01



 n o d a l   p r i n t   o u t   f o r   t i m e  s t e p   47005                              ( at time 2.3499648E+01 )

 nodal point  x-rot      y-rot       z-rot       x-rot vel   y-rot vel   z-rot vel   x-rot acc   y-rot acc   z-rot acc
    22626  2.80573E-01 1.66666E-01-7.76914E-02 1.90383E-02 9.07947E-03-5.93557E-03 1.21195E-04 2.83148E-06 3.14476E-04



 n o d a l   p r i n t   o u t   f o r   t i m e  s t e p   47205                              ( at time 2.3599638E+01 )

 nodal point  x-disp     y-disp      z-disp      x-vel       y-vel       z-vel      x-accl      y-accl      z-accl      x-coor      y-coor      z-coor
    22626  4.93895E+00 1.28292E+00-1.93340E+01 2.62150E-01-5.65189E-03 4.94929E-01 6.23772E-03-1.36443E-02-2.38958E-02 5.29031E+01-2.07469E+01-1.19955E+01



 n o d a l   p r i n t   o u t   f o r   t i m e  s t e p   47205                              ( at time 2.3599638E+01 )

 nodal point  x-rot      y-rot       z-rot       x-rot vel   y-rot vel   z-rot vel   x-rot acc   y-rot acc   z-rot acc
    22626  2.82477E-01 1.67574E-01-7.82833E-02 1.90423E-02 9.07667E-03-5.90961E-03 4.07219E-05-2.79893E-05 2.59644E-04



 n o d a l   p r i n t   o u t   f o r   t i m e  s t e p   47405                              ( at time 2.3699628E+01 )

 nodal point  x-disp     y-disp      z-disp      x-vel       y-vel       z-vel      x-accl      y-accl      z-accl      x-coor      y-coor      z-coor
    22626  4.96521E+00 1.28231E+00-1.92846E+01 2.63119E-01-6.52466E-03 4.92379E-01 9.69081E-03-8.72845E-03-2.55084E-02 5.29294E+01-2.07475E+01-1.19461E+01



 n o d a l   p r i n t   o u t   f o r   t i m e  s t e p   47405                              ( at time 2.3699628E+01 )

 nodal point  x-rot      y-rot       z-rot       x-rot vel   y-rot vel   z-rot vel   x-rot acc   y-rot acc   z-rot acc
    22626  2.84382E-01 1.68481E-01-7.88726E-02 1.90552E-02 9.07216E-03-5.87867E-03 1.28683E-04-4.51174E-05 3.09395E-04



 n o d a l   p r i n t   o u t   f o r   t i m e  s t e p   47605                              ( at time 2.3799618E+01 )

 nodal point  x-disp     y-disp      z-disp      x-vel       y-vel       z-vel      x-accl      y-accl      z-accl      x-coor      y-coor      z-coor
    22626  4.99156E+00 1.28161E+00-1.92355E+01 2.64071E-01-7.83318E-03 4.89187E-01 9.52558E-03-1.30866E-02-3.19221E-02 5.29557E+01-2.07482E+01-1.18970E+01



 n o d a l   p r i n t   o u t   f o r   t i m e  s t e p   47605                              ( at time 2.3799618E+01 )

 nodal point  x-rot      y-rot       z-rot       x-rot vel   y-rot vel   z-rot vel   x-rot acc   y-rot acc   z-rot acc
    22626  2.86287E-01 1.69388E-01-7.94589E-02 1.90563E-02 9.05930E-03-5.84502E-03 1.11771E-05-1.28695E-04 3.36538E-04



 n o d a l   p r i n t   o u t   f o r   t i m e  s t e p   47805                              ( at time 2.3899608E+01 )

 nodal point  x-disp     y-disp      z-disp      x-vel       y-vel       z-vel      x-accl      y-accl      z-accl      x-coor      y-coor      z-coor
    22626  5.01800E+00 1.28077E+00-1.91868E+01 2.64847E-01-9.03920E-03 4.84891E-01 7.75647E-03-1.20613E-02-4.29625E-02 5.29822E+01-2.07490E+01-1.18483E+01



 n o d a l   p r i n t   o u t   f o r   t i m e  s t e p   47805                              ( at time 2.3899608E+01 )

 nodal point  x-rot      y-rot       z-rot       x-rot vel   y-rot vel   z-rot vel   x-rot acc   y-rot acc   z-rot acc
    22626  2.88192E-01 1.70292E-01-8.00422E-02 1.90380E-02 9.03565E-03-5.82063E-03-1.82891E-04-2.36494E-04 2.43959E-04



 n o d a l   p r i n t   o u t   f o r   t i m e  s t e p   48005                              ( at time 2.3999598E+01 )

 nodal point  x-disp     y-disp      z-disp      x-vel       y-vel       z-vel      x-accl      y-accl      z-accl      x-coor      y-coor      z-coor
    22626  5.04452E+00 1.27977E+00-1.91386E+01 2.65786E-01-1.08723E-02 4.79848E-01 9.38817E-03-1.83325E-02-5.04409E-02 5.30087E+01-2.07500E+01-1.18001E+01



 n o d a l   p r i n t   o u t   f o r   t i m e  s t e p   48005                              ( at time 2.3999598E+01 )

 nodal point  x-rot      y-rot       z-rot       x-rot vel   y-rot vel   z-rot vel   x-rot acc   y-rot acc   z-rot acc
    22626  2.90094E-01 1.71195E-01-8.06225E-02 1.90133E-02 9.00851E-03-5.78568E-03-2.47387E-04-2.71399E-04 3.49559E-04



 n o d a l   p r i n t   o u t   f o r   t i m e  s t e p   48205                              ( at time 2.4099588E+01 )

 nodal point  x-disp     y-disp      z-disp      x-vel       y-vel       z-vel      x-accl      y-accl      z-accl      x-coor      y-coor      z-coor
    22626  5.07117E+00 1.27859E+00-1.90909E+01 2.67035E-01-1.27596E-02 4.73743E-01 1.24955E-02-1.88753E-02-6.10518E-02 5.30354E+01-2.07512E+01-1.17524E+01



 n o d a l   p r i n t   o u t   f o r   t i m e  s t e p   48205                              ( at time 2.4099588E+01 )

 nodal point  x-rot      y-rot       z-rot       x-rot vel   y-rot vel   z-rot vel   x-rot acc   y-rot acc   z-rot acc
    22626  2.91994E-01 1.72093E-01-8.11997E-02 1.89713E-02 8.96675E-03-5.75418E-03-4.20363E-04-4.17606E-04 3.15063E-04



 n o d a l   p r i n t   o u t   f o r   t i m e  s t e p   48405                              ( at time 2.4199578E+01 )

 nodal point  x-disp     y-disp      z-disp      x-vel       y-vel       z-vel      x-accl      y-accl      z-accl      x-coor      y-coor      z-coor
    22626  5.09793E+00 1.27721E+00-1.90439E+01 2.68116E-01-1.47331E-02 4.66514E-01 1.08132E-02-1.97369E-02-7.23025E-02 5.30621E+01-2.07526E+01-1.17054E+01



 n o d a l   p r i n t   o u t   f o r   t i m e  s t e p   48405                              ( at time 2.4199578E+01 )

 nodal point  x-rot      y-rot       z-rot       x-rot vel   y-rot vel   z-rot vel   x-rot acc   y-rot acc   z-rot acc
    22626  2.93888E-01 1.72987E-01-8.17733E-02 1.89188E-02 8.92079E-03-5.72089E-03-5.24802E-04-4.59696E-04 3.32924E-04



 n o d a l   p r i n t   o u t   f o r   t i m e  s t e p   48605                              ( at time 2.4299568E+01 )

 nodal point  x-disp     y-disp      z-disp      x-vel       y-vel       z-vel      x-accl      y-accl      z-accl      x-coor      y-coor      z-coor
    22626  5.12478E+00 1.27562E+00-1.89976E+01 2.69139E-01-1.70757E-02 4.58833E-01 1.02309E-02-2.34285E-02-7.68148E-02 5.30890E+01-2.07542E+01-1.16591E+01



 n o d a l   p r i n t   o u t   f o r   t i m e  s t e p   48605                              ( at time 2.4299568E+01 )

 nodal point  x-rot      y-rot       z-rot       x-rot vel   y-rot vel   z-rot vel   x-rot acc   y-rot acc   z-rot acc
    22626  2.95777E-01 1.73876E-01-8.23436E-02 1.88608E-02 8.86279E-03-5.68664E-03-5.80379E-04-5.80016E-04 3.42465E-04



 n o d a l   p r i n t   o u t   f o r   t i m e  s t e p   48805                              ( at time 2.4399558E+01 )

 nodal point  x-disp     y-disp      z-disp      x-vel       y-vel       z-vel      x-accl      y-accl      z-accl      x-coor      y-coor      z-coor
    22626  5.15177E+00 1.27380E+00-1.89521E+01 2.70439E-01-1.93829E-02 4.50551E-01 1.30004E-02-2.30743E-02-8.28256E-02 5.31159E+01-2.07560E+01-1.16136E+01



 n o d a l   p r i n t   o u t   f o r   t i m e  s t e p   48805                              ( at time 2.4399558E+01 )

 nodal point  x-rot      y-rot       z-rot       x-rot vel   y-rot vel   z-rot vel   x-rot acc   y-rot acc   z-rot acc
    22626  2.97659E-01 1.74760E-01-8.29106E-02 1.87918E-02 8.80440E-03-5.65451E-03-6.89577E-04-5.83955E-04 3.21387E-04



 n o d a l   p r i n t   o u t   f o r   t i m e  s t e p   49006                              ( at time 2.4500048E+01 )

 nodal point  x-disp     y-disp      z-disp      x-vel       y-vel       z-vel      x-accl      y-accl      z-accl      x-coor      y-coor      z-coor
    22626  5.17900E+00 1.27173E+00-1.89073E+01 2.71394E-01-2.16645E-02 4.41755E-01 9.50609E-03-2.27049E-02-8.75311E-02 5.31432E+01-2.07581E+01-1.15688E+01



 n o d a l   p r i n t   o u t   f o r   t i m e  s t e p   49006                              ( at time 2.4500048E+01 )

 nodal point  x-rot      y-rot       z-rot       x-rot vel   y-rot vel   z-rot vel   x-rot acc   y-rot acc   z-rot acc
    22626  2.99543E-01 1.75641E-01-8.34769E-02 1.87087E-02 8.74072E-03-5.62003E-03-8.26681E-04-6.33760E-04 3.43127E-04



 n o d a l   p r i n t   o u t   f o r   t i m e  s t e p   49206                              ( at time 2.4600038E+01 )

 nodal point  x-disp     y-disp      z-disp      x-vel       y-vel       z-vel      x-accl      y-accl      z-accl      x-coor      y-coor      z-coor
    22626  5.20620E+00 1.26944E+00-1.88636E+01 2.72790E-01-2.41999E-02 4.32694E-01 1.39556E-02-2.53562E-02-9.06178E-02 5.31704E+01-2.07603E+01-1.15251E+01



 n o d a l   p r i n t   o u t   f o r   t i m e  s t e p   49206                              ( at time 2.4600038E+01 )

 nodal point  x-rot      y-rot       z-rot       x-rot vel   y-rot vel   z-rot vel   x-rot acc   y-rot acc   z-rot acc
    22626  3.01411E-01 1.76512E-01-8.40371E-02 1.86336E-02 8.67226E-03-5.58498E-03-7.51572E-04-6.84641E-04 3.50484E-04



 n o d a l   p r i n t   o u t   f o r   t i m e  s t e p   49406                              ( at time 2.4700028E+01 )

 nodal point  x-disp     y-disp      z-disp      x-vel       y-vel       z-vel      x-accl      y-accl      z-accl      x-coor      y-coor      z-coor
    22626  5.23351E+00 1.26692E+00-1.88207E+01 2.73621E-01-2.63361E-02 4.24341E-01 8.30802E-03-2.13644E-02-8.35383E-02 5.31977E+01-2.07629E+01-1.14822E+01



 n o d a l   p r i n t   o u t   f o r   t i m e  s t e p   49406                              ( at time 2.4700028E+01 )

 nodal point  x-rot      y-rot       z-rot       x-rot vel   y-rot vel   z-rot vel   x-rot acc   y-rot acc   z-rot acc
    22626  3.03270E-01 1.77376E-01-8.45943E-02 1.85514E-02 8.60768E-03-5.55838E-03-8.22393E-04-6.45906E-04 2.66094E-04



 n o d a l   p r i n t   o u t   f o r   t i m e  s t e p   49606                              ( at time 2.4800018E+01 )

 nodal point  x-disp     y-disp      z-disp      x-vel       y-vel       z-vel      x-accl      y-accl      z-accl      x-coor      y-coor      z-coor
    22626  5.26092E+00 1.26416E+00-1.87787E+01 2.74650E-01-2.86969E-02 4.15904E-01 1.02953E-02-2.36104E-02-8.43817E-02 5.32251E+01-2.07656E+01-1.14402E+01



 n o d a l   p r i n t   o u t   f o r   t i m e  s t e p   49606                              ( at time 2.4800018E+01 )

 nodal point  x-rot      y-rot       z-rot       x-rot vel   y-rot vel   z-rot vel   x-rot acc   y-rot acc   z-rot acc
    22626  3.05120E-01 1.78233E-01-8.51485E-02 1.84699E-02 8.54487E-03-5.52990E-03-8.14498E-04-6.28114E-04 2.84801E-04



 n o d a l   p r i n t   o u t   f o r   t i m e  s t e p   49806                              ( at time 2.4900008E+01 )

 nodal point  x-disp     y-disp      z-disp      x-vel       y-vel       z-vel      x-accl      y-accl      z-accl      x-coor      y-coor      z-coor
    22626  5.28841E+00 1.26119E+00-1.87376E+01 2.75311E-01-3.05947E-02 4.07588E-01 6.61327E-03-1.89801E-02-8.31654E-02 5.32526E+01-2.07686E+01-1.13991E+01



 n o d a l   p r i n t   o u t   f o r   t i m e  s t e p   49806                              ( at time 2.4900008E+01 )

 nodal point  x-rot      y-rot       z-rot       x-rot vel   y-rot vel   z-rot vel   x-rot acc   y-rot acc   z-rot acc
    22626  3.06963E-01 1.79084E-01-8.56999E-02 1.83877E-02 8.48113E-03-5.50113E-03-8.22374E-04-6.37505E-04 2.87759E-04



 n o d a l   p r i n t   o u t   f o r   t i m e  s t e p   50006                              ( at time 2.4999998E+01 )

 nodal point  x-disp     y-disp      z-disp      x-vel       y-vel       z-vel      x-accl      y-accl      z-accl      x-coor      y-coor      z-coor
    22626  5.31599E+00 1.25805E+00-1.86972E+01 2.76179E-01-3.24638E-02 3.99815E-01 8.67714E-03-1.86926E-02-7.77363E-02 5.32802E+01-2.07717E+01-1.13587E+01



 n o d a l   p r i n t   o u t   f o r   t i m e  s t e p   50006                              ( at time 2.4999998E+01 )

 nodal point  x-rot      y-rot       z-rot       x-rot vel   y-rot vel   z-rot vel   x-rot acc   y-rot acc   z-rot acc
    22626  3.08798E-01 1.79930E-01-8.62491E-02 1.83115E-02 8.42218E-03-5.48139E-03-7.62264E-04-5.89553E-04 1.97323E-04
