 LSTC 50th% Full_FE H-III Dummy (Beta Version, February 17, 2019)        
                    ls-dyna smp s R16 R16.0_619_d222963 date 03/18/2025

{BEGIN LEGEND}
 Entity #        Title
    22626                                                                                     
{END LEGEND}




 n o d a l   p r i n t   o u t   f o r   t i m e  s t e p       1                              ( at time 0.0000000E+00 )

 nodal point  x-disp     y-disp      z-disp      x-vel       y-vel       z-vel      x-accl      y-accl      z-accl      x-coor      y-coor      z-coor
    22626  0.00000E+00 0.00000E+00 0.00000E+00 0.00000E+00 0.00000E+00 0.00000E+00 0.00000E+00 0.00000E+00 0.00000E+00 4.65938E+00-2.81908E+01-4.49817E+01



 n o d a l   p r i n t   o u t   f o r   t i m e  s t e p       1                              ( at time 0.0000000E+00 )

 nodal point  x-rot      y-rot       z-rot       x-rot vel   y-rot vel   z-rot vel   x-rot acc   y-rot acc   z-rot acc
    22626  0.00000E+00 0.00000E+00 0.00000E+00 0.00000E+00 0.00000E+00 0.00000E+00 0.00000E+00 0.00000E+00 0.00000E+00



 n o d a l   p r i n t   o u t   f o r   t i m e  s t e p     201                              ( at time 9.9989993E-02 )

 nodal point  x-disp     y-disp      z-disp      x-vel       y-vel       z-vel      x-accl      y-accl      z-accl      x-coor      y-coor      z-coor
    22626  2.73620E-07 1.73557E-06-5.34265E-05 4.19757E-05 2.55497E-04-1.46807E-03 4.19799E-04 2.55522E-03-1.46821E-02 4.65938E+00-2.81908E+01-4.49818E+01



 n o d a l   p r i n t   o u t   f o r   t i m e  s t e p     201                              ( at time 9.9989993E-02 )

 nodal point  x-rot      y-rot       z-rot       x-rot vel   y-rot vel   z-rot vel   x-rot acc   y-rot acc   z-rot acc
    22626 -5.99229E-08-8.39055E-09-5.46477E-09-5.87073E-06-9.70274E-07-9.27552E-07-5.87131E-05-9.70371E-06-9.27645E-06



 n o d a l   p r i n t   o u t   f o r   t i m e  s t e p     401                              ( at time 1.9997999E-01 )

 nodal point  x-disp     y-disp      z-disp      x-vel       y-vel       z-vel      x-accl      y-accl      z-accl      x-coor      y-coor      z-coor
    22626  1.73166E-05 3.61700E-04-6.67533E-04 3.05391E-05 7.81017E-03-1.21532E-02-1.14377E-04 7.55543E-02-1.06862E-01 4.65939E+00-2.81905E+01-4.49824E+01



 n o d a l   p r i n t   o u t   f o r   t i m e  s t e p     401                              ( at time 1.9997999E-01 )

 nodal point  x-rot      y-rot       z-rot       x-rot vel   y-rot vel   z-rot vel   x-rot acc   y-rot acc   z-rot acc
    22626 -2.82089E-06-3.37363E-07-3.34769E-07-3.94584E-05-1.75611E-06-2.26973E-06-3.35910E-04-7.85913E-06-1.34232E-05



 n o d a l   p r i n t   o u t   f o r   t i m e  s t e p     601                              ( at time 2.9996998E-01 )

 nodal point  x-disp     y-disp      z-disp      x-vel       y-vel       z-vel      x-accl      y-accl      z-accl      x-coor      y-coor      z-coor
    22626  2.74927E-05 1.23914E-03-2.33725E-03 4.27537E-04 8.42609E-03-1.92266E-02 3.97038E-03 6.15974E-03-7.07413E-02 4.65940E+00-2.81896E+01-4.49841E+01



 n o d a l   p r i n t   o u t   f o r   t i m e  s t e p     601                              ( at time 2.9996998E-01 )

 nodal point  x-rot      y-rot       z-rot       x-rot vel   y-rot vel   z-rot vel   x-rot acc   y-rot acc   z-rot acc
    22626 -5.38459E-06-3.90342E-07-6.44531E-07-1.52713E-05-5.53061E-06-6.71743E-06 2.41895E-04-3.77488E-05-4.44814E-05



 n o d a l   p r i n t   o u t   f o r   t i m e  s t e p     801                              ( at time 3.9995997E-01 )

 nodal point  x-disp     y-disp      z-disp      x-vel       y-vel       z-vel      x-accl      y-accl      z-accl      x-coor      y-coor      z-coor
    22626  2.69480E-05 2.15545E-03-4.27519E-03-3.04628E-04 1.06399E-02-2.09741E-02-7.32238E-03 2.21404E-02-1.74774E-02 4.65940E+00-2.81887E+01-4.49860E+01



 n o d a l   p r i n t   o u t   f o r   t i m e  s t e p     801                              ( at time 3.9995997E-01 )

 nodal point  x-rot      y-rot       z-rot       x-rot vel   y-rot vel   z-rot vel   x-rot acc   y-rot acc   z-rot acc
    22626 -7.53109E-06-1.25856E-06-1.00468E-06-4.30231E-05-6.40641E-06-1.86893E-06-2.77546E-04-8.75890E-06 4.84898E-05



 n o d a l   p r i n t   o u t   f o r   t i m e  s t e p    1001                              ( at time 4.9994997E-01 )

 nodal point  x-disp     y-disp      z-disp      x-vel       y-vel       z-vel      x-accl      y-accl      z-accl      x-coor      y-coor      z-coor
    22626  4.50961E-06 3.41619E-03-6.71652E-03-2.52597E-04 1.39770E-02-2.83791E-02 5.20366E-04 3.33739E-02-7.40574E-02 4.65938E+00-2.81874E+01-4.49884E+01



 n o d a l   p r i n t   o u t   f o r   t i m e  s t e p    1001                              ( at time 4.9994997E-01 )

 nodal point  x-rot      y-rot       z-rot       x-rot vel   y-rot vel   z-rot vel   x-rot acc   y-rot acc   z-rot acc
    22626 -1.31413E-05-1.22638E-06-1.03912E-06-7.93720E-05 2.50036E-06 3.16547E-06-3.63525E-04 8.90766E-05 5.03490E-05



 n o d a l   p r i n t   o u t   f o r   t i m e  s t e p    1201                              ( at time 5.9993996E-01 )

 nodal point  x-disp     y-disp      z-disp      x-vel       y-vel       z-vel      x-accl      y-accl      z-accl      x-coor      y-coor      z-coor
    22626 -1.75925E-06 4.96446E-03-9.64556E-03 3.67857E-05 1.62972E-02-3.05282E-02 2.89411E-03 2.32050E-02-2.14926E-02 4.65937E+00-2.81859E+01-4.49914E+01



 n o d a l   p r i n t   o u t   f o r   t i m e  s t e p    1201                              ( at time 5.9993996E-01 )

 nodal point  x-rot      y-rot       z-rot       x-rot vel   y-rot vel   z-rot vel   x-rot acc   y-rot acc   z-rot acc
    22626 -1.92564E-05-1.02206E-06-1.16170E-06-5.12915E-05 3.18479E-06-3.40789E-06 2.80834E-04 6.84493E-06-6.57402E-05



 n o d a l   p r i n t   o u t   f o r   t i m e  s t e p    1401                              ( at time 6.9992995E-01 )

 nodal point  x-disp     y-disp      z-disp      x-vel       y-vel       z-vel      x-accl      y-accl      z-accl      x-coor      y-coor      z-coor
    22626 -5.00915E-05 6.75741E-03-1.30524E-02-4.61295E-04 1.91739E-02-3.84170E-02-4.98131E-03 2.87692E-02-7.88960E-02 4.65933E+00-2.81841E+01-4.49948E+01



 n o d a l   p r i n t   o u t   f o r   t i m e  s t e p    1401                              ( at time 6.9992995E-01 )

 nodal point  x-rot      y-rot       z-rot       x-rot vel   y-rot vel   z-rot vel   x-rot acc   y-rot acc   z-rot acc
    22626 -2.41738E-05-1.10153E-06-1.02229E-06-5.77929E-05-7.23622E-07 1.56959E-06-6.50204E-05-3.90880E-05 4.97797E-05



 n o d a l   p r i n t   o u t   f o r   t i m e  s t e p    1601                              ( at time 7.9991994E-01 )

 nodal point  x-disp     y-disp      z-disp      x-vel       y-vel       z-vel      x-accl      y-accl      z-accl      x-coor      y-coor      z-coor
    22626 -7.79767E-05 8.83324E-03-1.72655E-02-4.98485E-04 2.14229E-02-4.40404E-02-3.71933E-04 2.24929E-02-5.62400E-02 4.65930E+00-2.81820E+01-4.49990E+01



 n o d a l   p r i n t   o u t   f o r   t i m e  s t e p    1601                              ( at time 7.9991994E-01 )

 nodal point  x-rot      y-rot       z-rot       x-rot vel   y-rot vel   z-rot vel   x-rot acc   y-rot acc   z-rot acc
    22626 -3.07972E-05-1.27559E-06-1.17707E-06-7.33455E-05-7.44053E-06-1.69261E-06-1.55542E-04-6.71758E-05-3.26252E-05



 n o d a l   p r i n t   o u t   f o r   t i m e  s t e p    1801                              ( at time 8.9990994E-01 )

 nodal point  x-disp     y-disp      z-disp      x-vel       y-vel       z-vel      x-accl      y-accl      z-accl      x-coor      y-coor      z-coor
    22626 -1.17168E-04 1.10147E-02-2.16665E-02-3.24975E-04 2.30944E-02-4.42264E-02 1.73528E-03 1.67161E-02-1.86000E-03 4.65926E+00-2.81798E+01-4.50034E+01



 n o d a l   p r i n t   o u t   f o r   t i m e  s t e p    1801                              ( at time 8.9990994E-01 )

 nodal point  x-rot      y-rot       z-rot       x-rot vel   y-rot vel   z-rot vel   x-rot acc   y-rot acc   z-rot acc
    22626 -3.70429E-05-1.59513E-06-1.52260E-06-5.78671E-05-3.35899E-07-4.58188E-06 1.54799E-04 7.10534E-05-2.88956E-05



 n o d a l   p r i n t   o u t   f o r   t i m e  s t e p    2001                              ( at time 9.9989993E-01 )

 nodal point  x-disp     y-disp      z-disp      x-vel       y-vel       z-vel      x-accl      y-accl      z-accl      x-coor      y-coor      z-coor
    22626 -1.50018E-04 1.34400E-02-2.62573E-02 2.38031E-05 2.52016E-02-4.83430E-02 3.48813E-03 2.10748E-02-4.11698E-02 4.65922E+00-2.81774E+01-4.50080E+01



 n o d a l   p r i n t   o u t   f o r   t i m e  s t e p    2001                              ( at time 9.9989993E-01 )

 nodal point  x-rot      y-rot       z-rot       x-rot vel   y-rot vel   z-rot vel   x-rot acc   y-rot acc   z-rot acc
    22626 -4.32507E-05-1.77282E-06-1.93802E-06-7.34562E-05-1.05739E-06-8.70455E-06-1.55906E-04-7.21564E-06-4.12308E-05



 n o d a l   p r i n t   o u t   f o r   t i m e  s t e p    2201                              ( at time 1.0998899E+00 )

 nodal point  x-disp     y-disp      z-disp      x-vel       y-vel       z-vel      x-accl      y-accl      z-accl      x-coor      y-coor      z-coor
    22626 -1.59624E-04 1.60395E-02-3.13962E-02-4.07359E-04 2.73554E-02-5.40930E-02-4.31205E-03 2.15398E-02-5.75060E-02 4.65922E+00-2.81748E+01-4.50131E+01



 n o d a l   p r i n t   o u t   f o r   t i m e  s t e p    2201                              ( at time 1.0998899E+00 )

 nodal point  x-rot      y-rot       z-rot       x-rot vel   y-rot vel   z-rot vel   x-rot acc   y-rot acc   z-rot acc
    22626 -5.06297E-05-2.19308E-06-2.81774E-06-6.18866E-05-1.13773E-05-7.40812E-06 1.15708E-04-1.03209E-04 1.29656E-05



 n o d a l   p r i n t   o u t   f o r   t i m e  s t e p    2401                              ( at time 1.1998799E+00 )

 nodal point  x-disp     y-disp      z-disp      x-vel       y-vel       z-vel      x-accl      y-accl      z-accl      x-coor      y-coor      z-coor
    22626 -1.93528E-04 1.88185E-02-3.70573E-02-1.79554E-04 2.85043E-02-5.88000E-02 2.27827E-03 1.14901E-02-4.70743E-02 4.65918E+00-2.81720E+01-4.50188E+01



 n o d a l   p r i n t   o u t   f o r   t i m e  s t e p    2401                              ( at time 1.1998799E+00 )

 nodal point  x-rot      y-rot       z-rot       x-rot vel   y-rot vel   z-rot vel   x-rot acc   y-rot acc   z-rot acc
    22626 -5.61521E-05-3.16349E-06-3.65418E-06-5.43907E-05-1.00840E-05-9.77311E-06 7.49657E-05 1.29338E-05-2.36523E-05



 n o d a l   p r i n t   o u t   f o r   t i m e  s t e p    2601                              ( at time 1.2998699E+00 )

 nodal point  x-disp     y-disp      z-disp      x-vel       y-vel       z-vel      x-accl      y-accl      z-accl      x-coor      y-coor      z-coor
    22626 -2.28488E-04 2.17817E-02-4.30562E-02-2.76845E-04 3.05800E-02-6.10208E-02-9.73004E-04 2.07588E-02-2.22103E-02 4.65915E+00-2.81690E+01-4.50248E+01



 n o d a l   p r i n t   o u t   f o r   t i m e  s t e p    2601                              ( at time 1.2998699E+00 )

 nodal point  x-rot      y-rot       z-rot       x-rot vel   y-rot vel   z-rot vel   x-rot acc   y-rot acc   z-rot acc
    22626 -6.20066E-05-3.98033E-06-4.64116E-06-7.34530E-05-3.39049E-06-8.52020E-06-1.90642E-04 6.69421E-05 1.25304E-05



 n o d a l   p r i n t   o u t   f o r   t i m e  s t e p    2801                              ( at time 1.3998599E+00 )

 nodal point  x-disp     y-disp      z-disp      x-vel       y-vel       z-vel      x-accl      y-accl      z-accl      x-coor      y-coor      z-coor
    22626 -2.62646E-04 2.49282E-02-4.92475E-02-5.41425E-04 3.21592E-02-6.35426E-02-2.64606E-03 1.57942E-02-2.52209E-02 4.65911E+00-2.81659E+01-4.50310E+01



 n o d a l   p r i n t   o u t   f o r   t i m e  s t e p    2801                              ( at time 1.3998599E+00 )

 nodal point  x-rot      y-rot       z-rot       x-rot vel   y-rot vel   z-rot vel   x-rot acc   y-rot acc   z-rot acc
    22626 -6.92160E-05-4.25252E-06-5.41321E-06-7.12767E-05-4.20127E-06-5.35797E-06 2.17652E-05-8.10863E-06 3.16255E-05



 n o d a l   p r i n t   o u t   f o r   t i m e  s t e p    3001                              ( at time 1.4998499E+00 )

 nodal point  x-disp     y-disp      z-disp      x-vel       y-vel       z-vel      x-accl      y-accl      z-accl      x-coor      y-coor      z-coor
    22626 -3.12524E-04 2.82828E-02-5.59340E-02-5.36139E-04 3.47877E-02-7.05478E-02 5.28584E-05 2.62873E-02-7.00589E-02 4.65906E+00-2.81625E+01-4.50377E+01



 n o d a l   p r i n t   o u t   f o r   t i m e  s t e p    3001                              ( at time 1.4998499E+00 )

 nodal point  x-rot      y-rot       z-rot       x-rot vel   y-rot vel   z-rot vel   x-rot acc   y-rot acc   z-rot acc
    22626 -7.55092E-05-4.56878E-06-6.06808E-06-5.59708E-05-3.55807E-06-1.00081E-05 1.53075E-04 6.43265E-06-4.65063E-05



 n o d a l   p r i n t   o u t   f o r   t i m e  s t e p    3201                              ( at time 1.5998399E+00 )

 nodal point  x-disp     y-disp      z-disp      x-vel       y-vel       z-vel      x-accl      y-accl      z-accl      x-coor      y-coor      z-coor
    22626 -3.81517E-04 3.19328E-02-6.32839E-02-6.27050E-04 3.79871E-02-7.56945E-02-9.09200E-04 3.19979E-02-5.14724E-02 4.65899E+00-2.81589E+01-4.50450E+01



 n o d a l   p r i n t   o u t   f o r   t i m e  s t e p    3201                              ( at time 1.5998399E+00 )

 nodal point  x-rot      y-rot       z-rot       x-rot vel   y-rot vel   z-rot vel   x-rot acc   y-rot acc   z-rot acc
    22626 -8.05029E-05-4.94096E-06-6.63269E-06-5.32187E-05-4.49992E-06-4.60805E-06 2.75234E-05-9.41948E-06 5.40062E-05



 n o d a l   p r i n t   o u t   f o r   t i m e  s t e p    3401                              ( at time 1.6998299E+00 )

 nodal point  x-disp     y-disp      z-disp      x-vel       y-vel       z-vel      x-accl      y-accl      z-accl      x-coor      y-coor      z-coor
    22626 -4.45963E-04 3.58101E-02-7.10056E-02-8.44236E-04 3.92694E-02-7.82976E-02-2.17207E-03 1.28243E-02-2.60334E-02 4.65893E+00-2.81550E+01-4.50527E+01



 n o d a l   p r i n t   o u t   f o r   t i m e  s t e p    3401                              ( at time 1.6998299E+00 )

 nodal point  x-rot      y-rot       z-rot       x-rot vel   y-rot vel   z-rot vel   x-rot acc   y-rot acc   z-rot acc
    22626 -8.63911E-05-5.06387E-06-7.07123E-06-6.03719E-05 3.94828E-07-5.44694E-07-7.15387E-05 4.89524E-05 4.06376E-05



 n o d a l   p r i n t   o u t   f o r   t i m e  s t e p    3601                              ( at time 1.7998199E+00 )

 nodal point  x-disp     y-disp      z-disp      x-vel       y-vel       z-vel      x-accl      y-accl      z-accl      x-coor      y-coor      z-coor
    22626 -5.14404E-04 3.97665E-02-7.89412E-02-5.87439E-04 4.02531E-02-8.03720E-02 2.56822E-03 9.83714E-03-2.07464E-02 4.65886E+00-2.81511E+01-4.50607E+01



 n o d a l   p r i n t   o u t   f o r   t i m e  s t e p    3601                              ( at time 1.7998199E+00 )

 nodal point  x-rot      y-rot       z-rot       x-rot vel   y-rot vel   z-rot vel   x-rot acc   y-rot acc   z-rot acc
    22626 -9.25203E-05-5.09631E-06-7.40728E-06-5.52630E-05 4.14246E-07-6.56354E-06 5.10937E-05 1.94198E-07-6.01946E-05



 n o d a l   p r i n t   o u t   f o r   t i m e  s t e p    3801                              ( at time 1.8998099E+00 )

 nodal point  x-disp     y-disp      z-disp      x-vel       y-vel       z-vel      x-accl      y-accl      z-accl      x-coor      y-coor      z-coor
    22626 -5.79252E-04 4.39452E-02-8.71607E-02-4.12798E-04 4.30088E-02-8.42082E-02 1.74659E-03 2.75602E-02-3.83656E-02 4.65880E+00-2.81469E+01-4.50689E+01



 n o d a l   p r i n t   o u t   f o r   t i m e  s t e p    3801                              ( at time 1.8998099E+00 )

 nodal point  x-rot      y-rot       z-rot       x-rot vel   y-rot vel   z-rot vel   x-rot acc   y-rot acc   z-rot acc
    22626 -9.76827E-05-4.97121E-06-7.76827E-06-4.91186E-05-1.81623E-06-5.34961E-06 6.14507E-05-2.23070E-05 1.21405E-05



 n o d a l   p r i n t   o u t   f o r   t i m e  s t e p    4001                              ( at time 1.9997999E+00 )

 nodal point  x-disp     y-disp      z-disp      x-vel       y-vel       z-vel      x-accl      y-accl      z-accl      x-coor      y-coor      z-coor
    22626 -6.25707E-04 4.82899E-02-9.57985E-02-5.39766E-04 4.41206E-02-8.83997E-02-1.26981E-03 1.11189E-02-4.19190E-02 4.65875E+00-2.81425E+01-4.50775E+01



 n o d a l   p r i n t   o u t   f o r   t i m e  s t e p    4001                              ( at time 1.9997999E+00 )

 nodal point  x-rot      y-rot       z-rot       x-rot vel   y-rot vel   z-rot vel   x-rot acc   y-rot acc   z-rot acc
    22626 -1.02624E-04-5.10238E-06-8.19450E-06-5.31804E-05-3.83266E-06-2.36734E-06-4.06227E-05-2.01663E-05 2.98257E-05



 n o d a l   p r i n t   o u t   f o r   t i m e  s t e p    4201                              ( at time 2.0997899E+00 )

 nodal point  x-disp     y-disp      z-disp      x-vel       y-vel       z-vel      x-accl      y-accl      z-accl      x-coor      y-coor      z-coor
    22626 -6.77934E-04 5.27345E-02-1.04741E-01-5.13045E-04 4.50495E-02-9.04990E-02 2.67233E-04 9.28998E-03-2.09952E-02 4.65870E+00-2.81381E+01-4.50865E+01



 n o d a l   p r i n t   o u t   f o r   t i m e  s t e p    4201                              ( at time 2.0997899E+00 )

 nodal point  x-rot      y-rot       z-rot       x-rot vel   y-rot vel   z-rot vel   x-rot acc   y-rot acc   z-rot acc
    22626 -1.07388E-04-5.42002E-06-8.50495E-06-4.51230E-05-2.10913E-06-4.65385E-08 8.05821E-05 1.72371E-05 2.32104E-05



 n o d a l   p r i n t   o u t   f o r   t i m e  s t e p    4401                              ( at time 2.1997798E+00 )

 nodal point  x-disp     y-disp      z-disp      x-vel       y-vel       z-vel      x-accl      y-accl      z-accl      x-coor      y-coor      z-coor
    22626 -7.32849E-04 5.73047E-02-1.13856E-01-3.99085E-04 4.60311E-02-9.18271E-02 1.13972E-03 9.81702E-03-1.32820E-02 4.65864E+00-2.81335E+01-4.50956E+01



 n o d a l   p r i n t   o u t   f o r   t i m e  s t e p    4401                              ( at time 2.1997798E+00 )

 nodal point  x-rot      y-rot       z-rot       x-rot vel   y-rot vel   z-rot vel   x-rot acc   y-rot acc   z-rot acc
    22626 -1.12247E-04-5.39005E-06-8.61384E-06-5.27989E-05 9.86803E-07-9.47325E-07-7.67661E-05 3.09624E-05-9.00877E-06



 n o d a l   p r i n t   o u t   f o r   t i m e  s t e p    4601                              ( at time 2.2997698E+00 )

 nodal point  x-disp     y-disp      z-disp      x-vel       y-vel       z-vel      x-accl      y-accl      z-accl      x-coor      y-coor      z-coor
    22626 -7.74403E-04 6.19328E-02-1.23117E-01-5.22228E-04 4.69886E-02-9.40604E-02-1.23155E-03 9.57569E-03-2.23358E-02 4.65860E+00-2.81289E+01-4.51048E+01



 n o d a l   p r i n t   o u t   f o r   t i m e  s t e p    4601                              ( at time 2.2997698E+00 )

 nodal point  x-rot      y-rot       z-rot       x-rot vel   y-rot vel   z-rot vel   x-rot acc   y-rot acc   z-rot acc
    22626 -1.17828E-04-5.08226E-06-8.53211E-06-5.21177E-05 3.36264E-06-1.57363E-07 6.81235E-06 2.37607E-05 7.90039E-06



 n o d a l   p r i n t   o u t   f o r   t i m e  s t e p    4801                              ( at time 2.3997598E+00 )

 nodal point  x-disp     y-disp      z-disp      x-vel       y-vel       z-vel      x-accl      y-accl      z-accl      x-coor      y-coor      z-coor
    22626 -8.36673E-04 6.67565E-02-1.32774E-01-6.91601E-04 4.91356E-02-9.90305E-02-1.69390E-03 2.14720E-02-4.97054E-02 4.65854E+00-2.81241E+01-4.51145E+01



 n o d a l   p r i n t   o u t   f o r   t i m e  s t e p    4801                              ( at time 2.3997598E+00 )

 nodal point  x-rot      y-rot       z-rot       x-rot vel   y-rot vel   z-rot vel   x-rot acc   y-rot acc   z-rot acc
    22626 -1.22898E-04-4.82597E-06-8.21512E-06-4.94898E-05 2.91169E-06 6.34781E-06 2.62814E-05-4.50993E-06 6.50583E-05



 n o d a l   p r i n t   o u t   f o r   t i m e  s t e p    5001                              ( at time 2.4997498E+00 )

 nodal point  x-disp     y-disp      z-disp      x-vel       y-vel       z-vel      x-accl      y-accl      z-accl      x-coor      y-coor      z-coor
    22626 -9.02980E-04 7.17701E-02-1.42844E-01-7.02299E-04 5.04771E-02-1.01541E-01-1.06992E-04 1.34165E-02-2.51093E-02 4.65847E+00-2.81191E+01-4.51246E+01



 n o d a l   p r i n t   o u t   f o r   t i m e  s t e p    5001                              ( at time 2.4997498E+00 )

 nodal point  x-rot      y-rot       z-rot       x-rot vel   y-rot vel   z-rot vel   x-rot acc   y-rot acc   z-rot acc
    22626 -1.27903E-04-4.47882E-06-7.79960E-06-4.57254E-05 4.93565E-06 5.58567E-06 3.76477E-05 2.02416E-05-7.62209E-06



 n o d a l   p r i n t   o u t   f o r   t i m e  s t e p    5201                              ( at time 2.5997398E+00 )

 nodal point  x-disp     y-disp      z-disp      x-vel       y-vel       z-vel      x-accl      y-accl      z-accl      x-coor      y-coor      z-coor
    22626 -9.80979E-04 7.68186E-02-1.53008E-01-8.02662E-04 5.04927E-02-1.01753E-01-1.00373E-03 1.56254E-04-2.11849E-03 4.65839E+00-2.81140E+01-4.51347E+01



 n o d a l   p r i n t   o u t   f o r   t i m e  s t e p    5201                              ( at time 2.5997398E+00 )

 nodal point  x-rot      y-rot       z-rot       x-rot vel   y-rot vel   z-rot vel   x-rot acc   y-rot acc   z-rot acc
    22626 -1.32646E-04-3.90019E-06-7.25333E-06-4.69526E-05 7.13556E-06 5.21166E-06-1.22732E-05 2.20013E-05-3.74050E-06



 n o d a l   p r i n t   o u t   f o r   t i m e  s t e p    5401                              ( at time 2.6997298E+00 )

 nodal point  x-disp     y-disp      z-disp      x-vel       y-vel       z-vel      x-accl      y-accl      z-accl      x-coor      y-coor      z-coor
    22626 -1.06650E-03 8.18673E-02-1.63208E-01-7.65655E-04 5.08962E-02-1.02511E-01 3.70105E-04 4.03526E-03-7.58373E-03 4.65831E+00-2.81090E+01-4.51449E+01



 n o d a l   p r i n t   o u t   f o r   t i m e  s t e p    5401                              ( at time 2.6997298E+00 )

 nodal point  x-rot      y-rot       z-rot       x-rot vel   y-rot vel   z-rot vel   x-rot acc   y-rot acc   z-rot acc
    22626 -1.38107E-04-3.25801E-06-6.60922E-06-6.18948E-05 7.32356E-06 5.82670E-06-1.49437E-04 1.88018E-06 6.15100E-06



 n o d a l   p r i n t   o u t   f o r   t i m e  s t e p    5601                              ( at time 2.7997198E+00 )

 nodal point  x-disp     y-disp      z-disp      x-vel       y-vel       z-vel      x-accl      y-accl      z-accl      x-coor      y-coor      z-coor
    22626 -1.13780E-03 8.69911E-02-1.73532E-01-8.02038E-04 5.14626E-02-1.04218E-01-3.63861E-04 5.66495E-03-1.70697E-02 4.65824E+00-2.81038E+01-4.51553E+01



 n o d a l   p r i n t   o u t   f o r   t i m e  s t e p    5601                              ( at time 2.7997198E+00 )

 nodal point  x-rot      y-rot       z-rot       x-rot vel   y-rot vel   z-rot vel   x-rot acc   y-rot acc   z-rot acc
    22626 -1.43427E-04-2.57295E-06-6.11904E-06-4.50127E-05 4.22908E-06 4.73267E-06 1.68839E-04-3.09479E-05-1.09414E-05



 n o d a l   p r i n t   o u t   f o r   t i m e  s t e p    5801                              ( at time 2.8997098E+00 )

 nodal point  x-disp     y-disp      z-disp      x-vel       y-vel       z-vel      x-accl      y-accl      z-accl      x-coor      y-coor      z-coor
    22626 -1.20091E-03 9.21359E-02-1.84063E-01-5.68599E-04 5.15081E-02-1.06326E-01 2.33462E-03 4.54606E-04-2.10809E-02 4.65817E+00-2.80987E+01-4.51658E+01



 n o d a l   p r i n t   o u t   f o r   t i m e  s t e p    5801                              ( at time 2.8997098E+00 )

 nodal point  x-rot      y-rot       z-rot       x-rot vel   y-rot vel   z-rot vel   x-rot acc   y-rot acc   z-rot acc
    22626 -1.47611E-04-2.17733E-06-5.83237E-06-4.45871E-05 3.17535E-06 3.32717E-06 4.25614E-06-1.05384E-05-1.40564E-05



 n o d a l   p r i n t   o u t   f o r   t i m e  s t e p    6001                              ( at time 2.9996998E+00 )

 nodal point  x-disp     y-disp      z-disp      x-vel       y-vel       z-vel      x-accl      y-accl      z-accl      x-coor      y-coor      z-coor
    22626 -1.27440E-03 9.72605E-02-1.94714E-01-5.93333E-04 5.09409E-02-1.06303E-01-2.47364E-04-5.67280E-03 2.31959E-04 4.65810E+00-2.80936E+01-4.51764E+01



 n o d a l   p r i n t   o u t   f o r   t i m e  s t e p    6001                              ( at time 2.9996998E+00 )

 nodal point  x-rot      y-rot       z-rot       x-rot vel   y-rot vel   z-rot vel   x-rot acc   y-rot acc   z-rot acc
    22626 -1.52894E-04-2.01570E-06-5.57345E-06-5.70765E-05 9.67484E-07 3.22021E-06-1.24907E-04-2.20808E-05-1.06978E-06



 n o d a l   p r i n t   o u t   f o r   t i m e  s t e p    6201                              ( at time 3.0996898E+00 )

 nodal point  x-disp     y-disp      z-disp      x-vel       y-vel       z-vel      x-accl      y-accl      z-accl      x-coor      y-coor      z-coor
    22626 -1.33610E-03 1.02353E-01-2.05329E-01-6.91308E-04 5.10447E-02-1.06487E-01-9.79847E-04 1.03901E-03-1.84488E-03 4.65804E+00-2.80885E+01-4.51870E+01



 n o d a l   p r i n t   o u t   f o r   t i m e  s t e p    6201                              ( at time 3.0996898E+00 )

 nodal point  x-rot      y-rot       z-rot       x-rot vel   y-rot vel   z-rot vel   x-rot acc   y-rot acc   z-rot acc
    22626 -1.58754E-04-1.83203E-06-5.38162E-06-5.92201E-05 2.16759E-06 2.65768E-06-2.14374E-05 1.20023E-05-5.62585E-06



 n o d a l   p r i n t   o u t   f o r   t i m e  s t e p    6401                              ( at time 3.1996798E+00 )

 nodal point  x-disp     y-disp      z-disp      x-vel       y-vel       z-vel      x-accl      y-accl      z-accl      x-coor      y-coor      z-coor
    22626 -1.38609E-03 1.07482E-01-2.16093E-01-4.63853E-04 5.16380E-02-1.08959E-01 2.27477E-03 5.93345E-03-2.47226E-02 4.65799E+00-2.80833E+01-4.51978E+01



 n o d a l   p r i n t   o u t   f o r   t i m e  s t e p    6401                              ( at time 3.1996798E+00 )

 nodal point  x-rot      y-rot       z-rot       x-rot vel   y-rot vel   z-rot vel   x-rot acc   y-rot acc   z-rot acc
    22626 -1.64599E-04-1.47168E-06-5.32578E-06-5.56066E-05 2.60570E-06 6.97525E-07 3.61381E-05 4.38156E-06-1.96035E-05



 n o d a l   p r i n t   o u t   f o r   t i m e  s t e p    6601                              ( at time 3.2996698E+00 )

 nodal point  x-disp     y-disp      z-disp      x-vel       y-vel       z-vel      x-accl      y-accl      z-accl      x-coor      y-coor      z-coor
    22626 -1.45371E-03 1.12676E-01-2.27116E-01-7.28076E-04 5.20190E-02-1.11259E-01-2.64249E-03 3.81028E-03-2.29951E-02 4.65792E+00-2.80782E+01-4.52088E+01



 n o d a l   p r i n t   o u t   f o r   t i m e  s t e p    6601                              ( at time 3.2996698E+00 )

 nodal point  x-rot      y-rot       z-rot       x-rot vel   y-rot vel   z-rot vel   x-rot acc   y-rot acc   z-rot acc
    22626 -1.70461E-04-1.28326E-06-5.10479E-06-5.89947E-05 2.80354E-06 8.62370E-07-3.38845E-05 1.97856E-06 1.64862E-06



 n o d a l   p r i n t   o u t   f o r   t i m e  s t e p    6801                              ( at time 3.3996598E+00 )

 nodal point  x-disp     y-disp      z-disp      x-vel       y-vel       z-vel      x-accl      y-accl      z-accl      x-coor      y-coor      z-coor
    22626 -1.53396E-03 1.17878E-01-2.38273E-01-9.45169E-04 5.19182E-02-1.11692E-01-2.17114E-03-1.00813E-03-4.33644E-03 4.65784E+00-2.80730E+01-4.52200E+01



 n o d a l   p r i n t   o u t   f o r   t i m e  s t e p    6801                              ( at time 3.3996598E+00 )

 nodal point  x-rot      y-rot       z-rot       x-rot vel   y-rot vel   z-rot vel   x-rot acc   y-rot acc   z-rot acc
    22626 -1.76295E-04-1.05202E-06-4.94937E-06-5.65283E-05 5.54630E-06 4.77876E-06 2.46668E-05 2.74303E-05 3.91677E-05



 n o d a l   p r i n t   o u t   f o r   t i m e  s t e p    7001                              ( at time 3.4996498E+00 )

 nodal point  x-disp     y-disp      z-disp      x-vel       y-vel       z-vel      x-accl      y-accl      z-accl      x-coor      y-coor      z-coor
    22626 -1.61037E-03 1.23075E-01-2.49392E-01-8.63376E-04 5.23672E-02-1.10695E-01 8.18006E-04 4.49036E-03 9.97190E-03 4.65776E+00-2.80678E+01-4.52311E+01



 n o d a l   p r i n t   o u t   f o r   t i m e  s t e p    7001                              ( at time 3.4996498E+00 )

 nodal point  x-rot      y-rot       z-rot       x-rot vel   y-rot vel   z-rot vel   x-rot acc   y-rot acc   z-rot acc
    22626 -1.82690E-04-4.50174E-07-4.77031E-06-6.99701E-05 5.78668E-06-1.32247E-06-1.34432E-04 2.40411E-06-6.10185E-05



 n o d a l   p r i n t   o u t   f o r   t i m e  s t e p    7201                              ( at time 3.5996397E+00 )

 nodal point  x-disp     y-disp      z-disp      x-vel       y-vel       z-vel      x-accl      y-accl      z-accl      x-coor      y-coor      z-coor
    22626 -1.72443E-03 1.28415E-01-2.60442E-01-1.25462E-03 5.47837E-02-1.10732E-01-3.91287E-03 2.41677E-02-3.66382E-04 4.65765E+00-2.80624E+01-4.52422E+01



 n o d a l   p r i n t   o u t   f o r   t i m e  s t e p    7201                              ( at time 3.5996397E+00 )

 nodal point  x-rot      y-rot       z-rot       x-rot vel   y-rot vel   z-rot vel   x-rot acc   y-rot acc   z-rot acc
    22626 -1.91165E-04-1.71008E-07-5.36973E-06-1.04881E-04-2.14671E-06-1.70109E-05-3.49141E-04-7.93420E-05-1.56900E-04



 n o d a l   p r i n t   o u t   f o r   t i m e  s t e p    7401                              ( at time 3.6996297E+00 )

 nodal point  x-disp     y-disp      z-disp      x-vel       y-vel       z-vel      x-accl      y-accl      z-accl      x-coor      y-coor      z-coor
    22626 -1.89139E-03 1.34119E-01-2.71564E-01-1.90815E-03 5.95329E-02-1.11733E-01-6.53587E-03 4.74963E-02-1.00182E-02 4.65748E+00-2.80567E+01-4.52533E+01



 n o d a l   p r i n t   o u t   f o r   t i m e  s t e p    7401                              ( at time 3.6996297E+00 )

 nodal point  x-rot      y-rot       z-rot       x-rot vel   y-rot vel   z-rot vel   x-rot acc   y-rot acc   z-rot acc
    22626 -2.03284E-04-9.38823E-07-7.59793E-06-1.36480E-04-1.26679E-05-3.02016E-05-3.16019E-04-1.05223E-04-1.31920E-04



 n o d a l   p r i n t   o u t   f o r   t i m e  s t e p    7601                              ( at time 3.7996197E+00 )

 nodal point  x-disp     y-disp      z-disp      x-vel       y-vel       z-vel      x-accl      y-accl      z-accl      x-coor      y-coor      z-coor
    22626 -2.08734E-03 1.40358E-01-2.82762E-01-2.09282E-03 6.54741E-02-1.11956E-01-1.84687E-03 5.94178E-02-2.22154E-03 4.65729E+00-2.80505E+01-4.52645E+01



 n o d a l   p r i n t   o u t   f o r   t i m e  s t e p    7601                              ( at time 3.7996197E+00 )

 nodal point  x-rot      y-rot       z-rot       x-rot vel   y-rot vel   z-rot vel   x-rot acc   y-rot acc   z-rot acc
    22626 -2.18834E-04-2.48359E-06-1.16576E-05-1.81628E-04-1.98788E-05-5.03909E-05-4.51527E-04-7.21163E-05-2.01913E-04



 n o d a l   p r i n t   o u t   f o r   t i m e  s t e p    7801                              ( at time 3.8996097E+00 )

 nodal point  x-disp     y-disp      z-disp      x-vel       y-vel       z-vel      x-accl      y-accl      z-accl      x-coor      y-coor      z-coor
    22626 -2.30834E-03 1.47193E-01-2.93915E-01-2.32921E-03 7.13990E-02-1.11089E-01-2.36420E-03 5.92549E-02 8.66819E-03 4.65707E+00-2.80436E+01-4.52756E+01



 n o d a l   p r i n t   o u t   f o r   t i m e  s t e p    7801                              ( at time 3.8996097E+00 )

 nodal point  x-rot      y-rot       z-rot       x-rot vel   y-rot vel   z-rot vel   x-rot acc   y-rot acc   z-rot acc
    22626 -2.39143E-04-4.96867E-06-1.75416E-05-2.31991E-04-2.97271E-05-6.86371E-05-5.03680E-04-9.84925E-05-1.82480E-04



 n o d a l   p r i n t   o u t   f o r   t i m e  s t e p    8001                              ( at time 3.9995997E+00 )

 nodal point  x-disp     y-disp      z-disp      x-vel       y-vel       z-vel      x-accl      y-accl      z-accl      x-coor      y-coor      z-coor
    22626 -2.58551E-03 1.54716E-01-3.04946E-01-3.23195E-03 7.92558E-02-1.09296E-01-9.02829E-03 7.85758E-02 1.79291E-02 4.65679E+00-2.80361E+01-4.52867E+01



 n o d a l   p r i n t   o u t   f o r   t i m e  s t e p    8001                              ( at time 3.9995997E+00 )

 nodal point  x-rot      y-rot       z-rot       x-rot vel   y-rot vel   z-rot vel   x-rot acc   y-rot acc   z-rot acc
    22626 -2.65512E-04-8.94475E-06-2.63100E-05-2.97341E-04-4.70014E-05-1.04962E-04-6.53575E-04-1.72760E-04-3.63291E-04



 n o d a l   p r i n t   o u t   f o r   t i m e  s t e p    8201                              ( at time 4.0995897E+00 )

 nodal point  x-disp     y-disp      z-disp      x-vel       y-vel       z-vel      x-accl      y-accl      z-accl      x-coor      y-coor      z-coor
    22626 -2.95922E-03 1.63081E-01-3.15821E-01-4.06495E-03 8.84403E-02-1.08274E-01-8.33084E-03 9.18547E-02 1.02212E-02 4.65642E+00-2.80277E+01-4.52975E+01



 n o d a l   p r i n t   o u t   f o r   t i m e  s t e p    8201                              ( at time 4.0995897E+00 )

 nodal point  x-rot      y-rot       z-rot       x-rot vel   y-rot vel   z-rot vel   x-rot acc   y-rot acc   z-rot acc
    22626 -2.98797E-04-1.39417E-05-3.84351E-05-3.72373E-04-5.36672E-05-1.29372E-04-7.50388E-04-6.66649E-05-2.44118E-04



 n o d a l   p r i n t   o u t   f o r   t i m e  s t e p    8401                              ( at time 4.1995797E+00 )

 nodal point  x-disp     y-disp      z-disp      x-vel       y-vel       z-vel      x-accl      y-accl      z-accl      x-coor      y-coor      z-coor
    22626 -3.35362E-03 1.72386E-01-3.26573E-01-3.82223E-03 9.74742E-02-1.06523E-01 2.42749E-03 9.03479E-02 1.75104E-02 4.65602E+00-2.80184E+01-4.53083E+01



 n o d a l   p r i n t   o u t   f o r   t i m e  s t e p    8401                              ( at time 4.1995797E+00 )

 nodal point  x-rot      y-rot       z-rot       x-rot vel   y-rot vel   z-rot vel   x-rot acc   y-rot acc   z-rot acc
    22626 -3.39096E-04-1.94934E-05-5.16951E-05-4.37267E-04-5.83166E-05-1.35575E-04-6.49008E-04-4.64986E-05-6.20401E-05



 n o d a l   p r i n t   o u t   f o r   t i m e  s t e p    8601                              ( at time 4.2995697E+00 )

 nodal point  x-disp     y-disp      z-disp      x-vel       y-vel       z-vel      x-accl      y-accl      z-accl      x-coor      y-coor      z-coor
    22626 -3.74815E-03 1.82594E-01-3.37066E-01-4.22260E-03 1.06765E-01-1.03420E-01-4.00416E-03 9.29193E-02 3.10356E-02 4.65563E+00-2.80082E+01-4.53188E+01



 n o d a l   p r i n t   o u t   f o r   t i m e  s t e p    8601                              ( at time 4.2995697E+00 )

 nodal point  x-rot      y-rot       z-rot       x-rot vel   y-rot vel   z-rot vel   x-rot acc   y-rot acc   z-rot acc
    22626 -3.85995E-04-2.53591E-05-6.49643E-05-5.13388E-04-5.76613E-05-1.36321E-04-7.61286E-04 6.55383E-06-7.46196E-06



 n o d a l   p r i n t   o u t   f o r   t i m e  s t e p    8801                              ( at time 4.3995597E+00 )

 nodal point  x-disp     y-disp      z-disp      x-vel       y-vel       z-vel      x-accl      y-accl      z-accl      x-coor      y-coor      z-coor
    22626 -4.21295E-03 1.93771E-01-3.47211E-01-4.75850E-03 1.17062E-01-9.95843E-02-5.35951E-03 1.02976E-01 3.83601E-02 4.65516E+00-2.79971E+01-4.53289E+01



 n o d a l   p r i n t   o u t   f o r   t i m e  s t e p    8801                              ( at time 4.3995597E+00 )

 nodal point  x-rot      y-rot       z-rot       x-rot vel   y-rot vel   z-rot vel   x-rot acc   y-rot acc   z-rot acc
    22626 -4.42306E-04-3.18848E-05-7.96752E-05-6.23884E-04-6.74397E-05-1.54213E-04-1.10507E-03-9.77936E-05-1.78935E-04



 n o d a l   p r i n t   o u t   f o r   t i m e  s t e p    9001                              ( at time 4.4995497E+00 )

 nodal point  x-disp     y-disp      z-disp      x-vel       y-vel       z-vel      x-accl      y-accl      z-accl      x-coor      y-coor      z-coor
    22626 -4.69063E-03 2.06054E-01-3.56976E-01-4.72840E-03 1.28966E-01-9.59148E-02 3.00977E-04 1.19053E-01 3.66985E-02 4.65468E+00-2.79848E+01-4.53387E+01



 n o d a l   p r i n t   o u t   f o r   t i m e  s t e p    9001                              ( at time 4.4995497E+00 )

 nodal point  x-rot      y-rot       z-rot       x-rot vel   y-rot vel   z-rot vel   x-rot acc   y-rot acc   z-rot acc
    22626 -5.10123E-04-3.87164E-05-9.56004E-05-7.31288E-04-7.31866E-05-1.58655E-04-1.07415E-03-5.74748E-05-4.44231E-05



 n o d a l   p r i n t   o u t   f o r   t i m e  s t e p    9201                              ( at time 4.5995397E+00 )

 nodal point  x-disp     y-disp      z-disp      x-vel       y-vel       z-vel      x-accl      y-accl      z-accl      x-coor      y-coor      z-coor
    22626 -5.14765E-03 2.19602E-01-3.66467E-01-4.62670E-03 1.41956E-01-9.31416E-02 1.01713E-03 1.29911E-01 2.77347E-02 4.65423E+00-2.79712E+01-4.53482E+01



 n o d a l   p r i n t   o u t   f o r   t i m e  s t e p    9201                              ( at time 4.5995397E+00 )

 nodal point  x-rot      y-rot       z-rot       x-rot vel   y-rot vel   z-rot vel   x-rot acc   y-rot acc   z-rot acc
    22626 -5.88081E-04-4.61125E-05-1.11218E-04-8.25302E-04-8.95432E-05-1.57217E-04-9.40238E-04-1.63582E-04 1.43860E-05



 n o d a l   p r i n t   o u t   f o r   t i m e  s t e p    9401                              ( at time 4.6995297E+00 )

 nodal point  x-disp     y-disp      z-disp      x-vel       y-vel       z-vel      x-accl      y-accl      z-accl      x-coor      y-coor      z-coor
    22626 -5.60594E-03 2.34430E-01-3.75475E-01-4.50900E-03 1.55388E-01-8.63287E-02 1.17718E-03 1.34340E-01 6.81365E-02 4.65377E+00-2.79564E+01-4.53572E+01



 n o d a l   p r i n t   o u t   f o r   t i m e  s t e p    9401                              ( at time 4.6995297E+00 )

 nodal point  x-rot      y-rot       z-rot       x-rot vel   y-rot vel   z-rot vel   x-rot acc   y-rot acc   z-rot acc
    22626 -6.77106E-04-5.46280E-05-1.27202E-04-9.48110E-04-9.19270E-05-1.56207E-04-1.22821E-03-2.38407E-05 1.00941E-05



 n o d a l   p r i n t   o u t   f o r   t i m e  s t e p    9601                              ( at time 4.7995197E+00 )

 nodal point  x-disp     y-disp      z-disp      x-vel       y-vel       z-vel      x-accl      y-accl      z-accl      x-coor      y-coor      z-coor
    22626 -6.03320E-03 2.50757E-01-3.83875E-01-4.57304E-03 1.70847E-01-7.99490E-02-6.40517E-04 1.54599E-01 6.38034E-02 4.65334E+00-2.79401E+01-4.53656E+01



 n o d a l   p r i n t   o u t   f o r   t i m e  s t e p    9601                              ( at time 4.7995197E+00 )

 nodal point  x-rot      y-rot       z-rot       x-rot vel   y-rot vel   z-rot vel   x-rot acc   y-rot acc   z-rot acc
    22626 -7.80459E-04-6.35122E-05-1.42327E-04-1.09308E-03-8.90940E-05-1.39244E-04-1.44985E-03 2.83332E-05 1.69646E-04



 n o d a l   p r i n t   o u t   f o r   t i m e  s t e p    9801                              ( at time 4.8995097E+00 )

 nodal point  x-disp     y-disp      z-disp      x-vel       y-vel       z-vel      x-accl      y-accl      z-accl      x-coor      y-coor      z-coor
    22626 -6.40147E-03 2.68616E-01-3.91602E-01-3.77805E-03 1.86902E-01-7.36622E-02 7.95074E-03 1.60567E-01 6.28746E-02 4.65297E+00-2.79222E+01-4.53733E+01



 n o d a l   p r i n t   o u t   f o r   t i m e  s t e p    9801                              ( at time 4.8995097E+00 )

 nodal point  x-rot      y-rot       z-rot       x-rot vel   y-rot vel   z-rot vel   x-rot acc   y-rot acc   z-rot acc
    22626 -8.98992E-04-7.16768E-05-1.56595E-04-1.25978E-03-7.29994E-05-1.40116E-04-1.66714E-03 1.60962E-04-8.71253E-06



 n o d a l   p r i n t   o u t   f o r   t i m e  s t e p   10001                              ( at time 4.9994997E+00 )

 nodal point  x-disp     y-disp      z-disp      x-vel       y-vel       z-vel      x-accl      y-accl      z-accl      x-coor      y-coor      z-coor
    22626 -6.77012E-03 2.88131E-01-3.98759E-01-4.14129E-03 2.03446E-01-6.80115E-02-3.63273E-03 1.65455E-01 5.65118E-02 4.65261E+00-2.79027E+01-4.53805E+01



 n o d a l   p r i n t   o u t   f o r   t i m e  s t e p   10001                              ( at time 4.9994997E+00 )

 nodal point  x-rot      y-rot       z-rot       x-rot vel   y-rot vel   z-rot vel   x-rot acc   y-rot acc   z-rot acc
    22626 -1.03481E-03-8.00154E-05-1.69977E-04-1.44070E-03-8.68346E-05-1.25132E-04-1.80943E-03-1.38366E-04 1.49854E-04



 n o d a l   p r i n t   o u t   f o r   t i m e  s t e p   10202                              ( at time 5.0999896E+00 )

 nodal point  x-disp     y-disp      z-disp      x-vel       y-vel       z-vel      x-accl      y-accl      z-accl      x-coor      y-coor      z-coor
    22626 -7.17077E-03 3.09379E-01-4.05171E-01-4.17096E-03 2.20825E-01-5.97199E-02-2.95339E-04 1.72951E-01 8.25121E-02 4.65220E+00-2.78815E+01-4.53869E+01



 n o d a l   p r i n t   o u t   f o r   t i m e  s t e p   10202                              ( at time 5.0999896E+00 )

 nodal point  x-rot      y-rot       z-rot       x-rot vel   y-rot vel   z-rot vel   x-rot acc   y-rot acc   z-rot acc
    22626 -1.18838E-03-8.91873E-05-1.82252E-04-1.62777E-03-8.20207E-05-1.13449E-04-1.86158E-03 4.79050E-05 1.16252E-04



 n o d a l   p r i n t   o u t   f o r   t i m e  s t e p   10402                              ( at time 5.1999796E+00 )

 nodal point  x-disp     y-disp      z-disp      x-vel       y-vel       z-vel      x-accl      y-accl      z-accl      x-coor      y-coor      z-coor
    22626 -7.56848E-03 3.32264E-01-4.10744E-01-3.08000E-03 2.37507E-01-5.05755E-02 1.09107E-02 1.66827E-01 9.14524E-02 4.65181E+00-2.78586E+01-4.53925E+01



 n o d a l   p r i n t   o u t   f o r   t i m e  s t e p   10402                              ( at time 5.1999796E+00 )

 nodal point  x-rot      y-rot       z-rot       x-rot vel   y-rot vel   z-rot vel   x-rot acc   y-rot acc   z-rot acc
    22626 -1.36125E-03-9.71591E-05-1.94207E-04-1.84710E-03-8.09893E-05-1.12921E-04-2.19348E-03 1.03148E-05 5.28169E-06



 n o d a l   p r i n t   o u t   f o r   t i m e  s t e p   10602                              ( at time 5.2999696E+00 )

 nodal point  x-disp     y-disp      z-disp      x-vel       y-vel       z-vel      x-accl      y-accl      z-accl      x-coor      y-coor      z-coor
    22626 -7.93641E-03 3.56852E-01-4.15281E-01-2.92990E-03 2.54185E-01-3.96246E-02 1.50115E-03 1.66804E-01 1.09520E-01 4.65144E+00-2.78340E+01-4.53970E+01



 n o d a l   p r i n t   o u t   f o r   t i m e  s t e p   10602                              ( at time 5.2999696E+00 )

 nodal point  x-rot      y-rot       z-rot       x-rot vel   y-rot vel   z-rot vel   x-rot acc   y-rot acc   z-rot acc
    22626 -1.55574E-03-1.05234E-04-2.05468E-04-2.04313E-03-9.21857E-05-1.25151E-04-1.96046E-03-1.11976E-04-1.22305E-04



 n o d a l   p r i n t   o u t   f o r   t i m e  s t e p   10802                              ( at time 5.3999596E+00 )

 nodal point  x-disp     y-disp      z-disp      x-vel       y-vel       z-vel      x-accl      y-accl      z-accl      x-coor      y-coor      z-coor
    22626 -8.49613E-03 3.83116E-01-4.18904E-01-6.36853E-03 2.72332E-01-3.18039E-02-3.43898E-02 1.81488E-01 7.82153E-02 4.65088E+00-2.78077E+01-4.54006E+01



 n o d a l   p r i n t   o u t   f o r   t i m e  s t e p   10802                              ( at time 5.3999596E+00 )

 nodal point  x-rot      y-rot       z-rot       x-rot vel   y-rot vel   z-rot vel   x-rot acc   y-rot acc   z-rot acc
    22626 -1.76862E-03-1.14833E-04-2.19134E-04-2.24492E-03-1.07417E-04-1.51684E-04-2.01818E-03-1.52330E-04-2.65363E-04



 n o d a l   p r i n t   o u t   f o r   t i m e  s t e p   11002                              ( at time 5.4999496E+00 )

 nodal point  x-disp     y-disp      z-disp      x-vel       y-vel       z-vel      x-accl      y-accl      z-accl      x-coor      y-coor      z-coor
    22626 -9.12512E-03 4.11227E-01-4.21551E-01-6.20935E-03 2.89039E-01-2.04730E-02 1.59200E-03 1.67080E-01 1.13320E-01 4.65025E+00-2.77796E+01-4.54033E+01



 n o d a l   p r i n t   o u t   f o r   t i m e  s t e p   11002                              ( at time 5.4999496E+00 )

 nodal point  x-rot      y-rot       z-rot       x-rot vel   y-rot vel   z-rot vel   x-rot acc   y-rot acc   z-rot acc
    22626 -2.00532E-03-1.25053E-04-2.35635E-04-2.53105E-03-8.28459E-05-1.62590E-04-2.86158E-03 2.45737E-04-1.09065E-04



 n o d a l   p r i n t   o u t   f o r   t i m e  s t e p   11202                              ( at time 5.5999396E+00 )

 nodal point  x-disp     y-disp      z-disp      x-vel       y-vel       z-vel      x-accl      y-accl      z-accl      x-coor      y-coor      z-coor
    22626 -9.69661E-03 4.41153E-01-4.22928E-01-7.14745E-03 3.09853E-01-9.69658E-03-9.38200E-03 2.08164E-01 1.07775E-01 4.64968E+00-2.77497E+01-4.54046E+01



 n o d a l   p r i n t   o u t   f o r   t i m e  s t e p   11202                              ( at time 5.5999396E+00 )

 nodal point  x-rot      y-rot       z-rot       x-rot vel   y-rot vel   z-rot vel   x-rot acc   y-rot acc   z-rot acc
    22626 -2.26853E-03-1.33860E-04-2.51166E-04-2.82145E-03-8.60330E-05-1.62788E-04-2.90424E-03-3.18740E-05-1.97970E-06



 n o d a l   p r i n t   o u t   f o r   t i m e  s t e p   11402                              ( at time 5.6999296E+00 )

 nodal point  x-disp     y-disp      z-disp      x-vel       y-vel       z-vel      x-accl      y-accl      z-accl      x-coor      y-coor      z-coor
    22626 -1.04454E-02 4.73077E-01-4.22986E-01-9.17630E-03 3.28174E-01 4.47296E-03-2.02905E-02 1.83225E-01 1.41709E-01 4.64893E+00-2.77178E+01-4.54047E+01



 n o d a l   p r i n t   o u t   f o r   t i m e  s t e p   11402                              ( at time 5.6999296E+00 )

 nodal point  x-rot      y-rot       z-rot       x-rot vel   y-rot vel   z-rot vel   x-rot acc   y-rot acc   z-rot acc
    22626 -2.55530E-03-1.46238E-04-2.70730E-04-3.04210E-03-1.28010E-04-2.26680E-04-2.20670E-03-4.19813E-04-6.38984E-04



 n o d a l   p r i n t   o u t   f o r   t i m e  s t e p   11602                              ( at time 5.7999195E+00 )

 nodal point  x-disp     y-disp      z-disp      x-vel       y-vel       z-vel      x-accl      y-accl      z-accl      x-coor      y-coor      z-coor
    22626 -1.13780E-02 5.06818E-01-4.21863E-01-8.72537E-03 3.48397E-01 1.60109E-02 4.50980E-03 2.02255E-01 1.15392E-01 4.64800E+00-2.76840E+01-4.54036E+01



 n o d a l   p r i n t   o u t   f o r   t i m e  s t e p   11602                              ( at time 5.7999195E+00 )

 nodal point  x-rot      y-rot       z-rot       x-rot vel   y-rot vel   z-rot vel   x-rot acc   y-rot acc   z-rot acc
    22626 -2.86718E-03-1.59132E-04-2.94251E-04-3.29386E-03-1.22578E-04-2.34467E-04-2.51786E-03 5.43300E-05-7.78776E-05



 n o d a l   p r i n t   o u t   f o r   t i m e  s t e p   11802                              ( at time 5.8999095E+00 )

 nodal point  x-disp     y-disp      z-disp      x-vel       y-vel       z-vel      x-accl      y-accl      z-accl      x-coor      y-coor      z-coor
    22626 -1.21931E-02 5.42549E-01-4.19356E-01-5.65646E-03 3.65862E-01 3.34663E-02 3.06922E-02 1.74671E-01 1.74571E-01 4.64718E+00-2.76483E+01-4.54011E+01



 n o d a l   p r i n t   o u t   f o r   t i m e  s t e p   11802                              ( at time 5.8999095E+00 )

 nodal point  x-rot      y-rot       z-rot       x-rot vel   y-rot vel   z-rot vel   x-rot acc   y-rot acc   z-rot acc
    22626 -3.20776E-03-1.71470E-04-3.17171E-04-3.58085E-03-1.34065E-04-2.29795E-04-2.87023E-03-1.14887E-04 4.67216E-05



 n o d a l   p r i n t   o u t   f o r   t i m e  s t e p   12002                              ( at time 5.9998995E+00 )

 nodal point  x-disp     y-disp      z-disp      x-vel       y-vel       z-vel      x-accl      y-accl      z-accl      x-coor      y-coor      z-coor
    22626 -1.29709E-02 5.80380E-01-4.15330E-01-6.71987E-03 3.88943E-01 4.65417E-02-1.06352E-02 2.30834E-01 1.30767E-01 4.64640E+00-2.76105E+01-4.53970E+01



 n o d a l   p r i n t   o u t   f o r   t i m e  s t e p   12002                              ( at time 5.9998995E+00 )

 nodal point  x-rot      y-rot       z-rot       x-rot vel   y-rot vel   z-rot vel   x-rot acc   y-rot acc   z-rot acc
    22626 -3.57910E-03-1.83625E-04-3.40608E-04-3.84459E-03-1.31086E-04-2.30118E-04-2.63767E-03 2.97935E-05-3.23042E-06



 n o d a l   p r i n t   o u t   f o r   t i m e  s t e p   12202                              ( at time 6.0998895E+00 )

 nodal point  x-disp     y-disp      z-disp      x-vel       y-vel       z-vel      x-accl      y-accl      z-accl      x-coor      y-coor      z-coor
    22626 -1.38389E-02 6.20242E-01-4.09934E-01-9.17038E-03 4.07918E-01 6.18773E-02-2.45074E-02 1.89768E-01 1.53371E-01 4.64554E+00-2.75706E+01-4.53917E+01



 n o d a l   p r i n t   o u t   f o r   t i m e  s t e p   12202                              ( at time 6.0998895E+00 )

 nodal point  x-rot      y-rot       z-rot       x-rot vel   y-rot vel   z-rot vel   x-rot acc   y-rot acc   z-rot acc
    22626 -3.97771E-03-1.96220E-04-3.66477E-04-4.13314E-03-1.23975E-04-2.99935E-04-2.88579E-03 7.11200E-05-6.98238E-04



 n o d a l   p r i n t   o u t   f o r   t i m e  s t e p   12402                              ( at time 6.1998795E+00 )

 nodal point  x-disp     y-disp      z-disp      x-vel       y-vel       z-vel      x-accl      y-accl      z-accl      x-coor      y-coor      z-coor
    22626 -1.47536E-02 6.62081E-01-4.03039E-01-9.29163E-03 4.26672E-01 7.61497E-02-1.21264E-03 1.87552E-01 1.42738E-01 4.64462E+00-2.75287E+01-4.53848E+01



 n o d a l   p r i n t   o u t   f o r   t i m e  s t e p   12402                              ( at time 6.1998795E+00 )

 nodal point  x-rot      y-rot       z-rot       x-rot vel   y-rot vel   z-rot vel   x-rot acc   y-rot acc   z-rot acc
    22626 -4.40504E-03-2.07564E-04-3.92415E-04-4.40784E-03-9.81721E-05-2.54879E-04-2.74725E-03 2.58055E-04 4.50605E-04



 n o d a l   p r i n t   o u t   f o r   t i m e  s t e p   12602                              ( at time 6.2998695E+00 )

 nodal point  x-disp     y-disp      z-disp      x-vel       y-vel       z-vel      x-accl      y-accl      z-accl      x-coor      y-coor      z-coor
    22626 -1.55262E-02 7.05725E-01-3.94854E-01-7.72177E-03 4.47123E-01 8.38164E-02 1.57002E-02 2.04533E-01 7.66744E-02 4.64385E+00-2.74851E+01-4.53766E+01



 n o d a l   p r i n t   o u t   f o r   t i m e  s t e p   12602                              ( at time 6.2998695E+00 )

 nodal point  x-rot      y-rot       z-rot       x-rot vel   y-rot vel   z-rot vel   x-rot acc   y-rot acc   z-rot acc
    22626 -4.85716E-03-2.17010E-04-4.14304E-04-4.67455E-03-1.02793E-04-1.99256E-04-2.66736E-03-4.62086E-05 5.56291E-04



 n o d a l   p r i n t   o u t   f o r   t i m e  s t e p   12802                              ( at time 6.3998595E+00 )

 nodal point  x-disp     y-disp      z-disp      x-vel       y-vel       z-vel      x-accl      y-accl      z-accl      x-coor      y-coor      z-coor
    22626 -1.61149E-02 7.51584E-01-3.85749E-01-7.83385E-03 4.65227E-01 9.67497E-02-1.12096E-03 1.81054E-01 1.29346E-01 4.64326E+00-2.74392E+01-4.53675E+01



 n o d a l   p r i n t   o u t   f o r   t i m e  s t e p   12802                              ( at time 6.3998595E+00 )

 nodal point  x-rot      y-rot       z-rot       x-rot vel   y-rot vel   z-rot vel   x-rot acc   y-rot acc   z-rot acc
    22626 -5.33546E-03-2.25960E-04-4.35904E-04-4.97021E-03-9.58587E-05-2.24278E-04-2.95696E-03 6.93456E-05-2.50250E-04



 n o d a l   p r i n t   o u t   f o r   t i m e  s t e p   13002                              ( at time 6.4998495E+00 )

 nodal point  x-disp     y-disp      z-disp      x-vel       y-vel       z-vel      x-accl      y-accl      z-accl      x-coor      y-coor      z-coor
    22626 -1.69699E-02 7.99104E-01-3.75119E-01-6.13671E-03 4.85245E-01 1.10669E-01 1.69731E-02 2.00200E-01 1.39203E-01 4.64241E+00-2.73917E+01-4.53568E+01



 n o d a l   p r i n t   o u t   f o r   t i m e  s t e p   13002                              ( at time 6.4998495E+00 )

 nodal point  x-rot      y-rot       z-rot       x-rot vel   y-rot vel   z-rot vel   x-rot acc   y-rot acc   z-rot acc
    22626 -5.84088E-03-2.34279E-04-4.56340E-04-5.22032E-03-7.00017E-05-1.96223E-04-2.50135E-03 2.58596E-04 2.80575E-04



 n o d a l   p r i n t   o u t   f o r   t i m e  s t e p   13202                              ( at time 6.5998395E+00 )

 nodal point  x-disp     y-disp      z-disp      x-vel       y-vel       z-vel      x-accl      y-accl      z-accl      x-coor      y-coor      z-coor
    22626 -1.75512E-02 8.48487E-01-3.63334E-01-7.33909E-03 5.03281E-01 1.23581E-01-1.20250E-02 1.80376E-01 1.29134E-01 4.64182E+00-2.73423E+01-4.53451E+01



 n o d a l   p r i n t   o u t   f o r   t i m e  s t e p   13202                              ( at time 6.5998395E+00 )

 nodal point  x-rot      y-rot       z-rot       x-rot vel   y-rot vel   z-rot vel   x-rot acc   y-rot acc   z-rot acc
    22626 -6.36932E-03-2.40380E-04-4.76686E-04-5.44011E-03-7.25854E-05-1.05488E-04-2.19807E-03-2.58397E-05 9.07445E-04



 n o d a l   p r i n t   o u t   f o r   t i m e  s t e p   13402                              ( at time 6.6998295E+00 )

 nodal point  x-disp     y-disp      z-disp      x-vel       y-vel       z-vel      x-accl      y-accl      z-accl      x-coor      y-coor      z-coor
    22626 -1.81388E-02 8.99583E-01-3.50533E-01-6.72014E-03 5.20242E-01 1.33152E-01 6.19014E-03 1.69636E-01 9.57207E-02 4.64124E+00-2.72912E+01-4.53323E+01



 n o d a l   p r i n t   o u t   f o r   t i m e  s t e p   13402                              ( at time 6.6998295E+00 )

 nodal point  x-rot      y-rot       z-rot       x-rot vel   y-rot vel   z-rot vel   x-rot acc   y-rot acc   z-rot acc
    22626 -6.91810E-03-2.45337E-04-4.90109E-04-5.59780E-03-3.36473E-05-1.17173E-04-1.57712E-03 3.89420E-04-1.16864E-04



 n o d a l   p r i n t   o u t   f o r   t i m e  s t e p   13602                              ( at time 6.7998195E+00 )

 nodal point  x-disp     y-disp      z-disp      x-vel       y-vel       z-vel      x-accl      y-accl      z-accl      x-coor      y-coor      z-coor
    22626 -1.87717E-02 9.52227E-01-3.36712E-01-3.24348E-03 5.36460E-01 1.43714E-01 3.47701E-02 1.62195E-01 1.05628E-01 4.64060E+00-2.72386E+01-4.53184E+01



 n o d a l   p r i n t   o u t   f o r   t i m e  s t e p   13602                              ( at time 6.7998195E+00 )

 nodal point  x-rot      y-rot       z-rot       x-rot vel   y-rot vel   z-rot vel   x-rot acc   y-rot acc   z-rot acc
    22626 -7.48697E-03-2.50179E-04-5.02038E-04-5.83515E-03-2.95577E-05-1.17653E-04-2.37368E-03 4.09006E-05-4.79883E-06



 n o d a l   p r i n t   o u t   f o r   t i m e  s t e p   13802                              ( at time 6.8998095E+00 )

 nodal point  x-disp     y-disp      z-disp      x-vel       y-vel       z-vel      x-accl      y-accl      z-accl      x-coor      y-coor      z-coor
    22626 -1.94082E-02 1.00698E+00-3.21909E-01-7.68815E-03 5.55701E-01 1.55558E-01-4.44512E-02 1.92432E-01 1.18462E-01 4.63997E+00-2.71839E+01-4.53036E+01



 n o d a l   p r i n t   o u t   f o r   t i m e  s t e p   13802                              ( at time 6.8998095E+00 )

 nodal point  x-rot      y-rot       z-rot       x-rot vel   y-rot vel   z-rot vel   x-rot acc   y-rot acc   z-rot acc
    22626 -8.07907E-03-2.53093E-04-5.08002E-04-5.96724E-03-6.19344E-06-5.94452E-05-1.32106E-03 2.33666E-04 5.82135E-04



 n o d a l   p r i n t   o u t   f o r   t i m e  s t e p   14002                              ( at time 6.9997995E+00 )

 nodal point  x-disp     y-disp      z-disp      x-vel       y-vel       z-vel      x-accl      y-accl      z-accl      x-coor      y-coor      z-coor
    22626 -1.99456E-02 1.06330E+00-3.05794E-01-6.56059E-03 5.75485E-01 1.66533E-01 1.12768E-02 1.97859E-01 1.09754E-01 4.63943E+00-2.71275E+01-4.52875E+01



 n o d a l   p r i n t   o u t   f o r   t i m e  s t e p   14002                              ( at time 6.9997995E+00 )

 nodal point  x-rot      y-rot       z-rot       x-rot vel   y-rot vel   z-rot vel   x-rot acc   y-rot acc   z-rot acc
    22626 -8.68660E-03-2.52768E-04-5.13317E-04-6.17421E-03-1.71988E-06-4.72987E-05-2.06992E-03 4.47401E-05 1.21477E-04



 n o d a l   p r i n t   o u t   f o r   t i m e  s t e p   14202                              ( at time 7.0997895E+00 )

 nodal point  x-disp     y-disp      z-disp      x-vel       y-vel       z-vel      x-accl      y-accl      z-accl      x-coor      y-coor      z-coor
    22626 -2.03613E-02 1.12176E+00-2.88712E-01-7.04523E-03 5.96614E-01 1.75793E-01-4.84688E-03 2.11310E-01 9.26079E-02 4.63901E+00-2.70691E+01-4.52704E+01



 n o d a l   p r i n t   o u t   f o r   t i m e  s t e p   14202                              ( at time 7.0997895E+00 )

 nodal point  x-rot      y-rot       z-rot       x-rot vel   y-rot vel   z-rot vel   x-rot acc   y-rot acc   z-rot acc
    22626 -9.31399E-03-2.54848E-04-5.12966E-04-6.37064E-03-8.84338E-06 4.00675E-05-1.96448E-03-7.12418E-05 8.73747E-04



 n o d a l   p r i n t   o u t   f o r   t i m e  s t e p   14402                              ( at time 7.1997794E+00 )

 nodal point  x-disp     y-disp      z-disp      x-vel       y-vel       z-vel      x-accl      y-accl      z-accl      x-coor      y-coor      z-coor
    22626 -2.11086E-02 1.18243E+00-2.70447E-01-6.81266E-03 6.16737E-01 1.88915E-01 2.32593E-03 2.01242E-01 1.31233E-01 4.63827E+00-2.70084E+01-4.52522E+01



 n o d a l   p r i n t   o u t   f o r   t i m e  s t e p   14402                              ( at time 7.1997794E+00 )

 nodal point  x-rot      y-rot       z-rot       x-rot vel   y-rot vel   z-rot vel   x-rot acc   y-rot acc   z-rot acc
    22626 -9.95999E-03-2.55827E-04-5.12097E-04-6.52121E-03 7.01748E-06-2.62318E-06-1.50586E-03 1.58625E-04-4.26950E-04



 n o d a l   p r i n t   o u t   f o r   t i m e  s t e p   14602                              ( at time 7.2997694E+00 )

 nodal point  x-disp     y-disp      z-disp      x-vel       y-vel       z-vel      x-accl      y-accl      z-accl      x-coor      y-coor      z-coor
    22626 -2.16709E-02 1.24520E+00-2.50713E-01-3.92101E-03 6.38047E-01 2.00863E-01 2.89194E-02 2.13131E-01 1.19490E-01 4.63770E+00-2.69456E+01-4.52324E+01



 n o d a l   p r i n t   o u t   f o r   t i m e  s t e p   14602                              ( at time 7.2997694E+00 )

 nodal point  x-rot      y-rot       z-rot       x-rot vel   y-rot vel   z-rot vel   x-rot acc   y-rot acc   z-rot acc
    22626 -1.06219E-02-2.54929E-04-5.09148E-04-6.76398E-03-4.52061E-06 6.02174E-05-2.42790E-03-1.15393E-04 6.28470E-04



 n o d a l   p r i n t   o u t   f o r   t i m e  s t e p   14802                              ( at time 7.3997594E+00 )

 nodal point  x-disp     y-disp      z-disp      x-vel       y-vel       z-vel      x-accl      y-accl      z-accl      x-coor      y-coor      z-coor
    22626 -2.21583E-02 1.31035E+00-2.29762E-01-3.75359E-03 6.61990E-01 2.15876E-01 1.67438E-03 2.39451E-01 1.50152E-01 4.63722E+00-2.68805E+01-4.52115E+01



 n o d a l   p r i n t   o u t   f o r   t i m e  s t e p   14802                              ( at time 7.3997594E+00 )

 nodal point  x-rot      y-rot       z-rot       x-rot vel   y-rot vel   z-rot vel   x-rot acc   y-rot acc   z-rot acc
    22626 -1.13036E-02-2.53857E-04-5.02904E-04-6.89478E-03-6.45420E-06 1.50023E-05-1.30818E-03-1.93378E-05-4.52197E-04



 n o d a l   p r i n t   o u t   f o r   t i m e  s t e p   15002                              ( at time 7.4997494E+00 )

 nodal point  x-disp     y-disp      z-disp      x-vel       y-vel       z-vel      x-accl      y-accl      z-accl      x-coor      y-coor      z-coor
    22626 -2.27141E-02 1.37784E+00-2.07386E-01-3.06578E-03 6.88558E-01 2.33094E-01 6.87883E-03 2.65709E-01 1.72190E-01 4.63666E+00-2.68130E+01-4.51891E+01



 n o d a l   p r i n t   o u t   f o r   t i m e  s t e p   15002                              ( at time 7.4997494E+00 )

 nodal point  x-rot      y-rot       z-rot       x-rot vel   y-rot vel   z-rot vel   x-rot acc   y-rot acc   z-rot acc
    22626 -1.20008E-02-2.56643E-04-4.97833E-04-7.01330E-03-7.78357E-06 5.73231E-05-1.18527E-03-1.32950E-05 4.23249E-04



 n o d a l   p r i n t   o u t   f o r   t i m e  s t e p   15202                              ( at time 7.5997394E+00 )

 nodal point  x-disp     y-disp      z-disp      x-vel       y-vel       z-vel      x-accl      y-accl      z-accl      x-coor      y-coor      z-coor
    22626 -2.31855E-02 1.44770E+00-1.83663E-01-5.50235E-03 7.12285E-01 2.43605E-01-2.43682E-02 2.37293E-01 1.05128E-01 4.63619E+00-2.67431E+01-4.51654E+01



 n o d a l   p r i n t   o u t   f o r   t i m e  s t e p   15202                              ( at time 7.5997394E+00 )

 nodal point  x-rot      y-rot       z-rot       x-rot vel   y-rot vel   z-rot vel   x-rot acc   y-rot acc   z-rot acc
    22626 -1.27131E-02-2.54098E-04-4.89572E-04-7.16469E-03 3.03549E-05 8.87218E-05-1.51408E-03 3.81423E-04 3.14018E-04



 n o d a l   p r i n t   o u t   f o r   t i m e  s t e p   15402                              ( at time 7.6997294E+00 )

 nodal point  x-disp     y-disp      z-disp      x-vel       y-vel       z-vel      x-accl      y-accl      z-accl      x-coor      y-coor      z-coor
    22626 -2.34274E-02 1.52018E+00-1.59019E-01-2.79949E-03 7.38900E-01 2.55466E-01 2.70313E-02 2.66177E-01 1.18617E-01 4.63595E+00-2.66707E+01-4.51407E+01



 n o d a l   p r i n t   o u t   f o r   t i m e  s t e p   15402                              ( at time 7.6997294E+00 )

 nodal point  x-rot      y-rot       z-rot       x-rot vel   y-rot vel   z-rot vel   x-rot acc   y-rot acc   z-rot acc
    22626 -1.34416E-02-2.53435E-04-4.84196E-04-7.30114E-03 9.54407E-06 6.07003E-05-1.36465E-03-2.08129E-04-2.80243E-04



 n o d a l   p r i n t   o u t   f o r   t i m e  s t e p   15602                              ( at time 7.7997194E+00 )

 nodal point  x-disp     y-disp      z-disp      x-vel       y-vel       z-vel      x-accl      y-accl      z-accl      x-coor      y-coor      z-coor
    22626 -2.40141E-02 1.59514E+00-1.32937E-01-7.11449E-03 7.61167E-01 2.67549E-01-4.31543E-02 2.22685E-01 1.20850E-01 4.63536E+00-2.65957E+01-4.51147E+01



 n o d a l   p r i n t   o u t   f o r   t i m e  s t e p   15602                              ( at time 7.7997194E+00 )

 nodal point  x-rot      y-rot       z-rot       x-rot vel   y-rot vel   z-rot vel   x-rot acc   y-rot acc   z-rot acc
    22626 -1.41801E-02-2.49478E-04-4.73336E-04-7.44025E-03 2.63154E-05 9.78344E-05-1.39124E-03 1.67730E-04 3.71378E-04



 n o d a l   p r i n t   o u t   f o r   t i m e  s t e p   15802                              ( at time 7.8997094E+00 )

 nodal point  x-disp     y-disp      z-disp      x-vel       y-vel       z-vel      x-accl      y-accl      z-accl      x-coor      y-coor      z-coor
    22626 -2.42262E-02 1.67270E+00-1.05952E-01-4.02680E-03 7.87939E-01 2.72285E-01 3.08801E-02 2.67747E-01 4.73568E-02 4.63515E+00-2.65181E+01-4.50877E+01



 n o d a l   p r i n t   o u t   f o r   t i m e  s t e p   15802                              ( at time 7.8997094E+00 )

 nodal point  x-rot      y-rot       z-rot       x-rot vel   y-rot vel   z-rot vel   x-rot acc   y-rot acc   z-rot acc
    22626 -1.49320E-02-2.46768E-04-4.65138E-04-7.52027E-03 3.90000E-05 9.11491E-05-8.00255E-04 1.26858E-04-6.68596E-05



 n o d a l   p r i n t   o u t   f o r   t i m e  s t e p   16002                              ( at time 7.9996994E+00 )

 nodal point  x-disp     y-disp      z-disp      x-vel       y-vel       z-vel      x-accl      y-accl      z-accl      x-coor      y-coor      z-coor
    22626 -2.45757E-02 1.75270E+00-7.81747E-02-3.65360E-03 8.09404E-01 2.83023E-01 3.73236E-03 2.14670E-01 1.07392E-01 4.63480E+00-2.64381E+01-4.50599E+01



 n o d a l   p r i n t   o u t   f o r   t i m e  s t e p   16002                              ( at time 7.9996994E+00 )

 nodal point  x-rot      y-rot       z-rot       x-rot vel   y-rot vel   z-rot vel   x-rot acc   y-rot acc   z-rot acc
    22626 -1.56885E-02-2.39938E-04-4.50893E-04-7.56887E-03 7.51651E-05 1.20013E-04-4.86062E-04 3.61686E-04 2.88666E-04



 n o d a l   p r i n t   o u t   f o r   t i m e  s t e p   16202                              ( at time 8.0996894E+00 )

 nodal point  x-disp     y-disp      z-disp      x-vel       y-vel       z-vel      x-accl      y-accl      z-accl      x-coor      y-coor      z-coor
    22626 -2.48603E-02 1.83509E+00-4.94407E-02-7.36476E-04 8.33205E-01 2.89138E-01 2.91742E-02 2.38036E-01 6.11585E-02 4.63451E+00-2.63557E+01-4.50312E+01



 n o d a l   p r i n t   o u t   f o r   t i m e  s t e p   16202                              ( at time 8.0996894E+00 )

 nodal point  x-rot      y-rot       z-rot       x-rot vel   y-rot vel   z-rot vel   x-rot acc   y-rot acc   z-rot acc
    22626 -1.64520E-02-2.34487E-04-4.39615E-04-7.63013E-03 3.53707E-05 6.70397E-05-6.12611E-04-3.97984E-04-5.29786E-04



 n o d a l   p r i n t   o u t   f o r   t i m e  s t e p   16402                              ( at time 8.1996794E+00 )

 nodal point  x-disp     y-disp      z-disp      x-vel       y-vel       z-vel      x-accl      y-accl      z-accl      x-coor      y-coor      z-coor
    22626 -2.50649E-02 1.91983E+00-2.00818E-02-4.27773E-03 8.60435E-01 2.97613E-01-3.54161E-02 2.72325E-01 8.47539E-02 4.63431E+00-2.62710E+01-4.50018E+01



 n o d a l   p r i n t   o u t   f o r   t i m e  s t e p   16402                              ( at time 8.1996794E+00 )

 nodal point  x-rot      y-rot       z-rot       x-rot vel   y-rot vel   z-rot vel   x-rot acc   y-rot acc   z-rot acc
    22626 -1.72190E-02-2.27484E-04-4.26776E-04-7.68924E-03 4.50459E-05 1.88094E-04-5.91249E-04 9.67612E-05 1.21067E-03



 n o d a l   p r i n t   o u t   f o r   t i m e  s t e p   16602                              ( at time 8.2996694E+00 )

 nodal point  x-disp     y-disp      z-disp      x-vel       y-vel       z-vel      x-accl      y-accl      z-accl      x-coor      y-coor      z-coor
    22626 -2.53951E-02 2.00688E+00 1.02708E-02-2.35180E-03 8.79187E-01 3.06269E-01 1.92612E-02 1.87539E-01 8.65750E-02 4.63398E+00-2.61839E+01-4.49715E+01



 n o d a l   p r i n t   o u t   f o r   t i m e  s t e p   16602                              ( at time 8.2996694E+00 )

 nodal point  x-rot      y-rot       z-rot       x-rot vel   y-rot vel   z-rot vel   x-rot acc   y-rot acc   z-rot acc
    22626 -1.79863E-02-2.20136E-04-4.09707E-04-7.66923E-03 1.08023E-04 1.32335E-04 2.00189E-04 6.29837E-04-5.57648E-04



 n o d a l   p r i n t   o u t   f o r   t i m e  s t e p   16802                              ( at time 8.3996594E+00 )

 nodal point  x-disp     y-disp      z-disp      x-vel       y-vel       z-vel      x-accl      y-accl      z-accl      x-coor      y-coor      z-coor
    22626 -2.57041E-02 2.09609E+00 4.12871E-02-1.58598E-03 9.05532E-01 3.14425E-01 7.65903E-03 2.63480E-01 8.15706E-02 4.63367E+00-2.60947E+01-4.49404E+01



 n o d a l   p r i n t   o u t   f o r   t i m e  s t e p   16802                              ( at time 8.3996594E+00 )

 nodal point  x-rot      y-rot       z-rot       x-rot vel   y-rot vel   z-rot vel   x-rot acc   y-rot acc   z-rot acc
    22626 -1.87544E-02-2.09262E-04-3.96142E-04-7.69564E-03 1.61952E-04 1.91272E-04-2.64182E-04 5.39343E-04 5.89433E-04



 n o d a l   p r i n t   o u t   f o r   t i m e  s t e p   17002                              ( at time 8.4996494E+00 )

 nodal point  x-disp     y-disp      z-disp      x-vel       y-vel       z-vel      x-accl      y-accl      z-accl      x-coor      y-coor      z-coor
    22626 -2.61131E-02 2.18757E+00 7.32679E-02-3.78667E-03 9.25509E-01 3.23913E-01-2.20092E-02 1.99795E-01 9.48880E-02 4.63326E+00-2.60033E+01-4.49085E+01



 n o d a l   p r i n t   o u t   f o r   t i m e  s t e p   17002                              ( at time 8.4996494E+00 )

 nodal point  x-rot      y-rot       z-rot       x-rot vel   y-rot vel   z-rot vel   x-rot acc   y-rot acc   z-rot acc
    22626 -1.95230E-02-1.99160E-04-3.78110E-04-7.67364E-03 1.16055E-04 1.84979E-04 2.20075E-04-4.59017E-04-6.29367E-05



 n o d a l   p r i n t   o u t   f o r   t i m e  s t e p   17202                              ( at time 8.5996394E+00 )

 nodal point  x-disp     y-disp      z-disp      x-vel       y-vel       z-vel      x-accl      y-accl      z-accl      x-coor      y-coor      z-coor
    22626 -2.64680E-02 2.28119E+00 1.05846E-01-5.25851E-03 9.46548E-01 3.32643E-01-1.47199E-02 2.10410E-01 8.73028E-02 4.63291E+00-2.59096E+01-4.48759E+01



 n o d a l   p r i n t   o u t   f o r   t i m e  s t e p   17202                              ( at time 8.5996394E+00 )

 nodal point  x-rot      y-rot       z-rot       x-rot vel   y-rot vel   z-rot vel   x-rot acc   y-rot acc   z-rot acc
    22626 -2.02909E-02-1.88350E-04-3.61697E-04-7.63493E-03 1.02279E-04 1.89815E-04 3.87078E-04-1.37776E-04 4.83653E-05



 n o d a l   p r i n t   o u t   f o r   t i m e  s t e p   17402                              ( at time 8.6996293E+00 )

 nodal point  x-disp     y-disp      z-disp      x-vel       y-vel       z-vel      x-accl      y-accl      z-accl      x-coor      y-coor      z-coor
    22626 -2.69058E-02 2.37695E+00 1.39671E-01-2.37774E-03 9.66770E-01 3.45344E-01 2.88103E-02 2.02242E-01 1.27023E-01 4.63247E+00-2.58139E+01-4.48420E+01



 n o d a l   p r i n t   o u t   f o r   t i m e  s t e p   17402                              ( at time 8.6996293E+00 )

 nodal point  x-rot      y-rot       z-rot       x-rot vel   y-rot vel   z-rot vel   x-rot acc   y-rot acc   z-rot acc
    22626 -2.10595E-02-1.75739E-04-3.39577E-04-7.68405E-03 1.15258E-04 1.97815E-04-4.91220E-04 1.29807E-04 8.00052E-05



 n o d a l   p r i n t   o u t   f o r   t i m e  s t e p   17602                              ( at time 8.7996193E+00 )

 nodal point  x-disp     y-disp      z-disp      x-vel       y-vel       z-vel      x-accl      y-accl      z-accl      x-coor      y-coor      z-coor
    22626 -2.73327E-02 2.47483E+00 1.74554E-01-5.49230E-03 9.87435E-01 3.54228E-01-3.11487E-02 2.06670E-01 8.88470E-02 4.63204E+00-2.57160E+01-4.48072E+01



 n o d a l   p r i n t   o u t   f o r   t i m e  s t e p   17602                              ( at time 8.7996193E+00 )

 nodal point  x-rot      y-rot       z-rot       x-rot vel   y-rot vel   z-rot vel   x-rot acc   y-rot acc   z-rot acc
    22626 -2.18301E-02-1.62537E-04-3.20409E-04-7.67315E-03 1.26255E-04 1.79020E-04 1.09022E-04 1.09981E-04-1.87965E-04



 n o d a l   p r i n t   o u t   f o r   t i m e  s t e p   17802                              ( at time 8.8996093E+00 )

 nodal point  x-disp     y-disp      z-disp      x-vel       y-vel       z-vel      x-accl      y-accl      z-accl      x-coor      y-coor      z-coor
    22626 -2.76074E-02 2.57480E+00 2.10601E-01-3.61051E-03 1.00969E+00 3.66785E-01 1.88198E-02 2.22570E-01 1.25588E-01 4.63177E+00-2.56160E+01-4.47711E+01



 n o d a l   p r i n t   o u t   f o r   t i m e  s t e p   17802                              ( at time 8.8996093E+00 )

 nodal point  x-rot      y-rot       z-rot       x-rot vel   y-rot vel   z-rot vel   x-rot acc   y-rot acc   z-rot acc
    22626 -2.26005E-02-1.46459E-04-2.98758E-04-7.69451E-03 1.25429E-04 2.34919E-04-2.13630E-04-8.26050E-06 5.59041E-04



 n o d a l   p r i n t   o u t   f o r   t i m e  s t e p   18002                              ( at time 8.9995993E+00 )

 nodal point  x-disp     y-disp      z-disp      x-vel       y-vel       z-vel      x-accl      y-accl      z-accl      x-coor      y-coor      z-coor
    22626 -2.79790E-02 2.67706E+00 2.48052E-01-4.47504E-03 1.02988E+00 3.80333E-01-8.64621E-03 2.01907E-01 1.35496E-01 4.63140E+00-2.55138E+01-4.47337E+01



 n o d a l   p r i n t   o u t   f o r   t i m e  s t e p   18002                              ( at time 8.9995993E+00 )

 nodal point  x-rot      y-rot       z-rot       x-rot vel   y-rot vel   z-rot vel   x-rot acc   y-rot acc   z-rot acc
    22626 -2.33746E-02-1.32440E-04-2.74848E-04-7.76289E-03 1.72885E-04 2.02408E-04-6.83865E-04 4.74601E-04-3.25139E-04



 n o d a l   p r i n t   o u t   f o r   t i m e  s t e p   18202                              ( at time 9.0995893E+00 )

 nodal point  x-disp     y-disp      z-disp      x-vel       y-vel       z-vel      x-accl      y-accl      z-accl      x-coor      y-coor      z-coor
    22626 -2.83953E-02 2.78122E+00 2.86963E-01-4.13540E-03 1.05041E+00 3.95585E-01 3.39680E-03 2.05347E-01 1.52535E-01 4.63098E+00-2.54096E+01-4.46948E+01



 n o d a l   p r i n t   o u t   f o r   t i m e  s t e p   18202                              ( at time 9.0995893E+00 )

 nodal point  x-rot      y-rot       z-rot       x-rot vel   y-rot vel   z-rot vel   x-rot acc   y-rot acc   z-rot acc
    22626 -2.41538E-02-1.13718E-04-2.51768E-04-7.84313E-03 1.67198E-04 1.87050E-04-8.02518E-04-5.68730E-05-1.53595E-04



 n o d a l   p r i n t   o u t   f o r   t i m e  s t e p   18402                              ( at time 9.1995793E+00 )

 nodal point  x-disp     y-disp      z-disp      x-vel       y-vel       z-vel      x-accl      y-accl      z-accl      x-coor      y-coor      z-coor
    22626 -2.87528E-02 2.88728E+00 3.27750E-01-3.99257E-03 1.06975E+00 4.17562E-01 1.42843E-03 1.93359E-01 2.19793E-01 4.63062E+00-2.53036E+01-4.46540E+01



 n o d a l   p r i n t   o u t   f o r   t i m e  s t e p   18402                              ( at time 9.1995793E+00 )

 nodal point  x-rot      y-rot       z-rot       x-rot vel   y-rot vel   z-rot vel   x-rot acc   y-rot acc   z-rot acc
    22626 -2.49384E-02-9.81161E-05-2.30103E-04-7.88973E-03 1.94993E-04 2.25606E-04-4.66025E-04 2.77984E-04 3.85600E-04



 n o d a l   p r i n t   o u t   f o r   t i m e  s t e p   18602                              ( at time 9.2995693E+00 )

 nodal point  x-disp     y-disp      z-disp      x-vel       y-vel       z-vel      x-accl      y-accl      z-accl      x-coor      y-coor      z-coor
    22626 -2.91349E-02 2.99531E+00 3.70139E-01-3.58214E-03 1.09458E+00 4.31993E-01 4.10474E-03 2.48392E-01 1.44317E-01 4.63024E+00-2.51955E+01-4.46116E+01



 n o d a l   p r i n t   o u t   f o r   t i m e  s t e p   18602                              ( at time 9.2995693E+00 )

 nodal point  x-rot      y-rot       z-rot       x-rot vel   y-rot vel   z-rot vel   x-rot acc   y-rot acc   z-rot acc
    22626 -2.57328E-02-8.12550E-05-2.10114E-04-8.04146E-03 1.55052E-04 1.99092E-04-1.51741E-03-3.99456E-04-2.65167E-04



 n o d a l   p r i n t   o u t   f o r   t i m e  s t e p   18802                              ( at time 9.3995593E+00 )

 nodal point  x-disp     y-disp      z-disp      x-vel       y-vel       z-vel      x-accl      y-accl      z-accl      x-coor      y-coor      z-coor
    22626 -2.95574E-02 3.10537E+00 4.14510E-01-2.27969E-03 1.11099E+00 4.57219E-01 1.30258E-02 1.64072E-01 2.52288E-01 4.62982E+00-2.50855E+01-4.45672E+01



 n o d a l   p r i n t   o u t   f o r   t i m e  s t e p   18802                              ( at time 9.3995593E+00 )

 nodal point  x-rot      y-rot       z-rot       x-rot vel   y-rot vel   z-rot vel   x-rot acc   y-rot acc   z-rot acc
    22626 -2.65394E-02-6.78892E-05-1.90011E-04-8.11229E-03 2.00898E-04 2.46208E-04-7.08417E-04 4.58506E-04 4.71207E-04



 n o d a l   p r i n t   o u t   f o r   t i m e  s t e p   19002                              ( at time 9.4995493E+00 )

 nodal point  x-disp     y-disp      z-disp      x-vel       y-vel       z-vel      x-accl      y-accl      z-accl      x-coor      y-coor      z-coor
    22626 -2.97209E-02 3.21747E+00 4.60986E-01-5.00333E-04 1.13087E+00 4.72713E-01 1.77954E-02 1.98811E-01 1.54960E-01 4.62965E+00-2.49734E+01-4.45207E+01



 n o d a l   p r i n t   o u t   f o r   t i m e  s t e p   19002                              ( at time 9.4995493E+00 )

 nodal point  x-rot      y-rot       z-rot       x-rot vel   y-rot vel   z-rot vel   x-rot acc   y-rot acc   z-rot acc
    22626 -2.73545E-02-4.77366E-05-1.67552E-04-8.21559E-03 1.79531E-04 1.93849E-04-1.03304E-03-2.13694E-04-5.23644E-04



 n o d a l   p r i n t   o u t   f o r   t i m e  s t e p   19202                              ( at time 9.5995393E+00 )

 nodal point  x-disp     y-disp      z-disp      x-vel       y-vel       z-vel      x-accl      y-accl      z-accl      x-coor      y-coor      z-coor
    22626 -3.00769E-02 3.33166E+00 5.09342E-01-5.73815E-03 1.15151E+00 4.95531E-01-5.23830E-02 2.06470E-01 2.28194E-01 4.62930E+00-2.48592E+01-4.44724E+01



 n o d a l   p r i n t   o u t   f o r   t i m e  s t e p   19202                              ( at time 9.5995393E+00 )

 nodal point  x-rot      y-rot       z-rot       x-rot vel   y-rot vel   z-rot vel   x-rot acc   y-rot acc   z-rot acc
    22626 -2.81814E-02-3.37747E-05-1.46489E-04-8.32638E-03 1.12751E-04 2.25685E-04-1.10806E-03-6.67858E-04 3.18386E-04



 n o d a l   p r i n t   o u t   f o r   t i m e  s t e p   19402                              ( at time 9.6995293E+00 )

 nodal point  x-disp     y-disp      z-disp      x-vel       y-vel       z-vel      x-accl      y-accl      z-accl      x-coor      y-coor      z-coor
    22626 -3.03048E-02 3.44786E+00 5.59803E-01-1.62932E-03 1.17160E+00 5.13040E-01 4.10925E-02 2.00938E-01 1.75111E-01 4.62907E+00-2.47430E+01-4.44219E+01



 n o d a l   p r i n t   o u t   f o r   t i m e  s t e p   19402                              ( at time 9.6995293E+00 )

 nodal point  x-rot      y-rot       z-rot       x-rot vel   y-rot vel   z-rot vel   x-rot acc   y-rot acc   z-rot acc
    22626 -2.90201E-02-1.84676E-05-1.23567E-04-8.42911E-03 1.69667E-04 2.44337E-04-1.02738E-03 5.69222E-04 1.86542E-04



 n o d a l   p r i n t   o u t   f o r   t i m e  s t e p   19602                              ( at time 9.7995193E+00 )

 nodal point  x-disp     y-disp      z-disp      x-vel       y-vel       z-vel      x-accl      y-accl      z-accl      x-coor      y-coor      z-coor
    22626 -3.03951E-02 3.56601E+00 6.12087E-01-1.53132E-03 1.19269E+00 5.32716E-01 9.80102E-04 2.10858E-01 1.96780E-01 4.62898E+00-2.46248E+01-4.43696E+01



 n o d a l   p r i n t   o u t   f o r   t i m e  s t e p   19602                              ( at time 9.7995193E+00 )

 nodal point  x-rot      y-rot       z-rot       x-rot vel   y-rot vel   z-rot vel   x-rot acc   y-rot acc   z-rot acc
    22626 -2.98708E-02-4.15517E-08-9.71585E-05-8.58717E-03 1.66678E-04 2.78786E-04-1.58080E-03-2.98941E-05 3.44519E-04



 n o d a l   p r i n t   o u t   f o r   t i m e  s t e p   19802                              ( at time 9.8995093E+00 )

 nodal point  x-disp     y-disp      z-disp      x-vel       y-vel       z-vel      x-accl      y-accl      z-accl      x-coor      y-coor      z-coor
    22626 -3.05432E-02 3.68618E+00 6.66492E-01-1.95699E-03 1.21105E+00 5.53054E-01-4.25713E-03 1.83668E-01 2.03399E-01 4.62883E+00-2.45047E+01-4.43152E+01



 n o d a l   p r i n t   o u t   f o r   t i m e  s t e p   19802                              ( at time 9.8995093E+00 )

 nodal point  x-rot      y-rot       z-rot       x-rot vel   y-rot vel   z-rot vel   x-rot acc   y-rot acc   z-rot acc
    22626 -3.07318E-02 1.42559E-05-7.07161E-05-8.66183E-03 1.22074E-04 2.74195E-04-7.46614E-04-4.46091E-04-4.59148E-05



 n o d a l   p r i n t   o u t   f o r   t i m e  s t e p   20003                              ( at time 9.9999992E+00 )

 nodal point  x-disp     y-disp      z-disp      x-vel       y-vel       z-vel      x-accl      y-accl      z-accl      x-coor      y-coor      z-coor
[...]
    22626 -2.16095E-01-5.36154E-04 4.19103E-03-1.99195E-02-2.29025E-04 2.30409E-04-2.91847E-04 8.30297E-04 2.79076E-04



 n o d a l   p r i n t   o u t   f o r   t i m e  s t e p   45205                              ( at time 2.2599738E+01 )

 nodal point  x-disp     y-disp      z-disp      x-vel       y-vel       z-vel      x-accl      y-accl      z-accl      x-coor      y-coor      z-coor
    22626  2.46296E-01 2.46444E+01 2.01663E+01 3.07341E-02 1.95101E+00 1.10645E+00-1.30362E-03 2.71882E-02-1.73439E-01 4.90567E+00-3.54638E+00-2.48154E+01



 n o d a l   p r i n t   o u t   f o r   t i m e  s t e p   45205                              ( at time 2.2599738E+01 )

 nodal point  x-rot      y-rot       z-rot       x-rot vel   y-rot vel   z-rot vel   x-rot acc   y-rot acc   z-rot acc
    22626 -2.18090E-01-5.60995E-04 4.21507E-03-1.99697E-02-2.71215E-04 2.26119E-04-5.01265E-04-4.21941E-04-4.29020E-05



 n o d a l   p r i n t   o u t   f o r   t i m e  s t e p   45405                              ( at time 2.2699728E+01 )

 nodal point  x-disp     y-disp      z-disp      x-vel       y-vel       z-vel      x-accl      y-accl      z-accl      x-coor      y-coor      z-coor
    22626  2.49159E-01 2.48396E+01 2.02764E+01 2.64771E-02 1.95234E+00 1.09434E+00-4.25745E-02 1.32754E-02-1.21153E-01 4.90853E+00-3.35121E+00-2.47053E+01



 n o d a l   p r i n t   o u t   f o r   t i m e  s t e p   45405                              ( at time 2.2699728E+01 )

 nodal point  x-rot      y-rot       z-rot       x-rot vel   y-rot vel   z-rot vel   x-rot acc   y-rot acc   z-rot acc
    22626 -2.20089E-01-5.90168E-04 4.23426E-03-2.00185E-02-3.08105E-04 1.73566E-04-4.88514E-04-3.68939E-04-5.25588E-04



 n o d a l   p r i n t   o u t   f o r   t i m e  s t e p   45605                              ( at time 2.2799718E+01 )

 nodal point  x-disp     y-disp      z-disp      x-vel       y-vel       z-vel      x-accl      y-accl      z-accl      x-coor      y-coor      z-coor
    22626  2.51936E-01 2.50350E+01 2.03849E+01 2.92116E-02 1.95450E+00 1.07620E+00 2.73472E-02 2.16325E-02-1.81434E-01 4.91131E+00-3.15579E+00-2.45968E+01



 n o d a l   p r i n t   o u t   f o r   t i m e  s t e p   45605                              ( at time 2.2799718E+01 )

 nodal point  x-rot      y-rot       z-rot       x-rot vel   y-rot vel   z-rot vel   x-rot acc   y-rot acc   z-rot acc
    22626 -2.22092E-01-6.20504E-04 4.25313E-03-2.00401E-02-2.64765E-04 2.06918E-04-2.15751E-04 4.33440E-04 3.33541E-04



 n o d a l   p r i n t   o u t   f o r   t i m e  s t e p   45805                              ( at time 2.2899708E+01 )

 nodal point  x-disp     y-disp      z-disp      x-vel       y-vel       z-vel      x-accl      y-accl      z-accl      x-coor      y-coor      z-coor
    22626  2.54813E-01 2.52306E+01 2.04919E+01 2.87492E-02 1.95708E+00 1.06382E+00-4.62440E-03 2.57389E-02-1.23762E-01 4.91419E+00-2.96023E+00-2.44898E+01



 n o d a l   p r i n t   o u t   f o r   t i m e  s t e p   45805                              ( at time 2.2899708E+01 )

 nodal point  x-rot      y-rot       z-rot       x-rot vel   y-rot vel   z-rot vel   x-rot acc   y-rot acc   z-rot acc
    22626 -2.24098E-01-6.44904E-04 4.27345E-03-2.00974E-02-2.61655E-04 1.80317E-04-5.73050E-04 3.10988E-05-2.66032E-04



 n o d a l   p r i n t   o u t   f o r   t i m e  s t e p   46005                              ( at time 2.2999698E+01 )

 nodal point  x-disp     y-disp      z-disp      x-vel       y-vel       z-vel      x-accl      y-accl      z-accl      x-coor      y-coor      z-coor
    22626  2.57584E-01 2.54263E+01 2.05977E+01 2.71549E-02 1.95871E+00 1.05237E+00-1.59443E-02 1.63713E-02-1.14598E-01 4.91696E+00-2.76450E+00-2.43840E+01



 n o d a l   p r i n t   o u t   f o r   t i m e  s t e p   46005                              ( at time 2.2999698E+01 )

 nodal point  x-rot      y-rot       z-rot       x-rot vel   y-rot vel   z-rot vel   x-rot acc   y-rot acc   z-rot acc
    22626 -2.26110E-01-6.75405E-04 4.29170E-03-2.01317E-02-3.40694E-04 1.88914E-04-3.43224E-04-7.90457E-04 8.59727E-05



 n o d a l   p r i n t   o u t   f o r   t i m e  s t e p   46205                              ( at time 2.3099688E+01 )

 nodal point  x-disp     y-disp      z-disp      x-vel       y-vel       z-vel      x-accl      y-accl      z-accl      x-coor      y-coor      z-coor
    22626  2.60384E-01 2.56222E+01 2.07022E+01 2.88490E-02 1.96087E+00 1.03739E+00 1.69429E-02 2.15888E-02-1.49791E-01 4.91976E+00-2.56866E+00-2.42796E+01



 n o d a l   p r i n t   o u t   f o r   t i m e  s t e p   46205                              ( at time 2.3099688E+01 )

 nodal point  x-rot      y-rot       z-rot       x-rot vel   y-rot vel   z-rot vel   x-rot acc   y-rot acc   z-rot acc
    22626 -2.28124E-01-7.05949E-04 4.31041E-03-2.01571E-02-2.65533E-04 1.80656E-04-2.54484E-04 7.51694E-04-8.25857E-05



 n o d a l   p r i n t   o u t   f o r   t i m e  s t e p   46405                              ( at time 2.3199678E+01 )

 nodal point  x-disp     y-disp      z-disp      x-vel       y-vel       z-vel      x-accl      y-accl      z-accl      x-coor      y-coor      z-coor
    22626  2.63249E-01 2.58182E+01 2.08052E+01 2.79110E-02 1.96085E+00 1.02634E+00-9.38062E-03-2.64669E-04-1.10443E-01 4.92262E+00-2.37263E+00-2.41765E+01



 n o d a l   p r i n t   o u t   f o r   t i m e  s t e p   46405                              ( at time 2.3199678E+01 )

 nodal point  x-rot      y-rot       z-rot       x-rot vel   y-rot vel   z-rot vel   x-rot acc   y-rot acc   z-rot acc
    22626 -2.30144E-01-7.32909E-04 4.32758E-03-2.02256E-02-2.98003E-04 1.76227E-04-6.85069E-04-3.24733E-04-4.42954E-05



 n o d a l   p r i n t   o u t   f o r   t i m e  s t e p   46605                              ( at time 2.3299668E+01 )

 nodal point  x-disp     y-disp      z-disp      x-vel       y-vel       z-vel      x-accl      y-accl      z-accl      x-coor      y-coor      z-coor
    22626  2.66225E-01 2.60143E+01 2.09074E+01 3.10835E-02 1.96191E+00 1.01610E+00 3.17285E-02 1.06788E-02-1.02484E-01 4.92560E+00-2.17651E+00-2.40743E+01



 n o d a l   p r i n t   o u t   f o r   t i m e  s t e p   46605                              ( at time 2.3299668E+01 )

 nodal point  x-rot      y-rot       z-rot       x-rot vel   y-rot vel   z-rot vel   x-rot acc   y-rot acc   z-rot acc
    22626 -2.32168E-01-7.65295E-04 4.34911E-03-2.02291E-02-3.37081E-04 2.41716E-04-3.50216E-05-3.90828E-04 6.54964E-04



 n o d a l   p r i n t   o u t   f o r   t i m e  s t e p   46805                              ( at time 2.3399658E+01 )

 nodal point  x-disp     y-disp      z-disp      x-vel       y-vel       z-vel      x-accl      y-accl      z-accl      x-coor      y-coor      z-coor
    22626  2.69198E-01 2.62105E+01 2.10084E+01 2.82344E-02 1.96128E+00 1.00338E+00-2.84937E-02-6.36994E-03-1.27171E-01 4.92857E+00-1.98033E+00-2.39734E+01



 n o d a l   p r i n t   o u t   f o r   t i m e  s t e p   46805                              ( at time 2.3399658E+01 )

 nodal point  x-rot      y-rot       z-rot       x-rot vel   y-rot vel   z-rot vel   x-rot acc   y-rot acc   z-rot acc
    22626 -2.34191E-01-7.95754E-04 4.37165E-03-2.02622E-02-2.92185E-04 1.85299E-04-3.30110E-04 4.49004E-04-5.64219E-04



 n o d a l   p r i n t   o u t   f o r   t i m e  s t e p   47005                              ( at time 2.3499648E+01 )

 nodal point  x-disp     y-disp      z-disp      x-vel       y-vel       z-vel      x-accl      y-accl      z-accl      x-coor      y-coor      z-coor
    22626  2.71930E-01 2.64067E+01 2.11082E+01 2.78290E-02 1.96291E+00 9.94412E-01-4.05418E-03 1.62938E-02-8.97090E-02 4.93130E+00-1.78412E+00-2.38735E+01



 n o d a l   p r i n t   o u t   f o r   t i m e  s t e p   47005                              ( at time 2.3499648E+01 )

 nodal point  x-rot      y-rot       z-rot       x-rot vel   y-rot vel   z-rot vel   x-rot acc   y-rot acc   z-rot acc
    22626 -2.36221E-01-8.27180E-04 4.38883E-03-2.03157E-02-3.34516E-04 1.96342E-04-5.35690E-04-4.23350E-04 1.10439E-04



 n o d a l   p r i n t   o u t   f o r   t i m e  s t e p   47205                              ( at time 2.3599638E+01 )

 nodal point  x-disp     y-disp      z-disp      x-vel       y-vel       z-vel      x-accl      y-accl      z-accl      x-coor      y-coor      z-coor
    22626  2.74747E-01 2.66030E+01 2.12072E+01 2.92107E-02 1.96270E+00 9.85763E-01 1.38181E-02-2.06970E-03-8.64935E-02 4.93412E+00-1.58787E+00-2.37745E+01



 n o d a l   p r i n t   o u t   f o r   t i m e  s t e p   47205                              ( at time 2.3599638E+01 )

 nodal point  x-rot      y-rot       z-rot       x-rot vel   y-rot vel   z-rot vel   x-rot acc   y-rot acc   z-rot acc
    22626 -2.38252E-01-8.58347E-04 4.41219E-03-2.03065E-02-2.86085E-04 2.51740E-04 9.20807E-05 4.84366E-04 5.54037E-04



 n o d a l   p r i n t   o u t   f o r   t i m e  s t e p   47405                              ( at time 2.3699628E+01 )

 nodal point  x-disp     y-disp      z-disp      x-vel       y-vel       z-vel      x-accl      y-accl      z-accl      x-coor      y-coor      z-coor
    22626  2.77614E-01 2.67993E+01 2.13053E+01 2.68191E-02 1.96314E+00 9.75185E-01-2.39176E-02 4.36227E-03-1.05795E-01 4.93699E+00-1.39155E+00-2.36765E+01



 n o d a l   p r i n t   o u t   f o r   t i m e  s t e p   47405                              ( at time 2.3699628E+01 )

 nodal point  x-rot      y-rot       z-rot       x-rot vel   y-rot vel   z-rot vel   x-rot acc   y-rot acc   z-rot acc
    22626 -2.40285E-01-8.88771E-04 4.43455E-03-2.03667E-02-3.19288E-04 2.02079E-04-6.02379E-04-3.32058E-04-4.96656E-04



 n o d a l   p r i n t   o u t   f o r   t i m e  s t e p   47605                              ( at time 2.3799618E+01 )

 nodal point  x-disp     y-disp      z-disp      x-vel       y-vel       z-vel      x-accl      y-accl      z-accl      x-coor      y-coor      z-coor
    22626  2.80160E-01 2.69956E+01 2.14024E+01 2.63295E-02 1.96308E+00 9.67802E-01-4.89671E-03-5.25771E-04-7.38381E-02 4.93954E+00-1.19526E+00-2.35793E+01



 n o d a l   p r i n t   o u t   f o r   t i m e  s t e p   47605                              ( at time 2.3799618E+01 )

 nodal point  x-rot      y-rot       z-rot       x-rot vel   y-rot vel   z-rot vel   x-rot acc   y-rot acc   z-rot acc
    22626 -2.42322E-01-9.22181E-04 4.45555E-03-2.03788E-02-3.22003E-04 2.24546E-04-1.21085E-04-2.71537E-05 2.24696E-04



 n o d a l   p r i n t   o u t   f o r   t i m e  s t e p   47805                              ( at time 2.3899608E+01 )

 nodal point  x-disp     y-disp      z-disp      x-vel       y-vel       z-vel      x-accl      y-accl      z-accl      x-coor      y-coor      z-coor
    22626  2.83089E-01 2.71919E+01 2.14988E+01 2.92413E-02 1.96328E+00 9.60394E-01 2.91205E-02 1.96236E-03-7.40816E-02 4.94246E+00-9.98966E-01-2.34829E+01



 n o d a l   p r i n t   o u t   f o r   t i m e  s t e p   47805                              ( at time 2.3899608E+01 )

 nodal point  x-rot      y-rot       z-rot       x-rot vel   y-rot vel   z-rot vel   x-rot acc   y-rot acc   z-rot acc
    22626 -2.44360E-01-9.50082E-04 4.47889E-03-2.03791E-02-2.42339E-04 2.25336E-04-2.06773E-06 7.96715E-04 7.90329E-06



 n o d a l   p r i n t   o u t   f o r   t i m e  s t e p   48005                              ( at time 2.3999598E+01 )

 nodal point  x-disp     y-disp      z-disp      x-vel       y-vel       z-vel      x-accl      y-accl      z-accl      x-coor      y-coor      z-coor
    22626  2.85890E-01 2.73881E+01 2.15943E+01 2.74746E-02 1.96199E+00 9.52441E-01-1.76691E-02-1.28438E-02-7.95405E-02 4.94527E+00-8.02772E-01-2.33874E+01



 n o d a l   p r i n t   o u t   f o r   t i m e  s t e p   48005                              ( at time 2.3999598E+01 )

 nodal point  x-rot      y-rot       z-rot       x-rot vel   y-rot vel   z-rot vel   x-rot acc   y-rot acc   z-rot acc
    22626 -2.46401E-01-9.75579E-04 4.49986E-03-2.04112E-02-3.04330E-04 2.16751E-04-3.21603E-04-6.19983E-04-8.58563E-05



 n o d a l   p r i n t   o u t   f o r   t i m e  s t e p   48205                              ( at time 2.4099588E+01 )

 nodal point  x-disp     y-disp      z-disp      x-vel       y-vel       z-vel      x-accl      y-accl      z-accl      x-coor      y-coor      z-coor
    22626  2.88609E-01 2.75841E+01 2.16894E+01 2.74618E-02 1.96016E+00 9.48645E-01-1.27584E-04-1.83778E-02-3.79585E-02 4.94798E+00-6.06749E-01-2.32924E+01



 n o d a l   p r i n t   o u t   f o r   t i m e  s t e p   48205                              ( at time 2.4099588E+01 )

 nodal point  x-rot      y-rot       z-rot       x-rot vel   y-rot vel   z-rot vel   x-rot acc   y-rot acc   z-rot acc
    22626 -2.48443E-01-1.00693E-03 4.52446E-03-2.04032E-02-2.93175E-04 2.51590E-04 7.96726E-05 1.11563E-04 3.48422E-04



 n o d a l   p r i n t   o u t   f o r   t i m e  s t e p   48405                              ( at time 2.4199578E+01 )

 nodal point  x-disp     y-disp      z-disp      x-vel       y-vel       z-vel      x-accl      y-accl      z-accl      x-coor      y-coor      z-coor
    22626  2.91163E-01 2.77799E+01 2.17839E+01 2.51589E-02 1.95760E+00 9.42406E-01-2.30315E-02-2.55637E-02-6.24010E-02 4.95054E+00-4.10908E-01-2.31979E+01



 n o d a l   p r i n t   o u t   f o r   t i m e  s t e p   48405                              ( at time 2.4199578E+01 )

 nodal point  x-rot      y-rot       z-rot       x-rot vel   y-rot vel   z-rot vel   x-rot acc   y-rot acc   z-rot acc
    22626 -2.50485E-01-1.03208E-03 4.54709E-03-2.04188E-02-2.40414E-04 1.98996E-04-1.55604E-04 5.27664E-04-5.26006E-04



 n o d a l   p r i n t   o u t   f o r   t i m e  s t e p   48605                              ( at time 2.4299568E+01 )

 nodal point  x-disp     y-disp      z-disp      x-vel       y-vel       z-vel      x-accl      y-accl      z-accl      x-coor      y-coor      z-coor
    22626  2.93873E-01 2.79755E+01 2.18779E+01 2.65617E-02 1.95482E+00 9.38259E-01 1.40285E-02-2.78176E-02-4.14707E-02 4.95325E+00-2.15299E-01-2.31039E+01



 n o d a l   p r i n t   o u t   f o r   t i m e  s t e p   48605                              ( at time 2.4299568E+01 )

 nodal point  x-rot      y-rot       z-rot       x-rot vel   y-rot vel   z-rot vel   x-rot acc   y-rot acc   z-rot acc
    22626 -2.52527E-01-1.05600E-03 4.56592E-03-2.04254E-02-2.34067E-04 2.27606E-04-6.56643E-05 6.34730E-05 2.86135E-04



 n o d a l   p r i n t   o u t   f o r   t i m e  s t e p   48805                              ( at time 2.4399558E+01 )

 nodal point  x-disp     y-disp      z-disp      x-vel       y-vel       z-vel      x-accl      y-accl      z-accl      x-coor      y-coor      z-coor
    22626  2.96427E-01 2.81709E+01 2.19716E+01 2.51125E-02 1.95087E+00 9.35110E-01-1.44925E-02-3.94893E-02-3.14932E-02 4.95580E+00-1.99368E-02-2.30101E+01



 n o d a l   p r i n t   o u t   f o r   t i m e  s t e p   48805                              ( at time 2.4399558E+01 )

 nodal point  x-rot      y-rot       z-rot       x-rot vel   y-rot vel   z-rot vel   x-rot acc   y-rot acc   z-rot acc
    22626 -2.54569E-01-1.08185E-03 4.58957E-03-2.04213E-02-2.83111E-04 2.25297E-04 4.05349E-05-4.90476E-04-2.30935E-05



 n o d a l   p r i n t   o u t   f o r   t i m e  s t e p   49006                              ( at time 2.4500048E+01 )

 nodal point  x-disp     y-disp      z-disp      x-vel       y-vel       z-vel      x-accl      y-accl      z-accl      x-coor      y-coor      z-coor
    22626  2.98935E-01 2.83669E+01 2.20653E+01 2.50882E-02 1.94937E+00 9.30703E-01-2.42004E-04-1.49106E-02-4.38550E-02 4.95831E+00 1.76106E-01-2.29164E+01



 n o d a l   p r i n t   o u t   f o r   t i m e  s t e p   49006                              ( at time 2.4500048E+01 )

 nodal point  x-rot      y-rot       z-rot       x-rot vel   y-rot vel   z-rot vel   x-rot acc   y-rot acc   z-rot acc
    22626 -2.56622E-01-1.10977E-03 4.61040E-03-2.04260E-02-2.37261E-04 1.98023E-04-4.62841E-05 4.56270E-04-2.71422E-04



 n o d a l   p r i n t   o u t   f o r   t i m e  s t e p   49206                              ( at time 2.4600038E+01 )

 nodal point  x-disp     y-disp      z-disp      x-vel       y-vel       z-vel      x-accl      y-accl      z-accl      x-coor      y-coor      z-coor
    22626  3.01503E-01 2.85617E+01 2.21584E+01 2.69732E-02 1.94716E+00 9.30986E-01 1.88512E-02-2.21153E-02 2.83029E-03 4.96088E+00 3.70918E-01-2.28233E+01



 n o d a l   p r i n t   o u t   f o r   t i m e  s t e p   49206                              ( at time 2.4600038E+01 )

 nodal point  x-rot      y-rot       z-rot       x-rot vel   y-rot vel   z-rot vel   x-rot acc   y-rot acc   z-rot acc
    22626 -2.58663E-01-1.13086E-03 4.63303E-03-2.03841E-02-2.00646E-04 2.44972E-04 4.18742E-04 3.66183E-04 4.69535E-04



 n o d a l   p r i n t   o u t   f o r   t i m e  s t e p   49406                              ( at time 2.4700028E+01 )

 nodal point  x-disp     y-disp      z-disp      x-vel       y-vel       z-vel      x-accl      y-accl      z-accl      x-coor      y-coor      z-coor
    22626  3.04124E-01 2.87562E+01 2.22513E+01 2.47465E-02 1.94398E+00 9.28056E-01-2.22687E-02-3.18217E-02-2.93103E-02 4.96350E+00 5.65395E-01-2.27304E+01



 n o d a l   p r i n t   o u t   f o r   t i m e  s t e p   49406                              ( at time 2.4700028E+01 )

 nodal point  x-rot      y-rot       z-rot       x-rot vel   y-rot vel   z-rot vel   x-rot acc   y-rot acc   z-rot acc
    22626 -2.60701E-01-1.15431E-03 4.65708E-03-2.03820E-02-2.52030E-04 2.21472E-04 2.09198E-05-5.13898E-04-2.35027E-04



 n o d a l   p r i n t   o u t   f o r   t i m e  s t e p   49606                              ( at time 2.4800018E+01 )

 nodal point  x-disp     y-disp      z-disp      x-vel       y-vel       z-vel      x-accl      y-accl      z-accl      x-coor      y-coor      z-coor
    22626  3.06532E-01 2.89505E+01 2.23441E+01 2.43701E-02 1.94290E+00 9.28612E-01-3.76520E-03-1.07608E-02 5.56520E-03 4.96591E+00 7.59701E-01-2.26376E+01



 n o d a l   p r i n t   o u t   f o r   t i m e  s t e p   49606                              ( at time 2.4800018E+01 )

 nodal point  x-rot      y-rot       z-rot       x-rot vel   y-rot vel   z-rot vel   x-rot acc   y-rot acc   z-rot acc
    22626 -2.62740E-01-1.17832E-03 4.67885E-03-2.03623E-02-2.22622E-04 2.28168E-04 1.97440E-04 2.94108E-04 6.69676E-05



 n o d a l   p r i n t   o u t   f o r   t i m e  s t e p   49806                              ( at time 2.4900008E+01 )

 nodal point  x-disp     y-disp      z-disp      x-vel       y-vel       z-vel      x-accl      y-accl      z-accl      x-coor      y-coor      z-coor
    22626  3.09046E-01 2.91446E+01 2.24369E+01 2.53566E-02 1.93965E+00 9.26764E-01 9.86642E-03-3.25370E-02-1.84819E-02 4.96842E+00 9.53807E-01-2.25448E+01



 n o d a l   p r i n t   o u t   f o r   t i m e  s t e p   49806                              ( at time 2.4900008E+01 )

 nodal point  x-rot      y-rot       z-rot       x-rot vel   y-rot vel   z-rot vel   x-rot acc   y-rot acc   z-rot acc
    22626 -2.64775E-01-1.19801E-03 4.70226E-03-2.03416E-02-1.89451E-04 2.29905E-04 2.06683E-04 3.31741E-04 1.73690E-05



 n o d a l   p r i n t   o u t   f o r   t i m e  s t e p   50006                              ( at time 2.4999998E+01 )

 nodal point  x-disp     y-disp      z-disp      x-vel       y-vel       z-vel      x-accl      y-accl      z-accl      x-coor      y-coor      z-coor
    22626  3.11423E-01 2.93384E+01 2.25296E+01 2.24452E-02 1.93587E+00 9.27465E-01-2.91170E-02-3.77606E-02 7.00598E-03 4.97080E+00 1.14760E+00-2.24521E+01



 n o d a l   p r i n t   o u t   f o r   t i m e  s t e p   50006                              ( at time 2.4999998E+01 )

 nodal point  x-rot      y-rot       z-rot       x-rot vel   y-rot vel   z-rot vel   x-rot acc   y-rot acc   z-rot acc
    22626 -2.66809E-01-1.21825E-03 4.72387E-03-2.03534E-02-2.27649E-04 2.10814E-04-1.18196E-04-3.82011E-04-1.90926E-04
