 LSTC 50th% Full_FE H-III Dummy (Beta Version, February 17, 2019)        
                    ls-dyna smp s R16 R16.0_619_d222963 date 03/18/2025

{BEGIN LEGEND}
 Entity #        Title
        1     Upper_Neck_Force_INJURY                                              
{END LEGEND}



 line#1  section#     time        x-force     y-force     z-force    magnitude
 line#2  resultant  moments       x-moment    y-moment    z-moment   magnitude
 line#3  centroids                x           y           z            area  
           1    0.00000E+00     0.0000E+00  0.0000E+00  0.0000E+00  0.0000E+00
ac ID =   33377                 0.0000E+00  0.0000E+00  0.0000E+00  0.0000E+00
                               -3.7437E-01  1.0501E+01 -4.6940E+01  0.0000E+00

           1    1.00490E-01     1.3117E-04 -4.9879E-03  2.5981E-01  2.5986E-01
ac ID =   33377                 4.2548E-01 -1.2521E+00 -2.7103E-02  1.3227E+00
                               -3.7387E-01  1.0590E+01 -4.6886E+01  2.5147E+03

           1    2.00480E-01    -4.4259E-02  6.1927E-04  4.4105E-01  4.4326E-01
ac ID =   33377                 3.0712E-01 -1.5953E+00  2.0729E-02  1.6247E+00
                               -3.7386E-01  1.0591E+01 -4.6888E+01  2.5147E+03

           1    3.00470E-01     1.4782E-02 -2.9930E-03  2.1786E-01  2.1839E-01
ac ID =   33377                 1.8875E-02 -3.3783E-01  6.3499E-02  3.4426E-01
                               -3.7382E-01  1.0591E+01 -4.6889E+01  2.5147E+03

           1    4.00460E-01     2.9677E-03  1.0631E-02  8.9134E-02  8.9815E-02
ac ID =   33377                -4.9671E-01 -9.4235E-01  1.5208E-03  1.0652E+00
                               -3.7383E-01  1.0592E+01 -4.6890E+01  2.5147E+03

           1    5.00450E-01    -3.9336E-02  4.6865E-03  1.6456E-01  1.6926E-01
ac ID =   33377                -4.0280E-01 -1.4665E+00 -1.1047E-01  1.5248E+00
                               -3.7385E-01  1.0594E+01 -4.6893E+01  2.5147E+03

           1    6.00440E-01    -1.0033E-02  3.9431E-03  3.4774E-01  3.4790E-01
ac ID =   33377                 8.7193E-02 -1.2833E+00 -4.3542E-02  1.2870E+00
                               -3.7385E-01  1.0595E+01 -4.6897E+01  2.5147E+03

           1    7.00430E-01     2.8492E-03 -5.1037E-03  2.9830E-01  2.9836E-01
ac ID =   33377                 1.1284E-01 -4.5464E-01  9.4176E-02  4.7781E-01
                               -3.7388E-01  1.0597E+01 -4.6901E+01  2.5147E+03

           1    8.00420E-01    -2.7925E-02 -4.7598E-04  1.0441E-01  1.0808E-01
ac ID =   33377                 5.7899E-02 -9.5924E-01  4.8853E-02  9.6223E-01
                               -3.7391E-01  1.0599E+01 -4.6904E+01  2.5147E+03

           1    9.00410E-01    -3.7014E-02  8.3250E-04  7.0185E-02  7.9352E-02
ac ID =   33377                 8.2078E-02 -9.8747E-01 -9.9597E-03  9.9093E-01
                               -3.7395E-01  1.0601E+01 -4.6909E+01  2.5147E+03

           1    1.00040E+00     1.7524E-02 -2.9374E-03  2.3138E-01  2.3207E-01
ac ID =   33377                 3.3253E-01 -1.9851E-01 -6.4944E-02  3.9269E-01
                               -3.7394E-01  1.0604E+01 -4.6914E+01  2.5147E+03

           1    1.10039E+00     3.7605E-03 -2.7860E-03  2.8061E-01  2.8065E-01
ac ID =   33377                 3.1983E-01 -7.4302E-01 -6.3471E-02  8.1142E-01
                               -3.7393E-01  1.0606E+01 -4.6920E+01  2.5147E+03

           1    1.20038E+00    -3.0218E-02  1.9306E-04  1.3294E-01  1.3633E-01
ac ID =   33377                -1.6086E-01 -1.0631E+00 -1.0525E-03  1.0752E+00
                               -3.7393E-01  1.0609E+01 -4.6925E+01  2.5147E+03

           1    1.30037E+00    -4.6947E-03  4.7078E-03  8.3410E-02  8.3675E-02
ac ID =   33377                -3.2446E-01 -7.1097E-01  3.2137E-02  7.8217E-01
                               -3.7394E-01  1.0612E+01 -4.6931E+01  2.5147E+03

           1    1.40036E+00     1.0380E-02  3.6976E-03  1.9313E-01  1.9345E-01
ac ID =   33377                -3.0734E-01 -6.9583E-01  4.3497E-02  7.6193E-01
                               -3.7394E-01  1.0615E+01 -4.6938E+01  2.5147E+03

           1    1.50035E+00    -2.4081E-02 -3.1844E-04  3.3907E-01  3.3992E-01
ac ID =   33377                -1.3701E-02 -1.4387E+00 -1.5824E-02  1.4388E+00
                               -3.7395E-01  1.0619E+01 -4.6946E+01  2.5147E+03

           1    1.60034E+00    -1.5018E-02 -1.9843E-03  2.2269E-01  2.2320E-01
ac ID =   33377                -3.9257E-02 -1.1501E+00 -2.9175E-02  1.1511E+00
                               -3.7399E-01  1.0622E+01 -4.6953E+01  2.5147E+03

           1    1.70033E+00     4.4240E-03 -4.8128E-04  6.9722E-02  6.9864E-02
ac ID =   33377                -7.1224E-02 -4.4926E-01  7.7721E-02  4.6146E-01
                               -3.7405E-01  1.0626E+01 -4.6960E+01  2.5147E+03

           1    1.80032E+00    -1.8979E-02  6.5708E-04  9.8020E-02  9.9842E-02
ac ID =   33377                 1.1497E-01 -9.9470E-01  7.5251E-02  1.0041E+00
                               -3.7410E-01  1.0630E+01 -4.6968E+01  2.5147E+03

           1    1.90031E+00    -3.2837E-03 -2.7301E-03  2.0852E-01  2.0856E-01
ac ID =   33377                 2.3209E-01 -6.1700E-01 -7.1539E-02  6.6307E-01
                               -3.7414E-01  1.0634E+01 -4.6977E+01  2.5147E+03

           1    2.00030E+00     4.3444E-03 -5.0461E-03  1.5922E-01  1.5936E-01
ac ID =   33377                 2.0773E-01 -1.7412E-01 -1.2863E-01  3.0003E-01
                               -3.7417E-01  1.0638E+01 -4.6986E+01  2.5147E+03

           1    2.10029E+00    -2.3999E-02  1.2998E-03  7.0287E-03  2.5041E-02
ac ID =   33377                -6.6623E-02 -5.2033E-01  1.1410E-02  5.2470E-01
                               -3.7423E-01  1.0642E+01 -4.6995E+01  2.5147E+03

           1    2.20028E+00    -1.2631E-02  4.9067E-03  1.8358E-02  2.2817E-02
ac ID =   33377                -2.3739E-01 -5.0057E-01  9.8055E-03  5.5409E-01
                               -3.7428E-01  1.0647E+01 -4.7004E+01  2.5147E+03

           1    2.30027E+00     6.0014E-03  4.8405E-03  1.7246E-01  1.7263E-01
ac ID =   33377                -1.7551E-01 -6.1859E-01 -4.8560E-02  6.4484E-01
                               -3.7433E-01  1.0652E+01 -4.7014E+01  2.5147E+03

           1    2.40026E+00    -1.4419E-02 -2.3362E-03  1.9271E-01  1.9326E-01
ac ID =   33377                -1.3739E-01 -1.0040E+00  1.0885E-01  1.0192E+00
                               -3.7439E-01  1.0657E+01 -4.7024E+01  2.5147E+03

           1    2.50025E+00    -1.9034E-02  9.0187E-04 -3.1209E-03  1.9309E-02
ac ID =   33377                -1.8800E-01 -6.7801E-01  1.0691E-01  7.1167E-01
                               -3.7449E-01  1.0661E+01 -4.7034E+01  2.5147E+03

           1    2.60024E+00    -3.4439E-03  6.1787E-03 -5.6615E-02  5.7055E-02
ac ID =   33377                -2.4287E-01  4.0341E-03 -3.4181E-03  2.4293E-01
                               -3.7459E-01  1.0666E+01 -4.7044E+01  2.5147E+03

           1    2.70023E+00    -1.0941E-02 -1.5433E-03  3.6877E-02  3.8497E-02
ac ID =   33377                 5.8859E-02 -5.9691E-02  2.0167E-02  8.6222E-02
                               -3.7468E-01  1.0672E+01 -4.7055E+01  2.5147E+03

           1    2.80022E+00    -5.8411E-03 -4.0188E-03  7.1926E-02  7.2275E-02
ac ID =   33377                 3.5359E-01  2.4396E-02 -1.6820E-02  3.5483E-01
                               -3.7477E-01  1.0677E+01 -4.7065E+01  2.5147E+03

           1    2.90021E+00     7.4904E-03 -8.7799E-04 -7.0293E-03  1.0310E-02
ac ID =   33377                 1.0104E-01  4.8026E-01 -6.2349E-02  4.9472E-01
                               -3.7486E-01  1.0682E+01 -4.7076E+01  2.5147E+03

           1    3.00020E+00    -6.2389E-03  8.1811E-04 -7.4415E-02  7.4680E-02
ac ID =   33377                -2.9573E-02  2.4174E-01 -4.5979E-02  2.4784E-01
                               -3.7494E-01  1.0687E+01 -4.7086E+01  2.5147E+03

           1    3.10019E+00    -7.0517E-03  5.4592E-04  1.8085E-02  1.9419E-02
ac ID =   33377                 6.3326E-02 -2.0279E-01 -6.7991E-02  2.2306E-01
                               -3.7501E-01  1.0692E+01 -4.7097E+01  2.5147E+03

           1    3.20018E+00     3.5582E-03  2.4062E-03  9.0367E-02  9.0469E-02
ac ID =   33377                -4.2743E-02 -2.5899E-01 -1.2035E-02  2.6277E-01
                               -3.7507E-01  1.0697E+01 -4.7109E+01  2.5147E+03

           1    3.30017E+00     3.7648E-03  1.0947E-03  2.0599E-02  2.0969E-02
ac ID =   33377                -2.1652E-01 -1.7760E-01  1.4209E-01  3.1403E-01
                               -3.7514E-01  1.0702E+01 -4.7120E+01  2.5147E+03

           1    3.40016E+00    -6.7857E-03  2.6789E-03 -9.4726E-02  9.5006E-02
ac ID =   33377                -2.8808E-01  1.0679E-02  1.4592E-01  3.2310E-01
                               -3.7523E-01  1.0707E+01 -4.7131E+01  2.5147E+03

           1    3.50015E+00    -5.8221E-04  5.0603E-03 -1.0741E-01  1.0754E-01
ac ID =   33377                -1.8147E-01  3.8495E-01  3.1797E-02  4.2677E-01
                               -3.7532E-01  1.0712E+01 -4.7142E+01  2.5147E+03

           1    3.60014E+00     2.3091E-02 -1.4888E-03 -4.4950E-02  5.0556E-02
ac ID =   33377                 2.7790E-02  1.0502E+00 -1.1284E-01  1.0566E+00
                               -3.7540E-01  1.0718E+01 -4.7154E+01  2.5147E+03

           1    3.70013E+00     3.2038E-02 -1.2673E-03 -8.9440E-02  9.5013E-02
ac ID =   33377                 1.4759E-01  1.3264E+00 -2.2673E-01  1.3537E+00
                               -3.7548E-01  1.0723E+01 -4.7165E+01  2.5147E+03

           1    3.80012E+00     3.7276E-02  4.8368E-03 -1.9268E-01  1.9631E-01
ac ID =   33377                -2.6356E-02  1.6855E+00 -1.5195E-01  1.6925E+00
                               -3.7554E-01  1.0729E+01 -4.7177E+01  2.5147E+03

           1    3.90011E+00     4.0918E-02  7.7856E-03 -2.2809E-01  2.3186E-01
ac ID =   33377                -1.6188E-01  1.8885E+00 -1.3522E-01  1.9002E+00
                               -3.7553E-01  1.0736E+01 -4.7188E+01  2.5147E+03

           1    4.00010E+00     4.7216E-02  8.2777E-03 -1.6348E-01  1.7036E-01
ac ID =   33377                -4.0219E-01  1.6180E+00 -1.2951E-01  1.6723E+00
                               -3.7547E-01  1.0744E+01 -4.7201E+01  2.5147E+03

           1    4.10009E+00     4.8054E-02  9.7617E-03 -1.6777E-01  1.7478E-01
ac ID =   33377                -5.2173E-01  1.4733E+00 -8.4595E-02  1.5653E+00
                               -3.7536E-01  1.0752E+01 -4.7213E+01  2.5147E+03

           1    4.20008E+00     5.1391E-02  7.6159E-03 -2.5506E-01  2.6030E-01
ac ID =   33377                -6.0985E-01  1.7567E+00 -1.3129E-02  1.8596E+00
                               -3.7523E-01  1.0761E+01 -4.7225E+01  2.5147E+03

           1    4.30007E+00     5.1231E-02  1.0529E-02 -3.2643E-01  3.3059E-01
ac ID =   33377                -6.0950E-01  1.9875E+00  6.4282E-02  2.0798E+00
                               -3.7511E-01  1.0771E+01 -4.7237E+01  2.5147E+03

           1    4.40006E+00     6.9732E-02  1.2483E-02 -2.8026E-01  2.8907E-01
ac ID =   33377                -5.0221E-01  2.3678E+00  1.3074E-01  2.4240E+00
                               -3.7497E-01  1.0782E+01 -4.7250E+01  2.5147E+03

           1    4.50005E+00     7.0304E-02  4.6317E-03 -2.3865E-01  2.4883E-01
ac ID =   33377                -1.6742E-02  2.3624E+00 -8.7105E-02  2.3640E+00
                               -3.7483E-01  1.0795E+01 -4.7262E+01  2.5147E+03

           1    4.60004E+00     7.8938E-02 -8.6033E-03 -3.1872E-01  3.2846E-01
ac ID =   33377                 2.3111E-02  2.6350E+00 -1.9101E-01  2.6420E+00
                               -3.7463E-01  1.0808E+01 -4.7274E+01  2.5147E+03

           1    4.70003E+00     8.5163E-02 -6.1895E-04 -3.7412E-01  3.8369E-01
ac ID =   33377                -2.6772E-02  2.7072E+00  1.8691E-01  2.7137E+00
                               -3.7447E-01  1.0823E+01 -4.7287E+01  2.5147E+03

           1    4.80002E+00     9.6535E-02  7.3828E-03 -3.7997E-01  3.9211E-01
ac ID =   33377                -2.8700E-01  2.7865E+00  4.0504E-01  2.8304E+00
                               -3.7432E-01  1.0839E+01 -4.7299E+01  2.5147E+03

           1    4.90001E+00     9.0727E-02  3.0724E-03 -3.4692E-01  3.5860E-01
ac ID =   33377                -3.4353E-01  2.7645E+00  1.0149E-01  2.7876E+00
                               -3.7413E-01  1.0857E+01 -4.7312E+01  2.5147E+03

           1    5.00000E+00     9.4700E-02 -1.0307E-02 -3.9721E-01  4.0847E-01
ac ID =   33377                -4.9956E-01  2.8367E+00 -1.3370E-01  2.8835E+00
                               -3.7392E-01  1.0876E+01 -4.7324E+01  2.5147E+03

           1    5.10049E+00     1.0510E-01  1.0911E-02 -4.4894E-01  4.6121E-01
ac ID =   33377                -5.2540E-01  3.0612E+00 -3.9951E-01  3.1316E+00
                               -3.7386E-01  1.0897E+01 -4.7336E+01  2.5147E+03

           1    5.20048E+00     1.0385E-01  2.2411E-02 -4.4726E-01  4.5971E-01
ac ID =   33377                -6.5754E-01  2.8611E+00 -2.1690E-01  2.9437E+00
                               -3.7380E-01  1.0919E+01 -4.7349E+01  2.5147E+03

           1    5.30047E+00     1.0259E-01  4.5460E-03 -4.4277E-01  4.5452E-01
ac ID =   33377                -5.2721E-01  2.8771E+00 -1.6117E-01  2.9295E+00
                               -3.7372E-01  1.0944E+01 -4.7361E+01  2.5147E+03

           1    5.40046E+00     1.1134E-01  5.2384E-03 -4.5839E-01  4.7175E-01
ac ID =   33377                -1.2504E-01  2.7311E+00 -6.3857E-02  2.7347E+00
                               -3.7370E-01  1.0970E+01 -4.7373E+01  2.5147E+03

           1    5.50045E+00     1.3398E-01  1.3385E-02 -5.7893E-01  5.9439E-01
ac ID =   33377                -6.3325E-01  3.4762E+00 -2.1310E-01  3.5399E+00
                               -3.7371E-01  1.0997E+01 -4.7384E+01  2.5147E+03

           1    5.60044E+00     1.1550E-01 -6.4685E-03 -6.3062E-01  6.4114E-01
ac ID =   33377                -6.1540E-01  2.9272E+00 -1.7552E-01  2.9964E+00
                               -3.7362E-01  1.1026E+01 -4.7396E+01  2.5147E+03

           1    5.70043E+00     1.3130E-01  7.4062E-03 -6.3974E-01  6.5312E-01
ac ID =   33377                -9.1264E-01  2.8198E+00  1.7110E-01  2.9688E+00
                               -3.7361E-01  1.1058E+01 -4.7407E+01  2.5147E+03

           1    5.80042E+00     1.0635E-01  9.9102E-03 -6.3031E-01  6.3929E-01
ac ID =   33377                -7.7504E-01  2.5764E+00  4.2886E-01  2.7244E+00
                               -3.7362E-01  1.1091E+01 -4.7418E+01  2.5147E+03

           1    5.90041E+00     1.0136E-01  1.7939E-02 -6.8039E-01  6.8813E-01
ac ID =   33377                -1.0911E+00  2.7904E+00 -1.0577E-01  2.9980E+00
                               -3.7353E-01  1.1126E+01 -4.7429E+01  2.5147E+03

           1    6.00040E+00     9.3105E-02  4.1500E-03 -7.3963E-01  7.4548E-01
ac ID =   33377                -8.7284E-01  2.9758E+00 -5.5865E-01  3.1511E+00
                               -3.7337E-01  1.1163E+01 -4.7439E+01  2.5147E+03

           1    6.10039E+00     1.1256E-01  1.4614E-02 -7.5631E-01  7.6478E-01
ac ID =   33377                -1.0560E+00  2.4576E+00 -2.9473E-01  2.6911E+00
                               -3.7321E-01  1.1202E+01 -4.7449E+01  2.5147E+03

           1    6.20038E+00     9.5290E-02  2.5673E-02 -7.2004E-01  7.2677E-01
ac ID =   33377                -4.7127E-01  2.4811E+00 -2.5330E-01  2.5381E+00
                               -3.7312E-01  1.1244E+01 -4.7459E+01  2.5147E+03

           1    6.30037E+00     7.9616E-02 -1.9303E-02 -7.1473E-01  7.1941E-01
ac ID =   33377                -3.1952E-01  1.8253E+00  4.7350E-01  1.9126E+00
                               -3.7288E-01  1.1287E+01 -4.7468E+01  2.5147E+03

           1    6.40036E+00     1.5029E-01  1.6904E-02 -9.0085E-01  9.1345E-01
ac ID =   33377                -5.2385E-01  2.9785E+00 -3.0831E-01  3.0399E+00
                               -3.7280E-01  1.1331E+01 -4.7477E+01  2.5147E+03

           1    6.50035E+00     1.3069E-01  1.3009E-02 -8.8579E-01  8.9547E-01
ac ID =   33377                -6.0405E-01  2.3049E+00 -3.8034E-01  2.4129E+00
                               -3.7265E-01  1.1378E+01 -4.7486E+01  2.5147E+03

           1    6.60034E+00     8.1465E-02 -2.3039E-02 -8.6122E-01  8.6537E-01
ac ID =   33377                -1.8766E-02  1.3785E+00  8.5163E-01  1.6205E+00
                               -3.7250E-01  1.1426E+01 -4.7495E+01  2.5147E+03

           1    6.70033E+00     8.6669E-02 -3.5634E-03 -8.8232E-01  8.8657E-01
ac ID =   33377                 2.6700E-01  1.9505E+00  4.6725E-01  2.0234E+00
                               -3.7263E-01  1.1476E+01 -4.7503E+01  2.5147E+03

           1    6.80032E+00     1.1085E-01 -3.1870E-03 -9.2928E-01  9.3587E-01
ac ID =   33377                -1.0206E+00  1.4002E+00 -4.6673E-01  1.7944E+00
                               -3.7279E-01  1.1527E+01 -4.7511E+01  2.5147E+03

           1    6.90031E+00     1.3990E-01 -1.4987E-02 -1.0637E+00  1.0730E+00
ac ID =   33377                -4.7849E-01  2.8594E+00 -1.5143E+00  3.2709E+00
                               -3.7311E-01  1.1581E+01 -4.7519E+01  2.5147E+03

           1    7.00030E+00     1.1047E-01 -5.7849E-02 -9.9681E-01  1.0046E+00
ac ID =   33377                 5.5913E-02  1.9744E+00  2.3269E-01  1.9889E+00
                               -3.7334E-01  1.1636E+01 -4.7527E+01  2.5147E+03

           1    7.10029E+00     1.1900E-01  9.8780E-04 -1.0381E+00  1.0449E+00
ac ID =   33377                -8.5783E-02  2.1798E+00  1.0934E+00  2.4402E+00
                               -3.7397E-01  1.1693E+01 -4.7534E+01  2.5147E+03

           1    7.20028E+00     1.7791E-01  6.4420E-03 -1.1357E+00  1.1496E+00
ac ID =   33377                -6.9850E-02  3.0722E+00  1.3277E+00  3.3475E+00
                               -3.7465E-01  1.1752E+01 -4.7540E+01  2.5147E+03

           1    7.30027E+00     1.6038E-01  2.2605E-03 -1.1844E+00  1.1952E+00
ac ID =   33377                -2.0040E-01  3.1223E+00 -3.6639E-01  3.1501E+00
                               -3.7536E-01  1.1813E+01 -4.7546E+01  2.5147E+03

           1    7.40026E+00     1.9558E-01 -1.5291E-02 -1.2536E+00  1.2689E+00
ac ID =   33377                 1.7822E-01  3.4680E+00 -1.7735E+00  3.8992E+00
                               -3.7609E-01  1.1876E+01 -4.7552E+01  2.5147E+03

           1    7.50025E+00     2.3850E-01  2.7243E-02 -1.2670E+00  1.2896E+00
ac ID =   33377                -5.8386E-01  4.4517E+00 -3.2355E-01  4.5014E+00
                               -3.7685E-01  1.1942E+01 -4.7556E+01  2.5147E+03

           1    7.60024E+00     1.9568E-01 -4.8316E-02 -1.3215E+00  1.3368E+00
ac ID =   33377                 5.2278E-01  4.2832E+00  2.1842E+00  4.8363E+00
                               -3.7751E-01  1.2010E+01 -4.7560E+01  2.5147E+03

           1    7.70023E+00     2.0553E-01  3.6327E-02 -1.3760E+00  1.3918E+00
ac ID =   33377                -6.4492E-01  4.3328E+00  1.3344E+00  4.5793E+00
                               -3.7828E-01  1.2081E+01 -4.7563E+01  2.5147E+03

           1    7.80022E+00     2.2126E-01 -5.9634E-02 -1.3981E+00  1.4167E+00
ac ID =   33377                -3.0086E-01  4.8060E+00 -9.2933E-01  4.9043E+00
                               -3.7888E-01  1.2154E+01 -4.7566E+01  2.5147E+03

           1    7.90021E+00     1.9778E-01  1.7995E-02 -1.4299E+00  1.4437E+00
ac ID =   33377                 1.3918E-01  4.9707E+00 -1.8387E+00  5.3017E+00
                               -3.7977E-01  1.2229E+01 -4.7568E+01  2.5147E+03

           1    8.00020E+00     2.3190E-01 -7.9336E-03 -1.4513E+00  1.4697E+00
ac ID =   33377                 1.8796E-01  5.5553E+00 -5.8519E-01  5.5892E+00
                               -3.8051E-01  1.2307E+01 -4.7569E+01  2.5147E+03

           1    8.10019E+00     2.5166E-01  3.0554E-02 -1.5154E+00  1.5365E+00
ac ID =   33377                 7.4285E-02  6.4695E+00  2.5483E+00  6.9536E+00
                               -3.8126E-01  1.2388E+01 -4.7570E+01  2.5147E+03

           1    8.20018E+00     2.7511E-01 -3.6841E-02 -1.6258E+00  1.6493E+00
ac ID =   33377                 8.3701E-01  6.5205E+00  1.9191E+00  6.8483E+00
                               -3.8196E-01  1.2470E+01 -4.7570E+01  2.5147E+03

           1    8.30017E+00     2.7028E-01  1.3748E-03 -1.6254E+00  1.6477E+00
ac ID =   33377                 7.5519E-01  7.3214E+00 -1.1430E+00  7.4484E+00
                               -3.8305E-01  1.2555E+01 -4.7570E+01  2.5147E+03

           1    8.40016E+00     2.8928E-01  3.1276E-02 -1.5910E+00  1.6174E+00
ac ID =   33377                -5.9820E-01  7.2463E+00 -5.4374E-01  7.2913E+00
                               -3.8393E-01  1.2642E+01 -4.7568E+01  2.5147E+03

           1    8.50015E+00     2.6438E-01 -3.6881E-02 -1.6886E+00  1.7095E+00
ac ID =   33377                 2.8332E-01  8.5277E+00 -1.6846E-01  8.5341E+00
                               -3.8488E-01  1.2732E+01 -4.7566E+01  2.5147E+03

           1    8.60014E+00     2.7817E-01 -3.0544E-02 -1.7555E+00  1.7777E+00
ac ID =   33377                 7.9390E-01  8.8566E+00 -9.8332E-01  8.9463E+00
                               -3.8610E-01  1.2823E+01 -4.7563E+01  2.5147E+03

           1    8.70013E+00     2.6062E-01 -2.6741E-03 -1.7838E+00  1.8027E+00
ac ID =   33377                -8.4490E-01  9.5988E+00 -1.2427E+00  9.7157E+00
                               -3.8735E-01  1.2917E+01 -4.7559E+01  2.5147E+03

           1    8.80012E+00     2.7512E-01  2.2909E-02 -1.8040E+00  1.8250E+00
ac ID =   33377                -4.8787E-02  9.0163E+00 -2.2322E-02  9.0165E+00
                               -3.8856E-01  1.3012E+01 -4.7553E+01  2.5147E+03

           1    8.90011E+00     3.0592E-01 -6.3306E-02 -1.8500E+00  1.8762E+00
ac ID =   33377                 6.7562E-01  1.0173E+01  4.5413E-01  1.0206E+01
                               -3.8964E-01  1.3110E+01 -4.7547E+01  2.5147E+03

           1    9.00010E+00     3.3136E-01  1.2985E-02 -1.9536E+00  1.9815E+00
ac ID =   33377                 3.5382E-01  1.0892E+01  4.8934E-01  1.0909E+01
                               -3.9117E-01  1.3210E+01 -4.7539E+01  2.5147E+03

           1    9.10009E+00     3.4306E-01  4.7855E-02 -1.9533E+00  1.9837E+00
ac ID =   33377                -9.3767E-01  1.0896E+01  5.5735E-01  1.0950E+01
                               -3.9241E-01  1.3311E+01 -4.7530E+01  2.5147E+03

           1    9.20008E+00     3.3159E-01  2.2292E-03 -1.9244E+00  1.9528E+00
ac ID =   33377                 4.9620E-01  1.1197E+01  2.7437E-01  1.1211E+01
                               -3.9369E-01  1.3415E+01 -4.7520E+01  2.5147E+03

           1    9.30007E+00     3.3446E-01 -5.4240E-02 -2.0088E+00  2.0372E+00
ac ID =   33377                 5.6101E-01  1.1094E+01  1.3504E+00  1.1190E+01
                               -3.9478E-01  1.3521E+01 -4.7508E+01  2.5147E+03

           1    9.40006E+00     3.3150E-01  6.7177E-02 -2.1379E+00  2.1645E+00
ac ID =   33377                -1.1044E+00  1.1340E+01 -3.4468E-02  1.1394E+01
                               -3.9623E-01  1.3628E+01 -4.7495E+01  2.5147E+03

           1    9.50005E+00     3.0022E-01  4.5361E-04 -2.0967E+00  2.1181E+00
ac ID =   33377                -1.1835E+00  1.1229E+01 -6.6619E-01  1.1311E+01
                               -3.9715E-01  1.3738E+01 -4.7479E+01  2.5147E+03

           1    9.60004E+00     3.4706E-01 -3.1059E-02 -2.1573E+00  2.1852E+00
ac ID =   33377                 5.6122E-01  1.2445E+01 -9.8935E-01  1.2496E+01
                               -3.9837E-01  1.3849E+01 -4.7463E+01  2.5147E+03

           1    9.70003E+00     3.5634E-01  1.2802E-02 -2.1738E+00  2.2028E+00
ac ID =   33377                -2.6954E-01  1.2573E+01 -1.2357E-01  1.2576E+01
                               -3.9960E-01  1.3963E+01 -4.7445E+01  2.5147E+03

           1    9.80002E+00     3.5233E-01  1.6081E-02 -2.2457E+00  2.2733E+00
ac ID =   33377                -7.0235E-01  1.3253E+01  9.0330E-01  1.3302E+01
                               -4.0077E-01  1.4078E+01 -4.7425E+01  2.5147E+03

           1    9.90001E+00     3.5272E-01 -1.5137E-02 -2.2772E+00  2.3044E+00
ac ID =   33377                 1.1002E+00  1.3085E+01  2.1520E-01  1.3132E+01
                               -4.0198E-01  1.4195E+01 -4.7404E+01  2.5147E+03

           1    1.00005E+01     3.9120E-01 -1.1512E-02 -2.2496E+00  2.2834E+00
ac ID =   33377                -2.8415E-02  1.4004E+01  2.1342E-01  1.4005E+01
                               -4.0319E-01  1.4315E+01 -4.7381E+01  2.5147E+03

           1    1.01005E+01     3.4012E-01  3.1878E-02 -2.3075E+00  2.3327E+00
ac ID =   33377                -2.9028E-01  1.3515E+01 -1.7516E-01  1.3519E+01
                               -4.0441E-01  1.4436E+01 -4.7356E+01  2.5147E+03

           1    1.02005E+01     3.8414E-01 -4.7284E-03 -2.4127E+00  2.4431E+00
ac ID =   33377                -3.6664E-01  1.4778E+01  9.6599E-01  1.4814E+01
                               -4.0543E-01  1.4558E+01 -4.7330E+01  2.5147E+03

           1    1.03005E+01     3.4180E-01 -5.2568E-03 -2.4559E+00  2.4796E+00
ac ID =   33377                 7.7652E-01  1.4327E+01  6.9889E-01  1.4365E+01
                               -4.0678E-01  1.4682E+01 -4.7301E+01  2.5147E+03

           1    1.04005E+01     3.4635E-01  1.7291E-02 -2.4394E+00  2.4639E+00
ac ID =   33377                -1.3815E+00  1.4825E+01  3.2278E-02  1.4889E+01
                               -4.0810E-01  1.4807E+01 -4.7271E+01  2.5147E+03

           1    1.05004E+01     3.7934E-01  3.2216E-02 -2.4172E+00  2.4470E+00
ac ID =   33377                -4.5611E-01  1.5161E+01 -2.0148E-01  1.5169E+01
                               -4.0933E-01  1.4934E+01 -4.7239E+01  2.5147E+03

           1    1.06004E+01     3.6017E-01 -5.8101E-02 -2.5217E+00  2.5480E+00
ac ID =   33377                 9.3853E-01  1.5103E+01  1.2578E-02  1.5132E+01
                               -4.1053E-01  1.5062E+01 -4.7204E+01  2.5147E+03

           1    1.07004E+01     4.2686E-01  2.3337E-02 -2.5610E+00  2.5965E+00
ac ID =   33377                 6.3012E-01  1.6579E+01  4.1088E-02  1.6591E+01
                               -4.1205E-01  1.5191E+01 -4.7168E+01  2.5147E+03

           1    1.08004E+01     3.7232E-01  4.5144E-02 -2.5455E+00  2.5730E+00
ac ID =   33377                -1.0336E+00  1.5239E+01  9.4270E-01  1.5303E+01
                               -4.1308E-01  1.5322E+01 -4.7129E+01  2.5147E+03

           1    1.09004E+01     4.0006E-01 -4.4315E-02 -2.5620E+00  2.5934E+00
ac ID =   33377                 1.3128E+00  1.5695E+01 -3.6421E-01  1.5754E+01
                               -4.1430E-01  1.5455E+01 -4.7089E+01  2.5147E+03

           1    1.10004E+01     4.1892E-01 -7.1087E-03 -2.5900E+00  2.6237E+00
ac ID =   33377                 8.4556E-01  1.6386E+01 -1.8257E-01  1.6409E+01
                               -4.1551E-01  1.5589E+01 -4.7046E+01  2.5147E+03

           1    1.11004E+01     4.0778E-01  4.7291E-02 -2.7061E+00  2.7371E+00
ac ID =   33377                -1.2724E+00  1.6003E+01  1.6677E-01  1.6054E+01
                               -4.1662E-01  1.5724E+01 -4.7002E+01  2.5147E+03

           1    1.12004E+01     4.2387E-01  4.1766E-02 -2.6047E+00  2.6393E+00
ac ID =   33377                -8.9585E-01  1.7038E+01  2.2034E-01  1.7062E+01
                               -4.1753E-01  1.5862E+01 -4.6954E+01  2.5147E+03

           1    1.13004E+01     3.9165E-01 -7.3450E-02 -2.5984E+00  2.6288E+00
ac ID =   33377                 1.5591E+00  1.6548E+01  1.2676E-01  1.6622E+01
                               -4.1843E-01  1.6000E+01 -4.6905E+01  2.5147E+03

           1    1.14004E+01     4.3396E-01  3.2112E-02 -2.6680E+00  2.7033E+00
ac ID =   33377                 1.1557E-01  1.7469E+01 -3.6590E-01  1.7473E+01
                               -4.1974E-01  1.6140E+01 -4.6853E+01  2.5147E+03

           1    1.15003E+01     4.1519E-01  6.8701E-02 -2.6588E+00  2.6919E+00
ac ID =   33377                -1.7584E+00  1.7079E+01  3.5858E-02  1.7169E+01
                               -4.2065E-01  1.6282E+01 -4.6798E+01  2.5147E+03

           1    1.16003E+01     4.3899E-01 -6.9487E-02 -2.6987E+00  2.7350E+00
ac ID =   33377                 2.5222E+00  1.8001E+01 -9.9734E-01  1.8204E+01
                               -4.2158E-01  1.6425E+01 -4.6741E+01  2.5147E+03

           1    1.17003E+01     4.1328E-01 -1.8464E-02 -2.6607E+00  2.6927E+00
ac ID =   33377                 8.5422E-01  1.7242E+01  5.7931E-01  1.7272E+01
                               -4.2253E-01  1.6569E+01 -4.6681E+01  2.5147E+03

           1    1.18003E+01     4.6724E-01  5.7703E-02 -2.6689E+00  2.7101E+00
ac ID =   33377                -8.9357E-01  1.9380E+01  1.2387E+00  1.9440E+01
                               -4.2354E-01  1.6714E+01 -4.6619E+01  2.5147E+03

           1    1.19003E+01     4.5130E-01  2.0090E-02 -2.7466E+00  2.7835E+00
ac ID =   33377                 8.6513E-01  1.9130E+01  3.1535E-01  1.9152E+01
                               -4.2429E-01  1.6861E+01 -4.6555E+01  2.5147E+03

           1    1.20003E+01     4.2084E-01 -6.4811E-02 -2.7333E+00  2.7663E+00
ac ID =   33377                 1.2660E+00  1.8968E+01 -7.6889E-01  1.9026E+01
                               -4.2485E-01  1.7009E+01 -4.6488E+01  2.5147E+03

           1    1.21003E+01     4.6293E-01  6.3032E-02 -2.6943E+00  2.7345E+00
ac ID =   33377                -4.3147E-01  2.0640E+01 -1.8281E+00  2.0726E+01
                               -4.2570E-01  1.7158E+01 -4.6418E+01  2.5147E+03

           1    1.22003E+01     4.0596E-01  1.8617E-03 -2.6333E+00  2.6644E+00
ac ID =   33377                -6.3201E-01  2.0048E+01 -3.5708E-01  2.0061E+01
                               -4.2598E-01  1.7308E+01 -4.6346E+01  2.5147E+03

           1    1.23003E+01     4.0636E-01 -3.9386E-02 -2.6627E+00  2.6939E+00
ac ID =   33377                 2.5337E+00  1.9678E+01  3.6407E-01  1.9844E+01
                               -4.2659E-01  1.7459E+01 -4.6271E+01  2.5147E+03

           1    1.24003E+01     4.4609E-01  3.3926E-02 -2.6766E+00  2.7138E+00
ac ID =   33377                 4.9261E-01  2.1088E+01  1.0092E+00  2.1118E+01
                               -4.2703E-01  1.7610E+01 -4.6194E+01  2.5147E+03

           1    1.25002E+01     4.2078E-01  2.3738E-02 -2.5964E+00  2.6304E+00
ac ID =   33377                 2.7709E-01  2.0812E+01 -8.9730E-01  2.0833E+01
                               -4.2737E-01  1.7762E+01 -4.6114E+01  2.5147E+03

           1    1.26002E+01     3.8366E-01 -8.4675E-02 -2.5135E+00  2.5440E+00
ac ID =   33377                 2.6370E+00  1.9470E+01 -6.5827E-01  1.9659E+01
                               -4.2758E-01  1.7915E+01 -4.6031E+01  2.5147E+03

           1    1.27002E+01     4.9445E-01  1.5897E-02 -2.6368E+00  2.6828E+00
ac ID =   33377                 1.1532E+00  2.2514E+01 -2.5356E-02  2.2544E+01
                               -4.2809E-01  1.8067E+01 -4.5945E+01  2.5147E+03

           1    1.28002E+01     4.5646E-01  3.5502E-02 -2.6181E+00  2.6578E+00
ac ID =   33377                -4.8727E-01  2.2564E+01 -1.8405E-01  2.2570E+01
                               -4.2834E-01  1.8221E+01 -4.5857E+01  2.5147E+03

           1    1.29002E+01     4.1772E-01 -4.9492E-02 -2.4813E+00  2.5167E+00
ac ID =   33377                 2.0915E+00  2.2050E+01  9.9551E-02  2.2149E+01
                               -4.2853E-01  1.8375E+01 -4.5767E+01  2.5147E+03

           1    1.30002E+01     4.2058E-01 -1.9927E-02 -2.4608E+00  2.4965E+00
ac ID =   33377                 1.6483E+00  2.2161E+01 -2.6182E-01  2.2224E+01
                               -4.2912E-01  1.8529E+01 -4.5674E+01  2.5147E+03

           1    1.31002E+01     5.2405E-01  4.3293E-02 -2.5144E+00  2.5688E+00
ac ID =   33377                -4.6173E-01  2.4104E+01  5.3426E-01  2.4115E+01
                               -4.2961E-01  1.8683E+01 -4.5578E+01  2.5147E+03

           1    1.32002E+01     4.0158E-01  2.6326E-02 -2.5057E+00  2.5378E+00
ac ID =   33377                 2.7988E-01  2.2645E+01  1.1816E+00  2.2677E+01
                               -4.2974E-01  1.8839E+01 -4.5480E+01  2.5147E+03

           1    1.33002E+01     4.2291E-01 -1.3162E-01 -2.3913E+00  2.4319E+00
ac ID =   33377                 3.4292E+00  2.2588E+01 -2.6939E-01  2.2848E+01
                               -4.2996E-01  1.8994E+01 -4.5380E+01  2.5147E+03

           1    1.34002E+01     4.5770E-01  6.2101E-02 -2.3235E+00  2.3690E+00
ac ID =   33377                 5.2038E-01  2.4041E+01 -5.9871E-01  2.4054E+01
                               -4.3059E-01  1.9150E+01 -4.5277E+01  2.5147E+03

           1    1.35001E+01     4.9386E-01  3.6849E-02 -2.3706E+00  2.4218E+00
ac ID =   33377                 5.2186E-02  2.3538E+01  1.3344E-01  2.3538E+01
                               -4.3060E-01  1.9306E+01 -4.5172E+01  2.5147E+03

           1    1.36001E+01     4.1573E-01 -6.7216E-02 -2.3541E+00  2.3915E+00
ac ID =   33377                 2.6500E+00  2.3028E+01 -2.5870E-01  2.3182E+01
                               -4.3054E-01  1.9462E+01 -4.5065E+01  2.5147E+03

           1    1.37001E+01     4.1762E-01 -1.7834E-02 -2.2199E+00  2.2589E+00
ac ID =   33377                 7.8213E-01  2.2481E+01  1.8036E-01  2.2495E+01
                               -4.3057E-01  1.9618E+01 -4.4955E+01  2.5147E+03

           1    1.38001E+01     4.6718E-01  6.3364E-02 -2.1418E+00  2.1931E+00
ac ID =   33377                 8.3953E-02  2.2825E+01  4.7290E-01  2.2830E+01
                               -4.3059E-01  1.9774E+01 -4.4843E+01  2.5147E+03

           1    1.39001E+01     4.5179E-01 -2.7214E-02 -2.1429E+00  2.1902E+00
ac ID =   33377                 1.0261E+00  2.2401E+01 -1.4809E-01  2.2425E+01
                               -4.3017E-01  1.9929E+01 -4.4728E+01  2.5147E+03

           1    1.40001E+01     3.8377E-01 -2.4506E-02 -2.1345E+00  2.1689E+00
ac ID =   33377                 1.6405E+00  2.1790E+01 -8.9251E-01  2.1870E+01
                               -4.2997E-01  2.0085E+01 -4.4611E+01  2.5147E+03

           1    1.41001E+01     4.1928E-01  3.0996E-02 -2.0394E+00  2.0823E+00
ac ID =   33377                -3.4360E-01  2.1461E+01  2.3989E-01  2.1465E+01
                               -4.2962E-01  2.0240E+01 -4.4492E+01  2.5147E+03

           1    1.42001E+01     4.5320E-01 -1.1081E-02 -1.9217E+00  1.9744E+00
ac ID =   33377                 1.1116E+00  2.1128E+01 -3.3999E-01  2.1160E+01
                               -4.2915E-01  2.0395E+01 -4.4371E+01  2.5147E+03

           1    1.43001E+01     3.5839E-01 -5.5157E-02 -1.8904E+00  1.9249E+00
ac ID =   33377                 3.1963E+00  2.0396E+01 -9.8286E-01  2.0669E+01
                               -4.2874E-01  2.0550E+01 -4.4248E+01  2.5147E+03

           1    1.44001E+01     4.0115E-01  1.4972E-02 -1.8817E+00  1.9241E+00
ac ID =   33377                -3.6406E-01  2.0000E+01  8.2027E-01  2.0020E+01
                               -4.2829E-01  2.0705E+01 -4.4122E+01  2.5147E+03

           1    1.45000E+01     4.0686E-01  1.4954E-02 -1.7899E+00  1.8356E+00
ac ID =   33377                 8.7989E-01  2.0311E+01 -1.5878E-01  2.0330E+01
                               -4.2789E-01  2.0860E+01 -4.3995E+01  2.5147E+03

           1    1.46000E+01     3.6930E-01 -5.4085E-02 -1.6711E+00  1.7123E+00
ac ID =   33377                 2.3855E+00  1.9369E+01  5.6740E-01  1.9523E+01
                               -4.2725E-01  2.1014E+01 -4.3866E+01  2.5147E+03

           1    1.47000E+01     3.4229E-01  1.2513E-02 -1.6813E+00  1.7158E+00
ac ID =   33377                 5.2515E-01  1.7836E+01  7.0185E-01  1.7857E+01
                               -4.2688E-01  2.1169E+01 -4.3735E+01  2.5147E+03

           1    1.48005E+01     4.0827E-01  2.8826E-02 -1.6731E+00  1.7225E+00
ac ID =   33377                -3.5555E-01  1.8465E+01  2.3458E-01  1.8470E+01
                               -4.2646E-01  2.1323E+01 -4.3601E+01  2.5147E+03

           1    1.49005E+01     3.7326E-01 -1.0635E-02 -1.5179E+00  1.5632E+00
ac ID =   33377                 1.6378E+00  1.7874E+01  1.4140E-01  1.7950E+01
                               -4.2600E-01  2.1478E+01 -4.3467E+01  2.5147E+03

           1    1.50005E+01     2.6770E-01 -9.1252E-02 -1.4794E+00  1.5062E+00
ac ID =   33377                 2.1914E+00  1.5383E+01 -1.7241E-01  1.5539E+01
                               -4.2535E-01  2.1631E+01 -4.3331E+01  2.5147E+03

           1    1.51005E+01     3.6100E-01  8.0947E-02 -1.4686E+00  1.5145E+00
ac ID =   33377                -5.4419E-01  1.6851E+01  1.0117E+00  1.6890E+01
                               -4.2511E-01  2.1785E+01 -4.3193E+01  2.5147E+03

           1    1.52005E+01     3.7648E-01  7.0145E-03 -1.3435E+00  1.3952E+00
ac ID =   33377                 2.3193E+00  1.6435E+01  4.6104E-01  1.6604E+01
                               -4.2455E-01  2.1938E+01 -4.3055E+01  2.5147E+03

           1    1.53005E+01     2.7704E-01 -5.7977E-02 -1.2653E+00  1.2966E+00
ac ID =   33377                 1.7362E+00  1.4237E+01  1.7373E-01  1.4344E+01
                               -4.2371E-01  2.2092E+01 -4.2914E+01  2.5147E+03

           1    1.54005E+01     3.0205E-01  2.6514E-03 -1.2168E+00  1.2537E+00
ac ID =   33377                 7.7247E-01  1.4313E+01 -2.9043E-01  1.4337E+01
                               -4.2324E-01  2.2245E+01 -4.2773E+01  2.5147E+03

           1    1.55004E+01     3.2375E-01  8.9973E-02 -1.1493E+00  1.1975E+00
ac ID =   33377                -4.6675E-01  1.4655E+01 -5.6611E-01  1.4673E+01
                               -4.2272E-01  2.2399E+01 -4.2631E+01  2.5147E+03

           1    1.56004E+01     2.7773E-01 -6.5227E-02 -1.0478E+00  1.0860E+00
ac ID =   33377                 1.7685E+00  1.2335E+01 -5.4263E-01  1.2473E+01
                               -4.2154E-01  2.2552E+01 -4.2487E+01  2.5147E+03

           1    1.57004E+01     2.5181E-01  9.5171E-03 -1.0260E+00  1.0565E+00
ac ID =   33377                 7.9668E-01  1.2075E+01  6.5471E-01  1.2119E+01
                               -4.2072E-01  2.2706E+01 -4.2343E+01  2.5147E+03

           1    1.58004E+01     3.2366E-01  3.6464E-02 -9.3264E-01  9.8788E-01
ac ID =   33377                -1.9164E-01  1.2482E+01  5.2325E-01  1.2494E+01
                               -4.1986E-01  2.2859E+01 -4.2198E+01  2.5147E+03

           1    1.59004E+01     2.3868E-01 -2.8031E-02 -8.0906E-01  8.4400E-01
ac ID =   33377                 1.4058E+00  1.1475E+01  2.4798E-01  1.1563E+01
                               -4.1869E-01  2.3013E+01 -4.2052E+01  2.5147E+03

           1    1.60004E+01     2.5153E-01 -6.9881E-03 -7.7852E-01  8.1817E-01
ac ID =   33377                 1.9411E+00  1.1701E+01  2.7061E-01  1.1864E+01
                               -4.1757E-01  2.3166E+01 -4.1905E+01  2.5147E+03

           1    1.61004E+01     2.5355E-01  2.5512E-02 -6.6671E-01  7.1375E-01
ac ID =   33377                 4.1855E-01  1.1009E+01 -1.3685E-01  1.1018E+01
                               -4.1628E-01  2.3320E+01 -4.1758E+01  2.5147E+03

           1    1.62004E+01     2.4782E-01 -6.8290E-03 -6.3898E-01  6.8539E-01
ac ID =   33377                 9.1005E-01  1.0402E+01  3.9117E-01  1.0449E+01
                               -4.1482E-01  2.3474E+01 -4.1611E+01  2.5147E+03

           1    1.63004E+01     2.3358E-01 -1.7676E-02 -5.7822E-01  6.2386E-01
ac ID =   33377                 1.9364E+00  1.0512E+01  3.2546E-01  1.0693E+01
                               -4.1333E-01  2.3628E+01 -4.1463E+01  2.5147E+03

           1    1.64004E+01     2.5795E-01 -2.5453E-02 -4.9190E-01  5.5601E-01
ac ID =   33377                 4.0275E-01  1.1128E+01  7.3542E-01  1.1160E+01
                               -4.1180E-01  2.3782E+01 -4.1315E+01  2.5147E+03

           1    1.65003E+01     2.2944E-01  3.8598E-02 -4.1580E-01  4.7647E-01
ac ID =   33377                 3.0026E-01  1.1260E+01 -1.4822E-01  1.1265E+01
                               -4.1048E-01  2.3936E+01 -4.1167E+01  2.5147E+03

           1    1.66003E+01     2.5204E-01 -5.6281E-02 -4.2681E-01  4.9886E-01
ac ID =   33377                 2.0655E+00  1.1466E+01  1.8772E-01  1.1652E+01
                               -4.0881E-01  2.4090E+01 -4.1019E+01  2.5147E+03

           1    1.67003E+01     2.2242E-01 -7.5425E-03 -3.5561E-01  4.1951E-01
ac ID =   33377                 1.1185E+00  1.1415E+01  4.6114E-01  1.1479E+01
                               -4.0740E-01  2.4244E+01 -4.0871E+01  2.5147E+03

           1    1.68003E+01     2.0163E-01  6.5924E-03 -1.6832E-01  2.6274E-01
ac ID =   33377                 1.0463E+00  9.5661E+00 -6.0873E-01  9.6424E+00
                               -4.0596E-01  2.4399E+01 -4.0724E+01  2.5147E+03

           1    1.69003E+01     2.3117E-01 -1.2837E-03 -1.4914E-01  2.7511E-01
ac ID =   33377                 1.6465E+00  1.1493E+01 -2.2458E-01  1.1612E+01
                               -4.0442E-01  2.4554E+01 -4.0577E+01  2.5147E+03

           1    1.70003E+01     2.8155E-01 -4.4952E-02 -1.2323E-01  3.1061E-01
ac ID =   33377                 1.8684E+00  1.2077E+01 -4.6574E-02  1.2221E+01
                               -4.0277E-01  2.4708E+01 -4.0430E+01  2.5147E+03

           1    1.71003E+01     2.1693E-01  2.0924E-02 -1.3595E-01  2.5686E-01
ac ID =   33377                 1.0463E+00  1.2191E+01 -3.4062E-01  1.2240E+01
                               -4.0131E-01  2.4863E+01 -4.0284E+01  2.5147E+03

           1    1.72003E+01     2.1184E-01  1.7008E-02  4.9258E-02  2.1815E-01
ac ID =   33377                 2.6447E-01  1.2511E+01  1.1483E+00  1.2566E+01
                               -3.9971E-01  2.5019E+01 -4.0139E+01  2.5147E+03

           1    1.73003E+01     2.9186E-01 -3.6743E-02  1.6481E-01  3.3719E-01
ac ID =   33377                 2.1164E+00  1.3009E+01  4.3651E-01  1.3187E+01
                               -3.9814E-01  2.5174E+01 -3.9994E+01  2.5147E+03

           1    1.74003E+01     2.0471E-01 -3.4158E-02  1.6643E-01  2.6603E-01
ac ID =   33377                 1.4604E+00  1.2822E+01  8.4451E-01  1.2933E+01
                               -3.9656E-01  2.5329E+01 -3.9851E+01  2.5147E+03

           1    1.75002E+01     2.2244E-01  4.6619E-02  1.0864E-01  2.5190E-01
ac ID =   33377                 1.0285E+00  1.2603E+01 -8.0651E-01  1.2670E+01
                               -3.9535E-01  2.5484E+01 -3.9707E+01  2.5147E+03

           1    1.76002E+01     2.4273E-01 -1.3518E-02  2.7213E-01  3.6491E-01
ac ID =   33377                 8.0639E-01  1.3874E+01 -1.9618E-02  1.3898E+01
                               -3.9371E-01  2.5640E+01 -3.9566E+01  2.5147E+03

           1    1.77002E+01     2.8486E-01 -6.3009E-02  3.5199E-01  4.5717E-01
ac ID =   33377                 2.6381E+00  1.3379E+01 -3.4148E-01  1.3641E+01
                               -3.9202E-01  2.5796E+01 -3.9425E+01  2.5147E+03

           1    1.78002E+01     1.4962E-01 -3.8896E-03  3.9296E-01  4.2049E-01
ac ID =   33377                 1.3671E+00  1.1201E+01 -4.8460E-01  1.1294E+01
                               -3.9048E-01  2.5952E+01 -3.9286E+01  2.5147E+03

           1    1.79002E+01     2.3778E-01  3.7292E-02  3.8171E-01  4.5125E-01
ac ID =   33377                 2.5177E-01  1.2547E+01  8.9564E-02  1.2550E+01
                               -3.8900E-01  2.6108E+01 -3.9148E+01  2.5147E+03

           1    1.80002E+01     2.6199E-01 -1.1322E-02  4.7031E-01  5.3848E-01
ac ID =   33377                 1.6235E+00  1.2232E+01 -4.3764E-02  1.2339E+01
                               -3.8719E-01  2.6264E+01 -3.9012E+01  2.5147E+03

           1    1.81002E+01     1.7375E-01 -4.1725E-02  5.6334E-01  5.9100E-01
ac ID =   33377                 1.3956E+00  1.2308E+01  4.6919E-01  1.2396E+01
                               -3.8531E-01  2.6421E+01 -3.8878E+01  2.5147E+03

           1    1.82002E+01     2.0961E-01  1.5191E-02  5.9901E-01  6.3481E-01
ac ID =   33377                 1.0915E+00  1.2247E+01 -6.0984E-02  1.2296E+01
                               -3.8377E-01  2.6577E+01 -3.8745E+01  2.5147E+03

           1    1.83002E+01     2.0829E-01  3.7124E-02  5.5828E-01  5.9702E-01
ac ID =   33377                 4.3894E-01  1.2585E+01  1.0451E+00  1.2636E+01
                               -3.8197E-01  2.6735E+01 -3.8615E+01  2.5147E+03

           1    1.84002E+01     2.1571E-01 -6.0378E-02  6.5797E-01  6.9506E-01
ac ID =   33377                 2.3366E+00  1.0756E+01 -2.3507E-01  1.1009E+01
                               -3.7984E-01  2.6892E+01 -3.8485E+01  2.5147E+03

           1    1.85001E+01     1.5073E-01  8.2442E-03  7.3382E-01  7.4918E-01
ac ID =   33377                 1.1441E+00  9.6266E+00 -3.5644E-01  9.7009E+00
                               -3.7804E-01  2.7050E+01 -3.8359E+01  2.5147E+03

           1    1.86001E+01     2.1304E-01 -3.4208E-03  7.4727E-01  7.7706E-01
ac ID =   33377                 1.1858E+00  1.0832E+01 -5.2074E-01  1.0909E+01
                               -3.7600E-01  2.7208E+01 -3.8234E+01  2.5147E+03

           1    1.87001E+01     1.4967E-01  1.4575E-03  7.4436E-01  7.5926E-01
ac ID =   33377                 1.0606E+00  9.1671E+00 -1.0905E-01  9.2289E+00
                               -3.7368E-01  2.7366E+01 -3.8110E+01  2.5147E+03

           1    1.88001E+01     1.7638E-01 -3.0776E-02  7.6850E-01  7.8908E-01
ac ID =   33377                 1.8804E+00  1.0236E+01  3.5536E-02  1.0407E+01
                               -3.7153E-01  2.7525E+01 -3.7990E+01  2.5147E+03

           1    1.89001E+01     1.8711E-01  2.3155E-02  8.7013E-01  8.9032E-01
ac ID =   33377                 5.6386E-01  9.0597E+00  2.4397E-01  9.0805E+00
                               -3.6928E-01  2.7683E+01 -3.7871E+01  2.5147E+03

           1    1.90001E+01     1.3289E-01  2.3523E-02  8.7684E-01  8.8716E-01
ac ID =   33377                 7.6160E-01  8.5376E+00  2.4085E-01  8.5749E+00
                               -3.6702E-01  2.7843E+01 -3.7754E+01  2.5147E+03

           1    1.91001E+01     1.9993E-01 -6.1349E-02  8.5269E-01  8.7796E-01
ac ID =   33377                 1.4026E+00  8.8831E+00 -4.5312E-01  9.0046E+00
                               -3.6452E-01  2.8002E+01 -3.7639E+01  2.5147E+03

           1    1.92001E+01     1.4147E-01  1.6002E-02  9.4234E-01  9.5303E-01
ac ID =   33377                 8.9975E-01  7.6046E+00  4.8081E-01  7.6727E+00
                               -3.6233E-01  2.8162E+01 -3.7527E+01  2.5147E+03

           1    1.93001E+01     1.6278E-01  1.0496E-02  9.4283E-01  9.5684E-01
ac ID =   33377                 9.4778E-01  7.9228E+00  9.8644E-01  8.0400E+00
                               -3.6011E-01  2.8322E+01 -3.7416E+01  2.5147E+03

           1    1.94001E+01     1.2842E-01  4.4229E-03  9.5417E-01  9.6279E-01
ac ID =   33377                 1.1816E+00  6.3119E+00  4.6903E-01  6.4387E+00
                               -3.5789E-01  2.8483E+01 -3.7308E+01  2.5147E+03

           1    1.95000E+01     1.0847E-01 -5.1961E-02  9.7559E-01  9.8297E-01
ac ID =   33377                 1.3910E+00  5.4097E+00  2.3309E-01  5.5905E+00
                               -3.5550E-01  2.8644E+01 -3.7202E+01  2.5147E+03

           1    1.96000E+01     1.4350E-01  3.7405E-02  9.9218E-01  1.0032E+00
ac ID =   33377                 3.0545E-01  5.5229E+00 -1.0618E+00  5.6323E+00
                               -3.5354E-01  2.8806E+01 -3.7099E+01  2.5147E+03

           1    1.97005E+01     6.7659E-02 -4.2525E-04  1.0327E+00  1.0349E+00
ac ID =   33377                 7.5636E-01  3.5646E+00 -2.1001E-02  3.6440E+00
                               -3.5121E-01  2.8969E+01 -3.6997E+01  2.5147E+03

           1    1.98005E+01     1.6363E-01 -8.9167E-03  1.0493E+00  1.0620E+00
ac ID =   33377                 1.1877E+00  5.2880E+00  1.3778E+00  5.5921E+00
                               -3.4883E-01  2.9131E+01 -3.6898E+01  2.5147E+03

           1    1.99005E+01     9.2076E-02  1.4717E-02  1.0185E+00  1.0227E+00
ac ID =   33377                 6.1090E-01  3.6249E+00  5.1305E-01  3.7116E+00
                               -3.4671E-01  2.9295E+01 -3.6801E+01  2.5147E+03

           1    2.00005E+01     6.2051E-02 -7.6708E-03  1.0765E+00  1.0783E+00
ac ID =   33377                 2.8329E-01  2.2879E+00 -1.6323E-01  2.3111E+00
                               -3.4438E-01  2.9458E+01 -3.6707E+01  2.5147E+03

           1    2.01005E+01     1.4619E-01  3.5497E-02  1.0758E+00  1.0863E+00
ac ID =   33377                -5.2420E-02  2.8082E+00  1.7409E-01  2.8141E+00
                               -3.4211E-01  2.9622E+01 -3.6615E+01  2.5147E+03

           1    2.02005E+01     5.4936E-02 -7.9878E-02  1.0874E+00  1.0917E+00
ac ID =   33377                 2.4422E+00  1.4146E+00 -5.8337E-01  2.8820E+00
                               -3.3983E-01  2.9787E+01 -3.6526E+01  2.5147E+03

           1    2.03005E+01     6.6923E-02  7.1506E-02  1.0911E+00  1.0955E+00
ac ID =   33377                -9.1624E-01  8.6514E-01  1.1408E+00  1.6999E+00
                               -3.3774E-01  2.9952E+01 -3.6438E+01  2.5147E+03

           1    2.04005E+01     8.9273E-02  9.0023E-03  1.0541E+00  1.0579E+00
ac ID =   33377                 8.0728E-01  1.3854E+00  4.8861E-01  1.6763E+00
                               -3.3533E-01  3.0118E+01 -3.6354E+01  2.5147E+03

           1    2.05004E+01     7.8882E-02 -6.6521E-02  1.0981E+00  1.1030E+00
ac ID =   33377                 1.7717E+00  1.0117E+00 -6.7669E-01  2.1495E+00
                               -3.3287E-01  3.0284E+01 -3.6272E+01  2.5147E+03

           1    2.06004E+01     6.6419E-02  6.0335E-02  1.0720E+00  1.0758E+00
ac ID =   33377                -5.3974E-01  1.2982E-01 -2.9853E-02  5.5593E-01
                               -3.3076E-01  3.0451E+01 -3.6192E+01  2.5147E+03

           1    2.07004E+01     8.5426E-02  1.4496E-02  1.0891E+00  1.0925E+00
ac ID =   33377                 4.1248E-01  6.9200E-01 -4.1454E-01  9.0601E-01
                               -3.2841E-01  3.0619E+01 -3.6115E+01  2.5147E+03

           1    2.08004E+01     1.0322E-01 -2.7269E-02  1.0826E+00  1.0878E+00
ac ID =   33377                 4.8422E-01  6.4894E-01  7.6732E-01  1.1155E+00
                               -3.2583E-01  3.0787E+01 -3.6039E+01  2.5147E+03

           1    2.09004E+01     4.2425E-02  2.2776E-02  1.0702E+00  1.0713E+00
ac ID =   33377                 4.9559E-01 -3.9569E-01  9.3167E-01  1.1270E+00
                               -3.2367E-01  3.0956E+01 -3.5967E+01  2.5147E+03

           1    2.10004E+01     1.0881E-01  2.3435E-02  1.0768E+00  1.0826E+00
ac ID =   33377                -7.8505E-02  5.2991E-01  6.2254E-02  5.3930E-01
                               -3.2119E-01  3.1125E+01 -3.5897E+01  2.5147E+03

           1    2.11004E+01     5.2877E-02 -1.1137E-02  1.0709E+00  1.0723E+00
ac ID =   33377                 4.5708E-01 -9.8103E-01 -3.7586E-01  1.1457E+00
                               -3.1863E-01  3.1294E+01 -3.5829E+01  2.5147E+03

           1    2.12004E+01     9.5272E-02 -3.4072E-02  1.0283E+00  1.0333E+00
ac ID =   33377                 1.0949E+00  1.6261E-02 -5.3374E-01  1.2182E+00
                               -3.1625E-01  3.1464E+01 -3.5763E+01  2.5147E+03

           1    2.13004E+01     1.0371E-01  3.3225E-02  1.0539E+00  1.0596E+00
ac ID =   33377                -2.2072E-01  2.8678E-02  1.5045E-01  2.6865E-01
                               -3.1383E-01  3.1635E+01 -3.5700E+01  2.5147E+03

           1    2.14004E+01     3.3446E-02 -2.2939E-03  1.0329E+00  1.0334E+00
ac ID =   33377                 1.2451E-01 -9.2764E-01  9.3518E-01  1.3231E+00
                               -3.1133E-01  3.1806E+01 -3.5639E+01  2.5147E+03

           1    2.15003E+01     1.4425E-01 -2.1191E-02  9.6900E-01  9.7990E-01
ac ID =   33377                 1.3290E+00  8.1758E-01  5.1373E-01  1.6428E+00
                               -3.0901E-01  3.1977E+01 -3.5580E+01  2.5147E+03

           1    2.16003E+01     4.3976E-02  1.7934E-02  1.0125E+00  1.0136E+00
ac ID =   33377                -3.9625E-01 -1.0896E+00 -4.9279E-01  1.2598E+00
                               -3.0661E-01  3.2149E+01 -3.5523E+01  2.5147E+03

           1    2.17003E+01     1.1200E-01  9.5882E-03  9.9710E-01  1.0034E+00
ac ID =   33377                -1.7378E-01 -4.6378E-01 -3.0489E-01  5.8159E-01
                               -3.0431E-01  3.2321E+01 -3.5468E+01  2.5147E+03

           1    2.18003E+01     1.2453E-01  2.4573E-02  9.5065E-01  9.5909E-01
ac ID =   33377                -6.2307E-02 -1.0709E-01  9.3616E-01  9.4432E-01
                               -3.0194E-01  3.2493E+01 -3.5416E+01  2.5147E+03

           1    2.19003E+01     7.7474E-02 -2.0783E-02  9.5623E-01  9.5958E-01
ac ID =   33377                 6.8997E-01 -1.3457E+00  1.1042E+00  1.8725E+00
                               -2.9938E-01  3.2666E+01 -3.5365E+01  2.5147E+03

           1    2.20003E+01     1.0772E-01  3.9963E-02  8.9729E-01  9.0461E-01
ac ID =   33377                -5.6464E-01 -8.2535E-02  1.3648E-01  5.8673E-01
                               -2.9708E-01  3.2839E+01 -3.5317E+01  2.5147E+03

           1    2.21003E+01     1.1993E-01  5.0463E-03  9.0989E-01  9.1777E-01
ac ID =   33377                 2.3370E-01 -5.5657E-01 -6.9403E-01  9.1982E-01
                               -2.9464E-01  3.3013E+01 -3.5270E+01  2.5147E+03

           1    2.22003E+01     1.0711E-01 -3.2087E-02  9.1540E-01  9.2220E-01
ac ID =   33377                 1.1065E+00 -9.3100E-01 -1.3160E-01  1.4520E+00
                               -2.9205E-01  3.3187E+01 -3.5226E+01  2.5147E+03

           1    2.23003E+01     1.0996E-01  2.6727E-03  8.2519E-01  8.3249E-01
ac ID =   33377                 3.3380E-01 -1.0196E-01  3.1950E-01  4.7318E-01
                               -2.8980E-01  3.3361E+01 -3.5184E+01  2.5147E+03

           1    2.24003E+01     1.3211E-01  3.5716E-02  8.0824E-01  8.1974E-01
ac ID =   33377                 4.3841E-02 -3.2546E-01  9.9462E-01  1.0474E+00
                               -2.8747E-01  3.3535E+01 -3.5143E+01  2.5147E+03

           1    2.25002E+01     9.3102E-02 -1.2156E-02  8.3953E-01  8.4477E-01
ac ID =   33377                 4.6433E-01 -1.1019E+00  3.7172E-01  1.2522E+00
                               -2.8489E-01  3.3709E+01 -3.5104E+01  2.5147E+03

           1    2.26002E+01     1.4441E-01 -2.1480E-02  7.6497E-01  7.7878E-01
ac ID =   33377                 6.3821E-01 -5.2184E-01 -5.5704E-01  9.9495E-01
                               -2.8241E-01  3.3884E+01 -3.5068E+01  2.5147E+03

           1    2.27002E+01     1.2011E-01  1.6430E-02  7.4007E-01  7.4994E-01
ac ID =   33377                -4.7020E-01 -1.2100E+00  1.8314E-01  1.3110E+00
                               -2.8004E-01  3.4058E+01 -3.5033E+01  2.5147E+03

           1    2.28002E+01     1.2894E-01  2.6871E-02  7.3615E-01  7.4784E-01
ac ID =   33377                -6.2059E-01 -1.1706E+00  5.5038E-01  1.4347E+00
                               -2.7764E-01  3.4233E+01 -3.4999E+01  2.5147E+03

           1    2.29002E+01     1.5006E-01 -4.0922E-02  6.6758E-01  6.8546E-01
ac ID =   33377                 9.3916E-01 -5.5154E-01  1.6654E-01  1.1018E+00
                               -2.7520E-01  3.4407E+01 -3.4967E+01  2.5147E+03

           1    2.30002E+01     1.5582E-01  2.8398E-02  6.8605E-01  7.0409E-01
ac ID =   33377                -8.7392E-01 -7.8735E-01  8.9516E-04  1.1763E+00
                               -2.7285E-01  3.4582E+01 -3.4937E+01  2.5147E+03

           1    2.31002E+01     1.2794E-01  2.7223E-02  6.3588E-01  6.4919E-01
ac ID =   33377                -3.7161E-01 -1.6439E+00 -3.1979E-01  1.7154E+00
                               -2.7045E-01  3.4756E+01 -3.4907E+01  2.5147E+03

           1    2.32002E+01     1.3747E-01 -4.3306E-02  5.2356E-01  5.4304E-01
ac ID =   33377                 9.6772E-01 -1.5959E+00  2.7407E-01  1.8864E+00
                               -2.6783E-01  3.4930E+01 -3.4879E+01  2.5147E+03

           1    2.33002E+01     1.3842E-01  1.3903E-02  5.4533E-01  5.6280E-01
ac ID =   33377                -2.6007E-01 -2.2862E+00  6.9960E-01  2.4049E+00
                               -2.6536E-01  3.5105E+01 -3.4853E+01  2.5147E+03

           1    2.34002E+01     1.3964E-01  6.6084E-03  5.2954E-01  5.4768E-01
ac ID =   33377                -2.9790E-01 -2.5279E+00  3.3104E-01  2.5669E+00
                               -2.6290E-01  3.5279E+01 -3.4828E+01  2.5147E+03

           1    2.35001E+01     1.3470E-01  2.4746E-03  4.4025E-01  4.6041E-01
ac ID =   33377                -2.2171E-01 -2.8996E+00  4.9127E-01  2.9493E+00
                               -2.6050E-01  3.5453E+01 -3.4803E+01  2.5147E+03

           1    2.36001E+01     1.5245E-01 -2.1351E-02  4.0001E-01  4.2861E-01
ac ID =   33377                 3.3775E-01 -3.4239E+00 -2.1147E-01  3.4470E+00
                               -2.5812E-01  3.5627E+01 -3.4780E+01  2.5147E+03

           1    2.37001E+01     1.4719E-01  1.5084E-02  3.5931E-01  3.8858E-01
ac ID =   33377                -9.1533E-01 -3.2831E+00 -3.8500E-01  3.4299E+00
                               -2.5587E-01  3.5800E+01 -3.4758E+01  2.5147E+03

           1    2.38001E+01     1.2259E-01  2.8797E-02  3.5290E-01  3.7469E-01
ac ID =   33377                -9.1392E-01 -4.5160E+00  3.5737E-03  4.6076E+00
                               -2.5373E-01  3.5974E+01 -3.4736E+01  2.5147E+03

           1    2.39001E+01     1.4136E-01 -3.9884E-03  3.2331E-01  3.5289E-01
ac ID =   33377                 1.6897E-01 -4.4862E+00 -4.3634E-01  4.5106E+00
                               -2.5132E-01  3.6147E+01 -3.4716E+01  2.5147E+03

           1    2.40001E+01     1.4120E-01 -2.2222E-02  2.4111E-01  2.8030E-01
ac ID =   33377                -3.7562E-01 -4.5766E+00  3.9434E-01  4.6089E+00
                               -2.4889E-01  3.6320E+01 -3.4696E+01  2.5147E+03

           1    2.41001E+01     1.3362E-01  3.2127E-02  2.1394E-01  2.5428E-01
ac ID =   33377                -8.0139E-01 -5.4230E+00 -2.6068E-01  5.4881E+00
                               -2.4693E-01  3.6493E+01 -3.4677E+01  2.5147E+03

           1    2.42001E+01     1.0290E-01 -2.0554E-02  2.0631E-01  2.3146E-01
ac ID =   33377                 1.8826E-01 -6.0231E+00 -2.2789E-01  6.0304E+00
                               -2.4477E-01  3.6666E+01 -3.4658E+01  2.5147E+03

           1    2.43001E+01     1.4567E-01  1.5367E-02  1.6842E-01  2.2321E-01
ac ID =   33377                -7.6091E-01 -6.1279E+00  2.2227E-01  6.1789E+00
                               -2.4254E-01  3.6837E+01 -3.4640E+01  2.5147E+03

           1    2.44001E+01     1.2726E-01 -8.0432E-03  1.3672E-01  1.8696E-01
ac ID =   33377                -2.1331E-01 -6.7319E+00 -5.1545E-02  6.7355E+00
                               -2.4059E-01  3.7009E+01 -3.4622E+01  2.5147E+03

           1    2.45005E+01     1.4713E-01  3.8972E-02  5.0943E-02  1.6050E-01
ac ID =   33377                -1.1389E+00 -6.7758E+00  2.2953E-02  6.8709E+00
                               -2.3860E-01  3.7181E+01 -3.4604E+01  2.5147E+03

           1    2.46005E+01     1.5601E-01 -1.2785E-02  4.1957E-02  1.6206E-01
ac ID =   33377                -6.8002E-01 -6.5215E+00 -4.2865E-01  6.5708E+00
                               -2.3647E-01  3.7352E+01 -3.4586E+01  2.5147E+03

           1    2.47005E+01     1.7134E-01  5.3385E-04  5.2163E-02  1.7911E-01
ac ID =   33377                -5.2719E-01 -6.9642E+00 -2.8095E-01  6.9898E+00
                               -2.3453E-01  3.7522E+01 -3.4569E+01  2.5147E+03

           1    2.48005E+01     1.3985E-01  3.0690E-02 -1.7923E-02  1.4430E-01
ac ID =   33377                -1.1727E+00 -7.6351E+00  4.6861E-01  7.7389E+00
                               -2.3270E-01  3.7692E+01 -3.4551E+01  2.5147E+03

           1    2.49005E+01     1.5379E-01 -7.7256E-04 -8.0448E-02  1.7356E-01
ac ID =   33377                -5.9075E-01 -7.1625E+00  1.5065E-01  7.1884E+00
                               -2.3072E-01  3.7862E+01 -3.4533E+01  2.5147E+03

