 LSTC 50th% Full_FE H-III Dummy (Beta Version, February 17, 2019)        
                    ls-dyna smp s R16 R16.0_619_d222963 date 03/18/2025

{BEGIN LEGEND}
 Entity #        Title
        1     Upper_Neck_Force_INJURY                                              
{END LEGEND}



 line#1  section#     time        x-force     y-force     z-force    magnitude
 line#2  resultant  moments       x-moment    y-moment    z-moment   magnitude
 line#3  centroids                x           y           z            area  
           1    0.00000E+00     0.0000E+00  0.0000E+00  0.0000E+00  0.0000E+00
ac ID =   33377                 0.0000E+00  0.0000E+00  0.0000E+00  0.0000E+00
                               -3.7437E-01  1.0501E+01 -4.6940E+01  0.0000E+00

           1    1.00490E-01     1.3626E-04 -4.9880E-03  2.5983E-01  2.5988E-01
ac ID =   33377                 4.2544E-01 -1.2521E+00 -2.7100E-02  1.3227E+00
                               -3.7387E-01  1.0590E+01 -4.6886E+01  2.5147E+03

           1    2.00480E-01    -4.4287E-02  4.9726E-04  4.4117E-01  4.4339E-01
ac ID =   33377                 3.0500E-01 -1.5963E+00  1.9199E-02  1.6253E+00
                               -3.7386E-01  1.0591E+01 -4.6888E+01  2.5147E+03

           1    3.00470E-01     1.4658E-02 -3.4210E-03  2.1766E-01  2.1818E-01
ac ID =   33377                 2.7613E-02 -3.3723E-01  6.3362E-02  3.4424E-01
                               -3.7382E-01  1.0591E+01 -4.6889E+01  2.5147E+03

           1    4.00460E-01     2.8399E-03  1.0623E-02  8.7573E-02  8.8260E-02
ac ID =   33377                -5.0200E-01 -9.4196E-01  1.1441E-03  1.0674E+00
                               -3.7383E-01  1.0592E+01 -4.6890E+01  2.5147E+03

           1    5.00450E-01    -4.1085E-02  4.2045E-03  1.6210E-01  1.6728E-01
ac ID =   33377                -3.9583E-01 -1.5041E+00 -1.0653E-01  1.5590E+00
                               -3.7385E-01  1.0594E+01 -4.6893E+01  2.5147E+03

           1    6.00440E-01    -1.0612E-02  4.0594E-03  3.4302E-01  3.4321E-01
ac ID =   33377                 8.9208E-02 -1.3264E+00 -2.5222E-02  1.3296E+00
                               -3.7385E-01  1.0595E+01 -4.6897E+01  2.5147E+03

           1    7.00430E-01     2.8486E-03 -5.5105E-03  2.9461E-01  2.9468E-01
ac ID =   33377                 1.3979E-01 -5.0036E-01  7.9946E-02  5.2564E-01
                               -3.7389E-01  1.0597E+01 -4.6901E+01  2.5147E+03

           1    8.00420E-01    -3.0947E-02 -1.0123E-03  1.0045E-01  1.0511E-01
ac ID =   33377                 8.3397E-02 -1.0507E+00  4.8007E-02  1.0551E+00
                               -3.7394E-01  1.0599E+01 -4.6905E+01  2.5147E+03

           1    9.00410E-01    -3.9373E-02  1.0044E-03  6.2604E-02  7.3963E-02
ac ID =   33377                 9.1700E-02 -1.0730E+00 -5.7468E-03  1.0769E+00
                               -3.7399E-01  1.0601E+01 -4.6909E+01  2.5147E+03

           1    1.00040E+00     1.4714E-02 -3.9444E-03  2.2071E-01  2.2124E-01
ac ID =   33377                 3.6806E-01 -2.8902E-01 -6.1684E-02  4.7202E-01
                               -3.7400E-01  1.0604E+01 -4.6915E+01  2.5147E+03

           1    1.10039E+00     2.1322E-04 -3.1194E-03  2.7076E-01  2.7078E-01
ac ID =   33377                 3.4830E-01 -8.8001E-01 -5.7176E-02  9.4815E-01
                               -3.7401E-01  1.0607E+01 -4.6921E+01  2.5147E+03

           1    1.20038E+00    -3.2320E-02 -6.7021E-04  1.2933E-01  1.3331E-01
ac ID =   33377                -1.5821E-01 -1.1844E+00  8.8801E-03  1.1950E+00
                               -3.7403E-01  1.0610E+01 -4.6927E+01  2.5147E+03

           1    1.30037E+00    -1.0201E-02  4.8827E-03  7.4377E-02  7.5232E-02
ac ID =   33377                -2.9991E-01 -8.8618E-01  1.5715E-02  9.3569E-01
                               -3.7407E-01  1.0612E+01 -4.6933E+01  2.5147E+03

           1    1.40036E+00     7.9568E-03  3.6908E-03  1.7385E-01  1.7407E-01
ac ID =   33377                -2.9409E-01 -8.3695E-01  3.1751E-02  8.8768E-01
                               -3.7409E-01  1.0616E+01 -4.6941E+01  2.5147E+03

           1    1.50035E+00    -2.6974E-02  1.2780E-03  3.2790E-01  3.2902E-01
ac ID =   33377                -1.7886E-02 -1.5757E+00 -4.3074E-02  1.5764E+00
                               -3.7413E-01  1.0620E+01 -4.6949E+01  2.5147E+03

           1    1.60034E+00    -1.9307E-02 -2.0439E-03  2.2123E-01  2.2209E-01
ac ID =   33377                -1.6845E-02 -1.3701E+00 -1.8657E-02  1.3704E+00
                               -3.7419E-01  1.0624E+01 -4.6957E+01  2.5147E+03

           1    1.70033E+00    -2.7899E-03 -2.8365E-04  5.8857E-02  5.8923E-02
ac ID =   33377                -4.2128E-02 -6.6586E-01  8.0347E-02  6.7201E-01
                               -3.7427E-01  1.0627E+01 -4.6965E+01  2.5147E+03

           1    1.80032E+00    -1.9882E-02  1.0312E-03  7.7449E-02  7.9967E-02
ac ID =   33377                 8.8143E-02 -1.1204E+00  1.2445E-01  1.1307E+00
                               -3.7434E-01  1.0632E+01 -4.6974E+01  2.5147E+03

           1    1.90031E+00    -7.8984E-03 -2.5820E-03  1.9186E-01  1.9204E-01
ac ID =   33377                 2.7012E-01 -8.2320E-01 -7.0082E-02  8.6922E-01
                               -3.7439E-01  1.0636E+01 -4.6984E+01  2.5147E+03

           1    2.00030E+00    -2.1616E-03 -4.3546E-03  1.5627E-01  1.5634E-01
ac ID =   33377                 2.0442E-01 -4.4490E-01 -1.4621E-01  5.1098E-01
                               -3.7444E-01  1.0641E+01 -4.6993E+01  2.5147E+03

           1    2.10029E+00    -2.5190E-02  2.6566E-03  3.2827E-03  2.5542E-02
ac ID =   33377                -7.1596E-02 -6.9621E-01  4.3322E-02  7.0123E-01
                               -3.7450E-01  1.0645E+01 -4.7003E+01  2.5147E+03

           1    2.20028E+00    -1.3148E-02  5.0685E-03  3.2748E-03  1.4467E-02
ac ID =   33377                -2.3759E-01 -6.5440E-01  2.0156E-02  6.9649E-01
                               -3.7456E-01  1.0650E+01 -4.7013E+01  2.5147E+03

           1    2.30027E+00     1.1552E-03  4.7447E-03  1.4874E-01  1.4882E-01
ac ID =   33377                -1.5071E-01 -8.1014E-01 -6.5617E-02  8.2665E-01
                               -3.7462E-01  1.0655E+01 -4.7024E+01  2.5147E+03

           1    2.40026E+00    -1.7537E-02 -1.4680E-03  1.8921E-01  1.9002E-01
ac ID =   33377                -1.5288E-01 -1.1856E+00  8.0009E-02  1.1981E+00
                               -3.7469E-01  1.0661E+01 -4.7035E+01  2.5147E+03

           1    2.50025E+00    -1.8597E-02  1.2063E-03  4.1641E-05  1.8636E-02
ac ID =   33377                -1.9431E-01 -8.8730E-01  1.3031E-01  9.1762E-01
                               -3.7479E-01  1.0665E+01 -4.7045E+01  2.5147E+03

           1    2.60024E+00    -6.8821E-03  5.7888E-03 -7.6382E-02  7.6909E-02
ac ID =   33377                -2.1206E-01 -1.8385E-01  3.5449E-02  2.8289E-01
                               -3.7490E-01  1.0671E+01 -4.7056E+01  2.5147E+03

           1    2.70023E+00    -1.2046E-02 -1.7100E-03  1.0132E-02  1.5833E-02
ac ID =   33377                 3.1896E-02 -2.1961E-01  3.6306E-02  2.2486E-01
                               -3.7501E-01  1.0676E+01 -4.7068E+01  2.5147E+03

           1    2.80022E+00    -5.6041E-03 -4.6770E-03  6.3521E-02  6.3939E-02
ac ID =   33377                 3.6800E-01 -1.4030E-01 -1.4202E-02  3.9409E-01
                               -3.7510E-01  1.0682E+01 -4.7079E+01  2.5147E+03

           1    2.90021E+00     4.7512E-03 -2.6976E-03 -9.9900E-03  1.1386E-02
ac ID =   33377                 1.4557E-01  3.1104E-01 -7.8148E-02  3.5220E-01
                               -3.7520E-01  1.0687E+01 -4.7090E+01  2.5147E+03

           1    3.00020E+00    -7.2067E-03  2.0341E-03 -8.8794E-02  8.9109E-02
ac ID =   33377                -3.5326E-02  8.1045E-02 -5.3785E-02  1.0348E-01
                               -3.7530E-01  1.0692E+01 -4.7101E+01  2.5147E+03

           1    3.10019E+00    -2.6877E-03  5.6248E-04 -8.9891E-03  9.3992E-03
ac ID =   33377                 4.0254E-02 -2.4944E-01 -3.3550E-02  2.5489E-01
                               -3.7538E-01  1.0698E+01 -4.7113E+01  2.5147E+03

           1    3.20018E+00     3.7156E-03  1.9602E-03  6.9948E-02  7.0074E-02
ac ID =   33377                -2.1070E-02 -3.3999E-01  2.3410E-02  3.4144E-01
                               -3.7545E-01  1.0703E+01 -4.7125E+01  2.5147E+03

           1    3.30017E+00     3.2398E-04  9.6308E-04  1.3398E-02  1.3436E-02
ac ID =   33377                -2.2881E-01 -3.6454E-01  1.1227E-01  4.4480E-01
                               -3.7554E-01  1.0708E+01 -4.7137E+01  2.5147E+03

           1    3.40016E+00    -2.4621E-03  2.9930E-03 -1.0104E-01  1.0112E-01
ac ID =   33377                -3.0482E-01 -3.2900E-02  1.2037E-01  3.2937E-01
                               -3.7565E-01  1.0713E+01 -4.7148E+01  2.5147E+03

           1    3.50015E+00    -4.8046E-03  3.2801E-03 -1.3191E-01  1.3204E-01
ac ID =   33377                -1.5954E-01  2.6845E-01  4.1972E-02  3.1508E-01
                               -3.7576E-01  1.0719E+01 -4.7160E+01  2.5147E+03

           1    3.60014E+00     5.9690E-03 -3.1494E-03 -5.2750E-02  5.3180E-02
ac ID =   33377                 1.2157E-01  7.4166E-01 -9.5309E-02  7.5758E-01
                               -3.7586E-01  1.0724E+01 -4.7172E+01  2.5147E+03

           1    3.70013E+00     1.0482E-02 -4.8852E-03 -4.6353E-02  4.7774E-02
ac ID =   33377                 3.0841E-01  8.6035E-01 -1.6610E-01  9.2893E-01
                               -3.7596E-01  1.0729E+01 -4.7183E+01  2.5147E+03

           1    3.80012E+00     7.6702E-03 -3.0180E-03 -1.2904E-01  1.2930E-01
ac ID =   33377                 2.5133E-01  1.0805E+00 -6.5419E-02  1.1113E+00
                               -3.7605E-01  1.0734E+01 -4.7195E+01  2.5147E+03

           1    3.90011E+00     8.4857E-03 -3.9191E-04 -1.8958E-01  1.8977E-01
ac ID =   33377                 1.6625E-01  1.1353E+00 -5.6879E-02  1.1488E+00
                               -3.7613E-01  1.0739E+01 -4.7206E+01  2.5147E+03

           1    4.00010E+00     2.0291E-03 -9.0965E-04 -1.3593E-01  1.3594E-01
ac ID =   33377                -2.6137E-02  7.0706E-01 -1.8446E-02  7.0779E-01
                               -3.7618E-01  1.0744E+01 -4.7217E+01  2.5147E+03

           1    4.10009E+00     4.0953E-03 -3.7517E-04 -9.7668E-02  9.7755E-02
ac ID =   33377                -7.1702E-02  5.3965E-01  6.0096E-03  5.4443E-01
                               -3.7623E-01  1.0748E+01 -4.7228E+01  2.5147E+03

           1    4.20008E+00    -1.4735E-03  2.9993E-03 -1.4134E-01  1.4138E-01
ac ID =   33377                -2.2523E-01  5.2860E-01  1.0019E-01  5.8325E-01
                               -3.7629E-01  1.0753E+01 -4.7239E+01  2.5147E+03

           1    4.30007E+00     2.3750E-03  4.9071E-03 -2.3898E-01  2.3904E-01
ac ID =   33377                -3.3706E-01  9.2327E-01  8.8812E-02  9.8688E-01
                               -3.7637E-01  1.0757E+01 -4.7249E+01  2.5147E+03

           1    4.40006E+00     1.1653E-02  4.3813E-03 -2.0508E-01  2.0546E-01
ac ID =   33377                -1.3207E-01  1.2150E+00  3.7382E-02  1.2227E+00
                               -3.7644E-01  1.0761E+01 -4.7259E+01  2.5147E+03

           1    4.50005E+00     6.8604E-03 -2.3736E-03 -1.1973E-01  1.1995E-01
ac ID =   33377                 2.1963E-01  9.6754E-01 -3.4237E-02  9.9275E-01
                               -3.7650E-01  1.0765E+01 -4.7269E+01  2.5147E+03

           1    4.60004E+00     9.2822E-03 -4.6897E-03 -1.5678E-01  1.5712E-01
ac ID =   33377                 3.0714E-01  1.0466E+00 -1.0715E-01  1.0960E+00
                               -3.7657E-01  1.0768E+01 -4.7279E+01  2.5147E+03

           1    4.70003E+00     8.2969E-03 -2.4039E-04 -2.2760E-01  2.2775E-01
ac ID =   33377                 2.3163E-01  9.6956E-01 -8.7259E-02  1.0007E+00
                               -3.7662E-01  1.0771E+01 -4.7288E+01  2.5147E+03

           1    4.80002E+00     6.9046E-03  3.4945E-04 -2.5111E-01  2.5120E-01
ac ID =   33377                 8.9477E-02  8.9473E-01 -1.2025E-02  8.9928E-01
                               -3.7665E-01  1.0774E+01 -4.7297E+01  2.5147E+03

           1    4.90001E+00     4.2379E-03 -9.9360E-04 -1.8295E-01  1.8300E-01
ac ID =   33377                 7.0543E-02  8.1987E-01 -4.5802E-03  8.2291E-01
                               -3.7666E-01  1.0777E+01 -4.7306E+01  2.5147E+03

           1    5.00000E+00     5.3396E-03  6.6339E-04 -1.5676E-01  1.5685E-01
ac ID =   33377                -1.8446E-01  7.8033E-01  8.8899E-02  8.0675E-01
                               -3.7666E-01  1.0780E+01 -4.7314E+01  2.5147E+03

           1    5.10049E+00     6.4824E-03  5.3360E-03 -2.3124E-01  2.3139E-01
ac ID =   33377                -2.6952E-01  8.9033E-01  1.1327E-01  9.3710E-01
                               -3.7667E-01  1.0782E+01 -4.7322E+01  2.5147E+03

           1    5.20048E+00     1.0551E-02  7.7055E-03 -2.5747E-01  2.5780E-01
ac ID =   33377                -3.4655E-01  1.1982E+00  5.6491E-02  1.2486E+00
                               -3.7669E-01  1.0784E+01 -4.7330E+01  2.5147E+03

           1    5.30047E+00     1.1628E-02  7.2455E-04 -2.2707E-01  2.2737E-01
ac ID =   33377                -1.8737E-01  1.1446E+00 -4.2238E-02  1.1606E+00
                               -3.7669E-01  1.0786E+01 -4.7337E+01  2.5147E+03

           1    5.40046E+00     1.6503E-02 -3.0151E-03 -1.9780E-01  1.9851E-01
ac ID =   33377                 1.7806E-01  1.1447E+00 -8.6617E-02  1.1617E+00
                               -3.7668E-01  1.0788E+01 -4.7344E+01  2.5147E+03

           1    5.50045E+00     1.8391E-02 -2.7051E-03 -2.6315E-01  2.6381E-01
ac ID =   33377                 2.2525E-01  1.2615E+00 -5.6692E-02  1.2827E+00
                               -3.7670E-01  1.0790E+01 -4.7351E+01  2.5147E+03

           1    5.60044E+00     1.4624E-02  2.8409E-04 -3.3142E-01  3.3174E-01
ac ID =   33377                 1.4949E-01  1.3595E+00  4.6624E-02  1.3685E+00
                               -3.7670E-01  1.0791E+01 -4.7356E+01  2.5147E+03

           1    5.70043E+00     1.6406E-02 -1.5868E-03 -3.3398E-01  3.3439E-01
ac ID =   33377                 1.6483E-01  1.2292E+00  7.3651E-02  1.2424E+00
                               -3.7669E-01  1.0793E+01 -4.7362E+01  2.5147E+03

           1    5.80042E+00     2.0051E-02 -1.9319E-03 -2.7661E-01  2.7734E-01
ac ID =   33377                 1.1485E-01  1.1791E+00  3.3617E-02  1.1851E+00
                               -3.7666E-01  1.0794E+01 -4.7368E+01  2.5147E+03

           1    5.90041E+00     2.9338E-02  9.1361E-04 -2.7231E-01  2.7389E-01
ac ID =   33377                -1.5049E-01  1.2775E+00 -9.9303E-02  1.2901E+00
                               -3.7661E-01  1.0796E+01 -4.7373E+01  2.5147E+03

           1    6.00040E+00     2.8101E-02  4.1335E-03 -3.3534E-01  3.3654E-01
ac ID =   33377                -3.2617E-01  1.3425E+00 -3.4288E-02  1.3820E+00
                               -3.7659E-01  1.0797E+01 -4.7377E+01  2.5147E+03

           1    6.10039E+00     3.5389E-02  9.9423E-03 -3.4040E-01  3.4238E-01
ac ID =   33377                -2.9545E-01  1.2550E+00  9.8678E-02  1.2931E+00
                               -3.7655E-01  1.0799E+01 -4.7381E+01  2.5147E+03

           1    6.20038E+00     3.4079E-02  4.4522E-03 -2.9822E-01  3.0019E-01
ac ID =   33377                -3.3390E-01  1.1172E+00  7.8547E-03  1.1660E+00
                               -3.7646E-01  1.0802E+01 -4.7386E+01  2.5147E+03

           1    6.30037E+00     4.4659E-02 -5.0411E-04 -3.0549E-01  3.0874E-01
ac ID =   33377                -4.3702E-02  1.1027E+00 -1.2477E-01  1.1106E+00
                               -3.7636E-01  1.0805E+01 -4.7390E+01  2.5147E+03

           1    6.40036E+00     5.4511E-02 -4.2984E-03 -4.0152E-01  4.0523E-01
ac ID =   33377                 2.1276E-01  1.6475E+00 -2.7829E-02  1.6614E+00
                               -3.7627E-01  1.0808E+01 -4.7394E+01  2.5147E+03

           1    6.50035E+00     5.8748E-02  4.2691E-03 -4.3548E-01  4.3944E-01
ac ID =   33377                 2.0659E-02  1.9743E+00  1.0368E-01  1.9771E+00
                               -3.7619E-01  1.0813E+01 -4.7398E+01  2.5147E+03

           1    6.60034E+00     6.7097E-02  1.4270E-03 -4.1400E-01  4.1941E-01
ac ID =   33377                 1.7503E-03  2.1655E+00 -5.7190E-02  2.1662E+00
                               -3.7608E-01  1.0819E+01 -4.7402E+01  2.5147E+03

           1    6.70033E+00     7.4460E-02 -3.9584E-04 -4.0650E-01  4.1326E-01
ac ID =   33377                -8.2052E-02  2.3545E+00 -4.2550E-02  2.3563E+00
                               -3.7591E-01  1.0826E+01 -4.7407E+01  2.5147E+03

           1    6.80032E+00     7.9127E-02  6.0388E-03 -4.2836E-01  4.3564E-01
ac ID =   33377                -1.2169E-01  2.2126E+00  1.7710E-02  2.2160E+00
                               -3.7574E-01  1.0834E+01 -4.7411E+01  2.5147E+03

           1    6.90031E+00     8.8466E-02  9.3557E-03 -5.0664E-01  5.1439E-01
ac ID =   33377                -4.8032E-01  2.6240E+00  3.0374E-02  2.6678E+00
                               -3.7554E-01  1.0844E+01 -4.7416E+01  2.5147E+03

           1    7.00030E+00     9.0088E-02  3.1467E-03 -4.9722E-01  5.0532E-01
ac ID =   33377                -4.7924E-01  2.5483E+00 -2.8330E-02  2.5931E+00
                               -3.7535E-01  1.0856E+01 -4.7421E+01  2.5147E+03

           1    7.10029E+00     1.0023E-01  1.0021E-02 -4.9699E-01  5.0709E-01
ac ID =   33377                -5.0146E-01  2.6317E+00  1.1425E-02  2.6790E+00
                               -3.7520E-01  1.0870E+01 -4.7428E+01  2.5147E+03

           1    7.20028E+00     9.8981E-02  4.6962E-03 -5.5822E-01  5.6694E-01
ac ID =   33377                -4.0940E-01  2.9093E+00 -2.4961E-02  2.9381E+00
                               -3.7503E-01  1.0886E+01 -4.7434E+01  2.5147E+03

           1    7.30027E+00     1.0980E-01  2.2552E-03 -6.4349E-01  6.5279E-01
ac ID =   33377                -8.6557E-02  3.3133E+00  4.2932E-02  3.3147E+00
                               -3.7486E-01  1.0903E+01 -4.7441E+01  2.5147E+03

           1    7.40026E+00     1.3280E-01  7.8484E-04 -6.8870E-01  7.0139E-01
ac ID =   33377                 3.4152E-03  4.1176E+00  1.4966E-01  4.1203E+00
                               -3.7468E-01  1.0923E+01 -4.7449E+01  2.5147E+03

           1    7.50025E+00     1.2775E-01 -4.9163E-03 -6.5061E-01  6.6305E-01
ac ID =   33377                 2.5313E-01  3.9420E+00 -3.3122E-02  3.9503E+00
                               -3.7454E-01  1.0946E+01 -4.7458E+01  2.5147E+03

           1    7.60024E+00     1.3691E-01  3.7340E-03 -6.7619E-01  6.8992E-01
ac ID =   33377                -1.5191E-02  4.1823E+00  1.5806E-02  4.1824E+00
                               -3.7434E-01  1.0971E+01 -4.7467E+01  2.5147E+03

           1    7.70023E+00     1.3997E-01  1.9300E-03 -7.2760E-01  7.4095E-01
ac ID =   33377                -1.8559E-01  4.0858E+00 -6.2447E-02  4.0904E+00
                               -3.7412E-01  1.0999E+01 -4.7477E+01  2.5147E+03

           1    7.80022E+00     1.4663E-01  8.4794E-03 -7.6853E-01  7.8244E-01
ac ID =   33377                -4.1640E-01  4.0719E+00 -2.8375E-01  4.1030E+00
                               -3.7393E-01  1.1029E+01 -4.7488E+01  2.5147E+03

           1    7.90021E+00     1.4556E-01  4.0043E-03 -7.8536E-01  7.9875E-01
ac ID =   33377                -6.0118E-01  4.2323E+00 -2.7876E-01  4.2839E+00
                               -3.7369E-01  1.1063E+01 -4.7500E+01  2.5147E+03

           1    8.00020E+00     1.6118E-01  2.5023E-03 -8.0585E-01  8.2181E-01
ac ID =   33377                -4.5365E-01  4.5854E+00 -1.8352E-01  4.6114E+00
                               -3.7349E-01  1.1100E+01 -4.7513E+01  2.5147E+03

           1    8.10019E+00     1.6335E-01  1.2643E-02 -8.9034E-01  9.0529E-01
ac ID =   33377                -5.7087E-01  5.0929E+00  1.0291E-01  5.1258E+00
                               -3.7332E-01  1.1139E+01 -4.7528E+01  2.5147E+03

           1    8.20018E+00     1.7744E-01  1.9218E-05 -9.6173E-01  9.7796E-01
ac ID =   33377                -4.1066E-02  5.5774E+00  5.9130E-02  5.5779E+00
                               -3.7313E-01  1.1182E+01 -4.7543E+01  2.5147E+03

           1    8.30017E+00     1.8602E-01  1.0092E-03 -9.9493E-01  1.0122E+00
ac ID =   33377                -1.3173E-01  5.9505E+00 -7.2119E-02  5.9524E+00
                               -3.7289E-01  1.1228E+01 -4.7559E+01  2.5147E+03

           1    8.40016E+00     1.8471E-01 -1.2384E-03 -1.0061E+00  1.0229E+00
ac ID =   33377                 1.0453E-01  6.0216E+00 -1.3847E-01  6.0241E+00
                               -3.7268E-01  1.1277E+01 -4.7576E+01  2.5147E+03

           1    8.50015E+00     1.8963E-01 -2.9914E-03 -1.0718E+00  1.0884E+00
ac ID =   33377                 8.7506E-02  6.3542E+00 -2.5259E-02  6.3549E+00
                               -3.7244E-01  1.1329E+01 -4.7595E+01  2.5147E+03

           1    8.60014E+00     1.9733E-01  2.4846E-03 -1.1555E+00  1.1722E+00
ac ID =   33377                -2.3223E-01  6.7521E+00  6.5955E-02  6.7564E+00
                               -3.7217E-01  1.1385E+01 -4.7614E+01  2.5147E+03

           1    8.70013E+00     1.9377E-01  8.9361E-03 -1.2059E+00  1.2214E+00
ac ID =   33377                -6.0283E-01  6.7674E+00 -2.2611E-02  6.7942E+00
                               -3.7189E-01  1.1444E+01 -4.7634E+01  2.5147E+03

           1    8.80012E+00     2.0503E-01  3.1526E-03 -1.2641E+00  1.2806E+00
ac ID =   33377                -5.4008E-01  7.0272E+00 -5.4918E-02  7.0482E+00
                               -3.7159E-01  1.1506E+01 -4.7656E+01  2.5147E+03

           1    8.90011E+00     2.1957E-01  8.8024E-03 -1.3168E+00  1.3350E+00
ac ID =   33377                -7.2591E-01  7.5354E+00  6.0104E-02  7.5706E+00
                               -3.7132E-01  1.1572E+01 -4.7678E+01  2.5147E+03

           1    9.00010E+00     2.1911E-01  8.8282E-03 -1.4043E+00  1.4213E+00
ac ID =   33377                -4.5242E-01  7.8678E+00  2.2693E-01  7.8840E+00
                               -3.7103E-01  1.1641E+01 -4.7701E+01  2.5147E+03

           1    9.10009E+00     2.2763E-01  3.2146E-03 -1.4777E+00  1.4951E+00
ac ID =   33377                -3.7061E-01  8.2371E+00  9.4361E-02  8.2459E+00
                               -3.7071E-01  1.1714E+01 -4.7724E+01  2.5147E+03

           1    9.20008E+00     2.4223E-01  3.4616E-03 -1.5254E+00  1.5445E+00
ac ID =   33377                -6.8149E-02  8.6451E+00 -1.5248E-01  8.6467E+00
                               -3.7040E-01  1.1790E+01 -4.7749E+01  2.5147E+03

           1    9.30007E+00     2.3960E-01  7.9932E-04 -1.5851E+00  1.6031E+00
ac ID =   33377                -7.5438E-02  8.6399E+00 -6.8050E-02  8.6405E+00
                               -3.7000E-01  1.1869E+01 -4.7774E+01  2.5147E+03

           1    9.40006E+00     2.3736E-01  4.0135E-03 -1.6730E+00  1.6898E+00
ac ID =   33377                -1.9438E-01  8.9683E+00 -8.1442E-02  8.9708E+00
                               -3.6960E-01  1.1952E+01 -4.7799E+01  2.5147E+03

           1    9.50005E+00     2.4969E-01  5.5687E-03 -1.7538E+00  1.7715E+00
ac ID =   33377                -2.9623E-01  9.4636E+00 -1.7823E-01  9.4699E+00
                               -3.6916E-01  1.2038E+01 -4.7825E+01  2.5147E+03

           1    9.60004E+00     2.6040E-01  1.0877E-02 -1.8148E+00  1.8334E+00
ac ID =   33377                -7.2728E-01  1.0027E+01 -2.1437E-01  1.0056E+01
                               -3.6868E-01  1.2128E+01 -4.7851E+01  2.5147E+03

           1    9.70003E+00     2.6407E-01  8.2626E-03 -1.8785E+00  1.8970E+00
ac ID =   33377                -7.1131E-01  1.0291E+01 -1.0250E-01  1.0316E+01
                               -3.6817E-01  1.2221E+01 -4.7878E+01  2.5147E+03

           1    9.80002E+00     2.8299E-01  6.0017E-03 -1.9448E+00  1.9653E+00
ac ID =   33377                -7.4261E-01  1.0934E+01 -5.7092E-02  1.0959E+01
                               -3.6766E-01  1.2317E+01 -4.7905E+01  2.5147E+03

           1    9.90001E+00     2.8360E-01  1.2863E-02 -2.0374E+00  2.0571E+00
ac ID =   33377                -6.7721E-01  1.1439E+01 -1.9741E-02  1.1459E+01
                               -3.6717E-01  1.2416E+01 -4.7931E+01  2.5147E+03

           1    1.00005E+01     2.8607E-01  6.4343E-03 -2.1396E+00  2.1587E+00
ac ID =   33377                -5.8696E-01  1.1969E+01 -7.1484E-02  1.1984E+01
                               -3.6663E-01  1.2519E+01 -4.7958E+01  2.5147E+03

           1    1.01005E+01     3.0743E-01  1.2332E-03 -2.2313E+00  2.2524E+00
ac ID =   33377                -3.9706E-01  1.2777E+01 -2.1808E-01  1.2785E+01
                               -3.6605E-01  1.2625E+01 -4.7985E+01  2.5147E+03

           1    1.02005E+01     3.1326E-01  3.6615E-03 -2.3246E+00  2.3456E+00
ac ID =   33377                -3.8476E-01  1.3330E+01 -1.5042E-01  1.3337E+01
                               -3.6547E-01  1.2734E+01 -4.8012E+01  2.5147E+03

           1    1.03005E+01     3.1195E-01  7.7575E-03 -2.4312E+00  2.4511E+00
ac ID =   33377                -4.7952E-01  1.3902E+01  4.9354E-02  1.3911E+01
                               -3.6488E-01  1.2846E+01 -4.8038E+01  2.5147E+03

           1    1.04005E+01     3.2987E-01  5.6482E-03 -2.5286E+00  2.5500E+00
ac ID =   33377                -7.0379E-01  1.4692E+01  3.9009E-02  1.4709E+01
                               -3.6422E-01  1.2961E+01 -4.8063E+01  2.5147E+03

           1    1.05004E+01     3.3941E-01  7.1726E-03 -2.6005E+00  2.6226E+00
ac ID =   33377                -8.5871E-01  1.5241E+01 -1.1343E-01  1.5265E+01
                               -3.6357E-01  1.3078E+01 -4.8088E+01  2.5147E+03

           1    1.06004E+01     3.5239E-01  7.5513E-03 -2.6649E+00  2.6881E+00
ac ID =   33377                -8.5670E-01  1.5827E+01 -7.4136E-02  1.5851E+01
                               -3.6292E-01  1.3199E+01 -4.8113E+01  2.5147E+03

           1    1.07004E+01     3.6206E-01  1.4319E-02 -2.7556E+00  2.7793E+00
ac ID =   33377                -1.1083E+00  1.6441E+01 -5.2452E-02  1.6478E+01
                               -3.6225E-01  1.3322E+01 -4.8136E+01  2.5147E+03

           1    1.08004E+01     3.7162E-01  6.9532E-03 -2.8487E+00  2.8728E+00
ac ID =   33377                -9.0628E-01  1.7097E+01 -4.1986E-02  1.7121E+01
                               -3.6158E-01  1.3448E+01 -4.8159E+01  2.5147E+03

           1    1.09004E+01     3.6927E-01  6.4960E-03 -2.9481E+00  2.9712E+00
ac ID =   33377                -8.6528E-01  1.7613E+01 -7.9486E-02  1.7635E+01
                               -3.6092E-01  1.3576E+01 -4.8180E+01  2.5147E+03

           1    1.10004E+01     3.7564E-01  9.7073E-03 -3.0269E+00  3.0501E+00
ac ID =   33377                -8.6237E-01  1.8262E+01 -1.6191E-01  1.8283E+01
                               -3.6026E-01  1.3707E+01 -4.8201E+01  2.5147E+03

           1    1.11004E+01     3.9753E-01 -1.0896E-03 -3.1194E+00  3.1446E+00
ac ID =   33377                -6.4391E-01  1.9214E+01 -2.9062E-01  1.9227E+01
                               -3.5958E-01  1.3840E+01 -4.8219E+01  2.5147E+03

           1    1.12004E+01     4.0575E-01  1.1434E-02 -3.1937E+00  3.2194E+00
ac ID =   33377                -8.1624E-01  2.0255E+01 -3.2350E-01  2.0274E+01
                               -3.5896E-01  1.3975E+01 -4.8236E+01  2.5147E+03

           1    1.13004E+01     4.0397E-01  2.3475E-03 -3.2496E+00  3.2747E+00
ac ID =   33377                -8.9764E-01  2.0605E+01 -1.7441E-01  2.0625E+01
                               -3.5832E-01  1.4112E+01 -4.8251E+01  2.5147E+03

           1    1.14004E+01     4.1750E-01  6.5699E-03 -3.3181E+00  3.3443E+00
ac ID =   33377                -1.0829E+00  2.1321E+01  1.6695E-04  2.1349E+01
                               -3.5774E-01  1.4251E+01 -4.8264E+01  2.5147E+03

           1    1.15003E+01     4.3178E-01  5.1462E-03 -3.3699E+00  3.3974E+00
ac ID =   33377                -1.0592E+00  2.1880E+01 -7.1979E-02  2.1906E+01
                               -3.5721E-01  1.4392E+01 -4.8275E+01  2.5147E+03

           1    1.16003E+01     4.0903E-01  7.9041E-03 -3.4392E+00  3.4634E+00
ac ID =   33377                -1.2621E+00  2.2154E+01 -1.7311E-01  2.2190E+01
                               -3.5671E-01  1.4534E+01 -4.8283E+01  2.5147E+03

           1    1.17003E+01     4.1186E-01  5.0056E-03 -3.5311E+00  3.5550E+00
ac ID =   33377                -1.0939E+00  2.2949E+01 -2.9690E-01  2.2977E+01
                               -3.5629E-01  1.4677E+01 -4.8289E+01  2.5147E+03

           1    1.18003E+01     4.4298E-01  3.5981E-03 -3.6011E+00  3.6282E+00
ac ID =   33377                -1.0044E+00  2.3885E+01 -1.0153E-01  2.3906E+01
                               -3.5592E-01  1.4821E+01 -4.8291E+01  2.5147E+03

           1    1.19003E+01     4.3858E-01  1.4926E-03 -3.6553E+00  3.6815E+00
ac ID =   33377                -9.0384E-01  2.4369E+01  8.9271E-02  2.4386E+01
                               -3.5556E-01  1.4966E+01 -4.8290E+01  2.5147E+03

           1    1.20003E+01     4.3346E-01 -8.3422E-04 -3.7225E+00  3.7477E+00
ac ID =   33377                -7.3148E-01  2.4995E+01  5.6078E-02  2.5006E+01
                               -3.5528E-01  1.5111E+01 -4.8286E+01  2.5147E+03

           1    1.21003E+01     4.6512E-01  4.7368E-03 -3.8057E+00  3.8340E+00
ac ID =   33377                -6.5096E-01  2.6199E+01 -3.0203E-01  2.6209E+01
                               -3.5505E-01  1.5257E+01 -4.8278E+01  2.5147E+03

           1    1.22003E+01     4.7260E-01  1.7060E-03 -3.8535E+00  3.8823E+00
ac ID =   33377                -1.0605E+00  2.6980E+01 -5.3183E-01  2.7006E+01
                               -3.5476E-01  1.5404E+01 -4.8266E+01  2.5147E+03

           1    1.23003E+01     4.5914E-01  3.2668E-03 -3.8859E+00  3.9129E+00
ac ID =   33377                -9.2665E-01  2.6901E+01 -7.3031E-01  2.6927E+01
                               -3.5456E-01  1.5551E+01 -4.8251E+01  2.5147E+03

           1    1.24003E+01     4.8876E-01  4.2768E-03 -3.9319E+00  3.9621E+00
ac ID =   33377                -1.1746E+00  2.7904E+01 -5.4239E-01  2.7934E+01
                               -3.5437E-01  1.5698E+01 -4.8232E+01  2.5147E+03

           1    1.25002E+01     5.0110E-01  3.3701E-03 -3.9938E+00  4.0251E+00
ac ID =   33377                -1.1640E+00  2.8732E+01 -3.8158E-01  2.8758E+01
                               -3.5420E-01  1.5845E+01 -4.8209E+01  2.5147E+03

           1    1.26002E+01     4.9366E-01  4.0003E-03 -4.0506E+00  4.0805E+00
ac ID =   33377                -1.1176E+00  2.9138E+01 -4.9594E-01  2.9164E+01
                               -3.5407E-01  1.5993E+01 -4.8182E+01  2.5147E+03

           1    1.27002E+01     4.9894E-01  5.5522E-03 -4.1005E+00  4.1307E+00
ac ID =   33377                -1.1239E+00  2.9889E+01 -5.9595E-01  2.9916E+01
                               -3.5397E-01  1.6140E+01 -4.8151E+01  2.5147E+03

           1    1.28002E+01     5.3914E-01 -1.7252E-03 -4.1135E+00  4.1487E+00
ac ID =   33377                -9.4629E-01  3.1337E+01 -3.5795E-01  3.1353E+01
                               -3.5385E-01  1.6288E+01 -4.8116E+01  2.5147E+03

           1    1.29002E+01     5.2163E-01 -1.0901E-02 -4.1362E+00  4.1690E+00
ac ID =   33377                -6.8480E-01  3.1600E+01  3.1930E-01  3.1609E+01
                               -3.5373E-01  1.6436E+01 -4.8077E+01  2.5147E+03

           1    1.30002E+01     5.2476E-01 -6.6516E-04 -4.1812E+00  4.2140E+00
ac ID =   33377                -8.7589E-01  3.2243E+01  1.9130E-01  3.2255E+01
                               -3.5364E-01  1.6583E+01 -4.8033E+01  2.5147E+03

           1    1.31002E+01     5.4356E-01  7.8858E-03 -4.1809E+00  4.2161E+00
ac ID =   33377                -1.1875E+00  3.2862E+01  1.0478E-02  3.2884E+01
                               -3.5359E-01  1.6730E+01 -4.7986E+01  2.5147E+03

           1    1.32002E+01     5.4304E-01 -6.0086E-04 -4.1789E+00  4.2140E+00
ac ID =   33377                -9.8654E-01  3.3096E+01 -1.5489E-01  3.3111E+01
                               -3.5349E-01  1.6877E+01 -4.7934E+01  2.5147E+03

           1    1.33002E+01     5.4201E-01 -4.8425E-03 -4.1794E+00  4.2144E+00
ac ID =   33377                -1.2484E+00  3.3484E+01 -1.5935E-01  3.3508E+01
                               -3.5341E-01  1.7024E+01 -4.7878E+01  2.5147E+03

           1    1.34002E+01     5.5968E-01  1.5327E-02 -4.2086E+00  4.2456E+00
ac ID =   33377                -1.2147E+00  3.4191E+01  8.2412E-02  3.4213E+01
                               -3.5344E-01  1.7170E+01 -4.7817E+01  2.5147E+03

           1    1.35001E+01     5.5475E-01  1.4444E-03 -4.2185E+00  4.2548E+00
ac ID =   33377                -1.2086E+00  3.4777E+01 -1.2771E-01  3.4799E+01
                               -3.5342E-01  1.7316E+01 -4.7753E+01  2.5147E+03

           1    1.36001E+01     5.5582E-01 -5.4862E-03 -4.1756E+00  4.2124E+00
ac ID =   33377                -9.4244E-01  3.5247E+01 -3.7045E-01  3.5261E+01
                               -3.5340E-01  1.7462E+01 -4.7684E+01  2.5147E+03

           1    1.37001E+01     5.6315E-01  1.7898E-03 -4.1618E+00  4.1997E+00
ac ID =   33377                -1.1356E+00  3.5773E+01 -5.1882E-01  3.5795E+01
                               -3.5342E-01  1.7607E+01 -4.7611E+01  2.5147E+03

           1    1.38001E+01     5.7307E-01  2.0146E-04 -4.1466E+00  4.1860E+00
ac ID =   33377                -7.3914E-01  3.6021E+01 -3.7518E-01  3.6031E+01
                               -3.5346E-01  1.7751E+01 -4.7533E+01  2.5147E+03

           1    1.39001E+01     5.6710E-01 -2.7395E-03 -4.1305E+00  4.1693E+00
ac ID =   33377                -8.9392E-01  3.5861E+01 -2.0793E-01  3.5873E+01
                               -3.5347E-01  1.7895E+01 -4.7451E+01  2.5147E+03

           1    1.40001E+01     5.6740E-01  7.6460E-03 -4.0940E+00  4.1332E+00
ac ID =   33377                -1.3473E+00  3.6122E+01 -5.2658E-01  3.6151E+01
                               -3.5347E-01  1.8039E+01 -4.7365E+01  2.5147E+03

           1    1.41001E+01     5.7875E-01  9.0753E-03 -4.0424E+00  4.0836E+00
ac ID =   33377                -1.2967E+00  3.6222E+01 -6.0638E-01  3.6250E+01
                               -3.5348E-01  1.8182E+01 -4.7275E+01  2.5147E+03

           1    1.42001E+01     5.6634E-01  2.7817E-03 -4.0100E+00  4.0497E+00
ac ID =   33377                -1.1668E+00  3.6495E+01 -2.9107E-01  3.6515E+01
                               -3.5348E-01  1.8325E+01 -4.7181E+01  2.5147E+03

           1    1.43001E+01     5.7396E-01  1.1034E-02 -3.9682E+00  4.0095E+00
ac ID =   33377                -1.5749E+00  3.6705E+01 -3.8491E-01  3.6741E+01
                               -3.5345E-01  1.8466E+01 -4.7083E+01  2.5147E+03

           1    1.44001E+01     5.7551E-01  1.1916E-02 -3.9136E+00  3.9557E+00
ac ID =   33377                -1.6646E+00  3.7104E+01 -4.1131E-01  3.7144E+01
                               -3.5350E-01  1.8608E+01 -4.6981E+01  2.5147E+03

           1    1.45000E+01     5.7251E-01  2.8028E-03 -3.8626E+00  3.9048E+00
ac ID =   33377                -1.0445E+00  3.7176E+01 -7.8105E-02  3.7191E+01
                               -3.5350E-01  1.8749E+01 -4.6875E+01  2.5147E+03

           1    1.46000E+01     5.6345E-01  1.6881E-03 -3.7984E+00  3.8400E+00
ac ID =   33377                -1.3370E+00  3.7050E+01  1.5551E-01  3.7074E+01
                               -3.5346E-01  1.8889E+01 -4.6765E+01  2.5147E+03

           1    1.47000E+01     5.6910E-01  1.3919E-02 -3.7647E+00  3.8075E+00
ac ID =   33377                -1.2888E+00  3.7221E+01 -4.3692E-02  3.7243E+01
                               -3.5351E-01  1.9029E+01 -4.6652E+01  2.5147E+03

           1    1.48005E+01     5.6721E-01  1.0243E-02 -3.6879E+00  3.7313E+00
ac ID =   33377                -1.4333E+00  3.7364E+01 -7.9162E-01  3.7400E+01
                               -3.5351E-01  1.9170E+01 -4.6534E+01  2.5147E+03

           1    1.49005E+01     5.5592E-01 -1.3388E-03 -3.6139E+00  3.6564E+00
ac ID =   33377                -1.2639E+00  3.7126E+01 -8.7534E-01  3.7158E+01
                               -3.5342E-01  1.9309E+01 -4.6414E+01  2.5147E+03

           1    1.50005E+01     5.6792E-01  2.9237E-03 -3.5484E+00  3.5936E+00
ac ID =   33377                -1.5214E+00  3.7517E+01 -8.3608E-02  3.7548E+01
                               -3.5341E-01  1.9448E+01 -4.6290E+01  2.5147E+03

           1    1.51005E+01     5.5720E-01  2.7393E-02 -3.4424E+00  3.4874E+00
ac ID =   33377                -1.5613E+00  3.7255E+01  2.6708E-01  3.7289E+01
                               -3.5344E-01  1.9587E+01 -4.6163E+01  2.5147E+03

           1    1.52005E+01     5.5477E-01  1.7167E-03 -3.3585E+00  3.4040E+00
ac ID =   33377                -1.5733E+00  3.7126E+01 -6.8358E-01  3.7165E+01
                               -3.5343E-01  1.9725E+01 -4.6033E+01  2.5147E+03

           1    1.53005E+01     5.5527E-01 -5.9656E-03 -3.3088E+00  3.3551E+00
ac ID =   33377                -1.7284E+00  3.7112E+01 -1.0945E+00  3.7169E+01
                               -3.5346E-01  1.9863E+01 -4.5900E+01  2.5147E+03

           1    1.54005E+01     5.5448E-01  1.9915E-03 -3.2097E+00  3.2573E+00
ac ID =   33377                -1.2287E+00  3.6899E+01 -7.9007E-01  3.6928E+01
                               -3.5359E-01  2.0001E+01 -4.5765E+01  2.5147E+03

           1    1.55004E+01     5.5518E-01  1.6342E-02 -3.1341E+00  3.1829E+00
ac ID =   33377                -1.5068E+00  3.6641E+01  4.2918E-01  3.6675E+01
                               -3.5371E-01  2.0139E+01 -4.5627E+01  2.5147E+03

           1    1.56004E+01     4.7416E-01 -4.9811E-03 -2.9887E+00  3.0261E+00
ac ID =   33377                -1.0616E+00  3.5497E+01  2.7825E-01  3.5514E+01
                               -3.5391E-01  2.0277E+01 -4.5487E+01  2.5147E+03

           1    1.57004E+01     5.8919E-01  1.4618E-05 -2.9243E+00  2.9830E+00
ac ID =   33377                -1.5938E+00  3.6232E+01 -7.8086E-01  3.6276E+01
                               -3.5416E-01  2.0413E+01 -4.5343E+01  2.5147E+03

           1    1.58004E+01     5.3932E-01  7.1536E-03 -2.8625E+00  2.9129E+00
ac ID =   33377                -1.6642E+00  3.5819E+01 -5.3509E-01  3.5861E+01
                               -3.5453E-01  2.0551E+01 -4.5198E+01  2.5147E+03

           1    1.59004E+01     4.8797E-01 -1.3197E-03 -2.6924E+00  2.7362E+00
ac ID =   33377                -1.0161E+00  3.4477E+01  1.4690E-01  3.4492E+01
                               -3.5498E-01  2.0688E+01 -4.5051E+01  2.5147E+03

           1    1.60004E+01     5.4016E-01  2.0707E-02 -2.6138E+00  2.6691E+00
ac ID =   33377                -1.7961E+00  3.5093E+01  2.0949E-01  3.5139E+01
                               -3.5551E-01  2.0825E+01 -4.4902E+01  2.5147E+03

           1    1.61004E+01     4.6109E-01 -3.7091E-03 -2.4877E+00  2.5301E+00
ac ID =   33377                -1.9715E+00  3.3527E+01 -1.6054E-01  3.3585E+01
                               -3.5609E-01  2.0961E+01 -4.4750E+01  2.5147E+03

           1    1.62004E+01     4.9968E-01  2.0678E-02 -2.4535E+00  2.5040E+00
ac ID =   33377                -1.9017E+00  3.3010E+01 -5.1263E-01  3.3069E+01
                               -3.5670E-01  2.1098E+01 -4.4597E+01  2.5147E+03

           1    1.63004E+01     4.7818E-01 -7.2694E-04 -2.3771E+00  2.4248E+00
ac ID =   33377                -1.6317E+00  3.2969E+01 -7.2194E-01  3.3017E+01
                               -3.5731E-01  2.1234E+01 -4.4443E+01  2.5147E+03

           1    1.64004E+01     4.9949E-01  3.1691E-02 -2.1842E+00  2.2408E+00
ac ID =   33377                -1.6165E+00  3.2418E+01 -3.9328E-01  3.2460E+01
                               -3.5794E-01  2.1371E+01 -4.4287E+01  2.5147E+03

           1    1.65003E+01     4.2523E-01 -1.9526E-02 -2.1462E+00  2.1880E+00
ac ID =   33377                -1.7862E+00  3.1958E+01 -6.2886E-01  3.2014E+01
                               -3.5850E-01  2.1508E+01 -4.4130E+01  2.5147E+03

