 LSTC 50th% Full_FE H-III Dummy (Beta Version, February 17, 2019)        
                    ls-dyna smp s R16 R16.0_619_d222963 date 03/18/2025

{BEGIN LEGEND}
 Entity #        Title
    22626                                                                                     
{END LEGEND}




 n o d a l   p r i n t   o u t   f o r   t i m e  s t e p       1                              ( at time 0.0000000E+00 )

 nodal point  x-disp     y-disp      z-disp      x-vel       y-vel       z-vel      x-accl      y-accl      z-accl      x-coor      y-coor      z-coor
    22626  0.00000E+00 0.00000E+00 0.00000E+00 0.00000E+00 0.00000E+00-3.12000E+00 0.00000E+00 0.00000E+00 0.00000E+00 4.79642E+01-2.20298E+01 7.33850E+00



 n o d a l   p r i n t   o u t   f o r   t i m e  s t e p       1                              ( at time 0.0000000E+00 )

 nodal point  x-rot      y-rot       z-rot       x-rot vel   y-rot vel   z-rot vel   x-rot acc   y-rot acc   z-rot acc
    22626  0.00000E+00 0.00000E+00 0.00000E+00 0.00000E+00 0.00000E+00 0.00000E+00 0.00000E+00 0.00000E+00 0.00000E+00



 n o d a l   p r i n t   o u t   f o r   t i m e  s t e p     201                              ( at time 9.9989993E-02 )

 nodal point  x-disp     y-disp      z-disp      x-vel       y-vel       z-vel      x-accl      y-accl      z-accl      x-coor      y-coor      z-coor
    22626  8.34260E-07-4.04472E-06-3.12016E-01 4.76685E-05-4.96429E-04-3.12074E+00 4.76733E-04-4.96478E-03-7.42510E-03 4.79642E+01-2.20298E+01 7.02648E+00



 n o d a l   p r i n t   o u t   f o r   t i m e  s t e p     201                              ( at time 9.9989993E-02 )

 nodal point  x-rot      y-rot       z-rot       x-rot vel   y-rot vel   z-rot vel   x-rot acc   y-rot acc   z-rot acc
    22626  9.60784E-09 3.04084E-08 5.27004E-08 1.30728E-06 2.72279E-06 5.21164E-06 1.30741E-05 2.72306E-05 5.21216E-05



 n o d a l   p r i n t   o u t   f o r   t i m e  s t e p     401                              ( at time 1.9997999E-01 )

 nodal point  x-disp     y-disp      z-disp      x-vel       y-vel       z-vel      x-accl      y-accl      z-accl      x-coor      y-coor      z-coor
    22626 -5.12788E-05-5.21582E-04-6.23853E-01-1.09670E-03-1.11143E-02-3.11558E+00-1.14448E-02-1.06189E-01 5.16180E-02 4.79641E+01-2.20303E+01 6.71465E+00



 n o d a l   p r i n t   o u t   f o r   t i m e  s t e p     401                              ( at time 1.9997999E-01 )

 nodal point  x-rot      y-rot       z-rot       x-rot vel   y-rot vel   z-rot vel   x-rot acc   y-rot acc   z-rot acc
    22626  4.60482E-07 1.32991E-06 2.50253E-06 2.64250E-06 1.90400E-05 3.49493E-05 1.33535E-05 1.63189E-04 2.97406E-04



 n o d a l   p r i n t   o u t   f o r   t i m e  s t e p     601                              ( at time 2.9996998E-01 )

 nodal point  x-disp     y-disp      z-disp      x-vel       y-vel       z-vel      x-accl      y-accl      z-accl      x-coor      y-coor      z-coor
    22626 -2.45196E-05-1.97629E-03-9.35238E-01 1.66319E-03-1.60439E-02-3.11415E+00 2.76016E-02-4.93006E-02 1.43018E-02 4.79642E+01-2.20318E+01 6.40326E+00



 n o d a l   p r i n t   o u t   f o r   t i m e  s t e p     601                              ( at time 2.9996998E-01 )

 nodal point  x-rot      y-rot       z-rot       x-rot vel   y-rot vel   z-rot vel   x-rot acc   y-rot acc   z-rot acc
    22626  6.75319E-07 2.41107E-06 4.82686E-06 8.29564E-06 5.34901E-06 1.46146E-05 5.65370E-05-1.36924E-04-2.03367E-04



 n o d a l   p r i n t   o u t   f o r   t i m e  s t e p     801                              ( at time 3.9995997E-01 )

 nodal point  x-disp     y-disp      z-disp      x-vel       y-vel       z-vel      x-accl      y-accl      z-accl      x-coor      y-coor      z-coor
    22626  6.14618E-05-3.57293E-03-1.24663E+00 2.31011E-04-1.73688E-02-3.11355E+00-1.43232E-02-1.32509E-02 6.05405E-03 4.79642E+01-2.20334E+01 6.09187E+00



 n o d a l   p r i n t   o u t   f o r   t i m e  s t e p     801                              ( at time 3.9995997E-01 )

 nodal point  x-rot      y-rot       z-rot       x-rot vel   y-rot vel   z-rot vel   x-rot acc   y-rot acc   z-rot acc
    22626  1.58073E-06 3.66714E-06 6.65816E-06 6.21203E-06 2.40533E-05 3.77758E-05-2.08382E-05 1.87062E-04 2.31635E-04



 n o d a l   p r i n t   o u t   f o r   t i m e  s t e p    1001                              ( at time 4.9994997E-01 )

 nodal point  x-disp     y-disp      z-disp      x-vel       y-vel       z-vel      x-accl      y-accl      z-accl      x-coor      y-coor      z-coor
    22626  7.94884E-05-5.62778E-03-1.55783E+00 9.41341E-04-2.38153E-02-3.11087E+00 7.10401E-03-6.44709E-02 2.67676E-02 4.79643E+01-2.20354E+01 5.78068E+00



 n o d a l   p r i n t   o u t   f o r   t i m e  s t e p    1001                              ( at time 4.9994997E-01 )

 nodal point  x-rot      y-rot       z-rot       x-rot vel   y-rot vel   z-rot vel   x-rot acc   y-rot acc   z-rot acc
    22626  1.49277E-06 6.59876E-06 1.17494E-05-4.88027E-06 4.32909E-05 7.11773E-05-1.10934E-04 1.92395E-04 3.34049E-04



 n o d a l   p r i n t   o u t   f o r   t i m e  s t e p    1201                              ( at time 5.9993996E-01 )

 nodal point  x-disp     y-disp      z-disp      x-vel       y-vel       z-vel      x-accl      y-accl      z-accl      x-coor      y-coor      z-coor
    22626  6.78899E-05-8.12894E-03-1.86888E+00-4.41666E-04-2.60577E-02-3.11088E+00-1.38315E-02-2.24264E-02-6.91483E-05 4.79642E+01-2.20379E+01 5.46962E+00



 n o d a l   p r i n t   o u t   f o r   t i m e  s t e p    1201                              ( at time 5.9993996E-01 )

 nodal point  x-rot      y-rot       z-rot       x-rot vel   y-rot vel   z-rot vel   x-rot acc   y-rot acc   z-rot acc
    22626  1.26283E-06 9.76426E-06 1.75398E-05-2.20004E-06 2.54764E-05 5.13909E-05 2.68051E-05-1.78163E-04-1.97884E-04



 n o d a l   p r i n t   o u t   f o r   t i m e  s t e p    1401                              ( at time 6.9992995E-01 )

 nodal point  x-disp     y-disp      z-disp      x-vel       y-vel       z-vel      x-accl      y-accl      z-accl      x-coor      y-coor      z-coor
    22626  4.99412E-05-1.10051E-02-2.17977E+00 8.86516E-04-3.21570E-02-3.10775E+00 1.32831E-02-6.09994E-02 3.13003E-02 4.79642E+01-2.20408E+01 5.15873E+00



 n o d a l   p r i n t   o u t   f o r   t i m e  s t e p    1401                              ( at time 6.9992995E-01 )

 nodal point  x-rot      y-rot       z-rot       x-rot vel   y-rot vel   z-rot vel   x-rot acc   y-rot acc   z-rot acc
    22626  1.09799E-06 1.28411E-05 2.23146E-05-2.40190E-06 3.62915E-05 5.69671E-05-2.01880E-06 1.08161E-04 5.57676E-05



 n o d a l   p r i n t   o u t   f o r   t i m e  s t e p    1601                              ( at time 7.9991994E-01 )

 nodal point  x-disp     y-disp      z-disp      x-vel       y-vel       z-vel      x-accl      y-accl      z-accl      x-coor      y-coor      z-coor
    22626  1.84047E-04-1.45435E-02-2.49040E+00 1.63098E-03-3.66613E-02-3.10609E+00 7.44535E-03-4.50471E-02 1.65574E-02 4.79644E+01-2.20443E+01 4.84810E+00



 n o d a l   p r i n t   o u t   f o r   t i m e  s t e p    1601                              ( at time 7.9991994E-01 )

 nodal point  x-rot      y-rot       z-rot       x-rot vel   y-rot vel   z-rot vel   x-rot acc   y-rot acc   z-rot acc
    22626  1.00247E-06 1.68098E-05 2.89951E-05 2.92724E-06 4.65942E-05 7.26557E-05 5.32967E-05 1.03038E-04 1.56902E-04



 n o d a l   p r i n t   o u t   f o r   t i m e  s t e p    1801                              ( at time 8.9990994E-01 )

 nodal point  x-disp     y-disp      z-disp      x-vel       y-vel       z-vel      x-accl      y-accl      z-accl      x-coor      y-coor      z-coor
    22626  2.91202E-04-1.81696E-02-2.80106E+00-1.29171E-04-3.62489E-02-3.10753E+00-1.76033E-02 4.12405E-03-1.43924E-02 4.79645E+01-2.20480E+01 4.53744E+00



 n o d a l   p r i n t   o u t   f o r   t i m e  s t e p    1801                              ( at time 8.9990994E-01 )

 nodal point  x-rot      y-rot       z-rot       x-rot vel   y-rot vel   z-rot vel   x-rot acc   y-rot acc   z-rot acc
    22626  1.01418E-06 2.06720E-05 3.55506E-05-2.04191E-06 3.49494E-05 6.31308E-05-4.96964E-05-1.16460E-04-9.52593E-05



 n o d a l   p r i n t   o u t   f o r   t i m e  s t e p    2001                              ( at time 9.9989993E-01 )

 nodal point  x-disp     y-disp      z-disp      x-vel       y-vel       z-vel      x-accl      y-accl      z-accl      x-coor      y-coor      z-coor
    22626  2.36831E-04-2.18606E-02-3.11179E+00-3.26343E-04-3.81247E-02-3.10772E+00-1.97192E-03-1.87602E-02-1.86462E-03 4.79644E+01-2.20517E+01 4.22671E+00



 n o d a l   p r i n t   o u t   f o r   t i m e  s t e p    2001                              ( at time 9.9989993E-01 )

 nodal point  x-rot      y-rot       z-rot       x-rot vel   y-rot vel   z-rot vel   x-rot acc   y-rot acc   z-rot acc
    22626  8.41424E-07 2.45445E-05 4.21728E-05-8.87020E-07 4.21805E-05 7.91470E-05 1.15500E-05 7.23181E-05 1.60178E-04



 n o d a l   p r i n t   o u t   f o r   t i m e  s t e p    2201                              ( at time 1.0998899E+00 )

 nodal point  x-disp     y-disp      z-disp      x-vel       y-vel       z-vel      x-accl      y-accl      z-accl      x-coor      y-coor      z-coor
    22626  2.75707E-04-2.57796E-02-3.42251E+00 4.30377E-04-3.99474E-02-3.10730E+00 7.56796E-03-1.82288E-02 4.14413E-03 4.79645E+01-2.20556E+01 3.91599E+00



 n o d a l   p r i n t   o u t   f o r   t i m e  s t e p    2201                              ( at time 1.0998899E+00 )

 nodal point  x-rot      y-rot       z-rot       x-rot vel   y-rot vel   z-rot vel   x-rot acc   y-rot acc   z-rot acc
    22626  9.14092E-07 2.88814E-05 5.00348E-05 5.25417E-06 4.14715E-05 6.65988E-05 6.14181E-05-7.09099E-06-1.25494E-04



 n o d a l   p r i n t   o u t   f o r   t i m e  s t e p    2401                              ( at time 1.1998799E+00 )

 nodal point  x-disp     y-disp      z-disp      x-vel       y-vel       z-vel      x-accl      y-accl      z-accl      x-coor      y-coor      z-coor
    22626  3.90128E-04-2.97574E-02-3.73327E+00 1.53312E-03-3.93835E-02-3.10874E+00 1.10285E-02 5.64009E-03-1.43638E-02 4.79646E+01-2.20595E+01 3.60523E+00



 n o d a l   p r i n t   o u t   f o r   t i m e  s t e p    2401                              ( at time 1.1998799E+00 )

 nodal point  x-rot      y-rot       z-rot       x-rot vel   y-rot vel   z-rot vel   x-rot acc   y-rot acc   z-rot acc
    22626  1.30877E-06 3.24637E-05 5.59322E-05 4.96829E-06 3.37109E-05 5.50396E-05-2.85911E-06-7.76142E-05-1.15604E-04



 n o d a l   p r i n t   o u t   f o r   t i m e  s t e p    2601                              ( at time 1.2998699E+00 )

 nodal point  x-disp     y-disp      z-disp      x-vel       y-vel       z-vel      x-accl      y-accl      z-accl      x-coor      y-coor      z-coor
    22626  4.89698E-04-3.35523E-02-4.04424E+00 5.37747E-04-3.61136E-02-3.11160E+00-9.95469E-03 3.27016E-02-2.86226E-02 4.79647E+01-2.20633E+01 3.29427E+00



 n o d a l   p r i n t   o u t   f o r   t i m e  s t e p    2601                              ( at time 1.2998699E+00 )

 nodal point  x-rot      y-rot       z-rot       x-rot vel   y-rot vel   z-rot vel   x-rot acc   y-rot acc   z-rot acc
    22626  1.60012E-06 3.58528E-05 6.15538E-05-2.66713E-06 3.80541E-05 6.70472E-05-7.63618E-05 4.34369E-05 1.20088E-04



 n o d a l   p r i n t   o u t   f o r   t i m e  s t e p    2801                              ( at time 1.3998599E+00 )

 nodal point  x-disp     y-disp      z-disp      x-vel       y-vel       z-vel      x-accl      y-accl      z-accl      x-coor      y-coor      z-coor
    22626  4.79813E-04-3.68938E-02-4.35557E+00-1.72595E-04-3.08652E-02-3.11544E+00-7.10413E-03 5.24898E-02-3.84226E-02 4.79647E+01-2.20667E+01 2.98293E+00



 n o d a l   p r i n t   o u t   f o r   t i m e  s t e p    2801                              ( at time 1.3998599E+00 )

 nodal point  x-rot      y-rot       z-rot       x-rot vel   y-rot vel   z-rot vel   x-rot acc   y-rot acc   z-rot acc
    22626  1.15593E-06 3.94545E-05 6.80206E-05-4.62078E-06 3.56285E-05 5.83588E-05-1.95385E-05-2.42581E-05-8.68930E-05



 n o d a l   p r i n t   o u t   f o r   t i m e  s t e p    3001                              ( at time 1.4998499E+00 )

 nodal point  x-disp     y-disp      z-disp      x-vel       y-vel       z-vel      x-accl      y-accl      z-accl      x-coor      y-coor      z-coor
    22626  4.91739E-04-3.98792E-02-4.66719E+00 7.88874E-04-2.91615E-02-3.11748E+00 9.61566E-03 1.70385E-02-2.03701E-02 4.79647E+01-2.20697E+01 2.67131E+00



 n o d a l   p r i n t   o u t   f o r   t i m e  s t e p    3001                              ( at time 1.4998499E+00 )

 nodal point  x-rot      y-rot       z-rot       x-rot vel   y-rot vel   z-rot vel   x-rot acc   y-rot acc   z-rot acc
    22626  7.66961E-07 4.24046E-05 7.29332E-05-1.76666E-06 2.19699E-05 3.99341E-05 2.85441E-05-1.36600E-04-1.84265E-04



 n o d a l   p r i n t   o u t   f o r   t i m e  s t e p    3201                              ( at time 1.5998399E+00 )

 nodal point  x-disp     y-disp      z-disp      x-vel       y-vel       z-vel      x-accl      y-accl      z-accl      x-coor      y-coor      z-coor
    22626  5.79538E-04-4.27043E-02-4.97900E+00 7.29045E-04-2.68027E-02-3.11981E+00-5.98349E-04 2.35904E-02-2.33054E-02 4.79648E+01-2.20725E+01 2.35951E+00



 n o d a l   p r i n t   o u t   f o r   t i m e  s t e p    3201                              ( at time 1.5998399E+00 )

 nodal point  x-rot      y-rot       z-rot       x-rot vel   y-rot vel   z-rot vel   x-rot acc   y-rot acc   z-rot acc
    22626  4.44598E-07 4.44182E-05 7.60171E-05-1.60549E-06 2.16714E-05 2.92180E-05 1.61179E-06-2.98477E-06-1.07172E-04



 n o d a l   p r i n t   o u t   f o r   t i m e  s t e p    3401                              ( at time 1.6998299E+00 )

 nodal point  x-disp     y-disp      z-disp      x-vel       y-vel       z-vel      x-accl      y-accl      z-accl      x-coor      y-coor      z-coor
    22626  6.42426E-04-4.51471E-02-5.29113E+00 4.34087E-04-2.17299E-02-3.12367E+00-2.94988E-03 5.07331E-02-3.85704E-02 4.79648E+01-2.20749E+01 2.04737E+00



 n o d a l   p r i n t   o u t   f o r   t i m e  s t e p    3401                              ( at time 1.6998299E+00 )

 nodal point  x-rot      y-rot       z-rot       x-rot vel   y-rot vel   z-rot vel   x-rot acc   y-rot acc   z-rot acc
    22626  2.17324E-07 4.63390E-05 7.90723E-05-3.95750E-06 1.76888E-05 2.70310E-05-2.35224E-05-3.98300E-05-2.18719E-05



 n o d a l   p r i n t   o u t   f o r   t i m e  s t e p    3601                              ( at time 1.7998199E+00 )

 nodal point  x-disp     y-disp      z-disp      x-vel       y-vel       z-vel      x-accl      y-accl      z-accl      x-coor      y-coor      z-coor
    22626  7.03313E-04-4.70622E-02-5.60368E+00 3.49047E-04-1.69247E-02-3.12778E+00-8.50483E-04 4.80572E-02-4.11481E-02 4.79649E+01-2.20769E+01 1.73482E+00



 n o d a l   p r i n t   o u t   f o r   t i m e  s t e p    3601                              ( at time 1.7998199E+00 )

 nodal point  x-rot      y-rot       z-rot       x-rot vel   y-rot vel   z-rot vel   x-rot acc   y-rot acc   z-rot acc
    22626  5.55620E-08 4.78799E-05 8.16934E-05-5.16512E-07 8.70725E-06 2.01066E-05 3.44133E-05-8.98247E-05-6.92515E-05



 n o d a l   p r i n t   o u t   f o r   t i m e  s t e p    3801                              ( at time 1.8998099E+00 )

 nodal point  x-disp     y-disp      z-disp      x-vel       y-vel       z-vel      x-accl      y-accl      z-accl      x-coor      y-coor      z-coor
    22626  6.87090E-04-4.86217E-02-5.91655E+00-3.98711E-04-1.43992E-02-3.13026E+00-7.47833E-03 2.52573E-02-2.48219E-02 4.79649E+01-2.20784E+01 1.42195E+00



 n o d a l   p r i n t   o u t   f o r   t i m e  s t e p    3801                              ( at time 1.8998099E+00 )

 nodal point  x-rot      y-rot       z-rot       x-rot vel   y-rot vel   z-rot vel   x-rot acc   y-rot acc   z-rot acc
    22626 -1.95743E-07 4.84712E-05 8.28649E-05 1.55390E-06 2.19683E-06 4.88588E-06 2.07062E-05-6.51107E-05-1.52222E-04



 n o d a l   p r i n t   o u t   f o r   t i m e  s t e p    4001                              ( at time 1.9997999E+00 )

 nodal point  x-disp     y-disp      z-disp      x-vel       y-vel       z-vel      x-accl      y-accl      z-accl      x-coor      y-coor      z-coor
    22626  6.92143E-04-4.99344E-02-6.22967E+00 1.50104E-04-1.20144E-02-3.13255E+00 5.48870E-03 2.38498E-02-2.29286E-02 4.79649E+01-2.20797E+01 1.10883E+00



 n o d a l   p r i n t   o u t   f o r   t i m e  s t e p    4001                              ( at time 1.9997999E+00 )

 nodal point  x-rot      y-rot       z-rot       x-rot vel   y-rot vel   z-rot vel   x-rot acc   y-rot acc   z-rot acc
    22626 -1.67079E-09 4.84544E-05 8.28744E-05 3.11418E-06-2.00919E-07-3.15503E-06 1.56043E-05-2.39799E-05-8.04172E-05



 n o d a l   p r i n t   o u t   f o r   t i m e  s t e p    4201                              ( at time 2.0997899E+00 )

 nodal point  x-disp     y-disp      z-disp      x-vel       y-vel       z-vel      x-accl      y-accl      z-accl      x-coor      y-coor      z-coor
    22626  7.05852E-04-5.09468E-02-6.54305E+00-3.93926E-06-8.39546E-03-3.13562E+00-1.54059E-03 3.61934E-02-3.06875E-02 4.79649E+01-2.20807E+01 7.95449E-01



 n o d a l   p r i n t   o u t   f o r   t i m e  s t e p    4201                              ( at time 2.0997899E+00 )

 nodal point  x-rot      y-rot       z-rot       x-rot vel   y-rot vel   z-rot vel   x-rot acc   y-rot acc   z-rot acc
    22626  2.73945E-07 4.77359E-05 8.16244E-05-1.45628E-06-1.02485E-05-2.17155E-05-4.57091E-05-1.00486E-04-1.85623E-04



 n o d a l   p r i n t   o u t   f o r   t i m e  s t e p    4401                              ( at time 2.1997798E+00 )

 nodal point  x-disp     y-disp      z-disp      x-vel       y-vel       z-vel      x-accl      y-accl      z-accl      x-coor      y-coor      z-coor
    22626  6.49771E-04-5.15571E-02-6.85676E+00-9.10169E-04-3.64787E-03-3.13939E+00-9.06321E-03 4.74807E-02-3.76573E-02 4.79648E+01-2.20813E+01 4.81741E-01



 n o d a l   p r i n t   o u t   f o r   t i m e  s t e p    4401                              ( at time 2.1997798E+00 )

 nodal point  x-rot      y-rot       z-rot       x-rot vel   y-rot vel   z-rot vel   x-rot acc   y-rot acc   z-rot acc
    22626  8.23993E-08 4.63561E-05 7.92018E-05-1.29813E-06-1.58525E-05-2.65431E-05 1.58170E-06-5.60456E-05-4.82814E-05



 n o d a l   p r i n t   o u t   f o r   t i m e  s t e p    4601                              ( at time 2.2997698E+00 )

 nodal point  x-disp     y-disp      z-disp      x-vel       y-vel       z-vel      x-accl      y-accl      z-accl      x-coor      y-coor      z-coor
    22626  5.28359E-04-5.16779E-02-7.17085E+00-1.62805E-03 6.37711E-04-3.14268E+00-7.17956E-03 4.28600E-02-3.28812E-02 4.79647E+01-2.20815E+01 1.67649E-01



 n o d a l   p r i n t   o u t   f o r   t i m e  s t e p    4601                              ( at time 2.2997698E+00 )

 nodal point  x-rot      y-rot       z-rot       x-rot vel   y-rot vel   z-rot vel   x-rot acc   y-rot acc   z-rot acc
    22626 -3.13091E-07 4.46739E-05 7.64797E-05-4.61623E-06-2.32786E-05-3.62922E-05-3.31843E-05-7.42683E-05-9.75000E-05



 n o d a l   p r i n t   o u t   f o r   t i m e  s t e p    4801                              ( at time 2.3997598E+00 )

 nodal point  x-disp     y-disp      z-disp      x-vel       y-vel       z-vel      x-accl      y-accl      z-accl      x-coor      y-coor      z-coor
    22626  3.49050E-04-5.15206E-02-7.48519E+00-1.72817E-03 2.55174E-03-3.14480E+00-1.00127E-03 1.91423E-02-2.12596E-02 4.79645E+01-2.20813E+01-1.46689E-01



 n o d a l   p r i n t   o u t   f o r   t i m e  s t e p    4801                              ( at time 2.3997598E+00 )

 nodal point  x-rot      y-rot       z-rot       x-rot vel   y-rot vel   z-rot vel   x-rot acc   y-rot acc   z-rot acc
    22626 -8.68970E-07 4.20528E-05 7.16762E-05-6.06043E-06-2.97340E-05-5.67929E-05-1.44435E-05-6.45605E-05-2.05028E-04



 n o d a l   p r i n t   o u t   f o r   t i m e  s t e p    5001                              ( at time 2.4997498E+00 )

 nodal point  x-disp     y-disp      z-disp      x-vel       y-vel       z-vel      x-accl      y-accl      z-accl      x-coor      y-coor      z-coor
    22626  1.45058E-04-5.11441E-02-7.79976E+00-2.34298E-03 5.63600E-03-3.14749E+00-6.14866E-03 3.08456E-02-2.68939E-02 4.79643E+01-2.20809E+01-4.61255E-01



 n o d a l   p r i n t   o u t   f o r   t i m e  s t e p    5001                              ( at time 2.4997498E+00 )

 nodal point  x-rot      y-rot       z-rot       x-rot vel   y-rot vel   z-rot vel   x-rot acc   y-rot acc   z-rot acc
    22626 -1.32777E-06 3.84776E-05 6.53972E-05-4.24546E-06-3.98381E-05-7.19508E-05 1.81515E-05-1.01051E-04-1.51594E-04



 n o d a l   p r i n t   o u t   f o r   t i m e  s t e p    5201                              ( at time 2.5997398E+00 )

 nodal point  x-disp     y-disp      z-disp      x-vel       y-vel       z-vel      x-accl      y-accl      z-accl      x-coor      y-coor      z-coor
    22626 -1.39679E-04-5.03635E-02-8.11466E+00-3.36626E-03 9.92289E-03-3.15106E+00-1.02339E-02 4.28732E-02-3.57259E-02 4.79640E+01-2.20802E+01-7.76158E-01



 n o d a l   p r i n t   o u t   f o r   t i m e  s t e p    5201                              ( at time 2.5997398E+00 )

 nodal point  x-rot      y-rot       z-rot       x-rot vel   y-rot vel   z-rot vel   x-rot acc   y-rot acc   z-rot acc
    22626 -1.70496E-06 3.40312E-05 5.76538E-05-4.85833E-06-4.90291E-05-8.51459E-05-6.12928E-06-9.19189E-05-1.31964E-04



 n o d a l   p r i n t   o u t   f o r   t i m e  s t e p    5401                              ( at time 2.6997298E+00 )

 nodal point  x-disp     y-disp      z-disp      x-vel       y-vel       z-vel      x-accl      y-accl      z-accl      x-coor      y-coor      z-coor
    22626 -5.18590E-04-4.91654E-02-8.42991E+00-4.50720E-03 1.35861E-02-3.15456E+00-1.14105E-02 3.66356E-02-3.49580E-02 4.79637E+01-2.20790E+01-1.09141E+00



 n o d a l   p r i n t   o u t   f o r   t i m e  s t e p    5401                              ( at time 2.6997298E+00 )

 nodal point  x-rot      y-rot       z-rot       x-rot vel   y-rot vel   z-rot vel   x-rot acc   y-rot acc   z-rot acc
    22626 -2.00997E-06 2.89538E-05 4.88874E-05-2.11335E-06-5.45590E-05-8.95025E-05 2.74525E-05-5.53045E-05-4.35708E-05



 n o d a l   p r i n t   o u t   f o r   t i m e  s t e p    5601                              ( at time 2.7997198E+00 )

 nodal point  x-disp     y-disp      z-disp      x-vel       y-vel       z-vel      x-accl      y-accl      z-accl      x-coor      y-coor      z-coor
    22626 -1.04048E-03-4.76806E-02-8.74545E+00-5.76859E-03 1.57554E-02-3.15670E+00-1.26152E-02 2.16957E-02-2.14265E-02 4.79631E+01-2.20775E+01-1.40695E+00



 n o d a l   p r i n t   o u t   f o r   t i m e  s t e p    5601                              ( at time 2.7997198E+00 )

 nodal point  x-rot      y-rot       z-rot       x-rot vel   y-rot vel   z-rot vel   x-rot acc   y-rot acc   z-rot acc
    22626 -2.15277E-06 2.27536E-05 3.85213E-05 3.60030E-07-7.03448E-05-1.20905E-04 2.47363E-05-1.57874E-04-3.14054E-04



 n o d a l   p r i n t   o u t   f o r   t i m e  s t e p    5801                              ( at time 2.8997098E+00 )

 nodal point  x-disp     y-disp      z-disp      x-vel       y-vel       z-vel      x-accl      y-accl      z-accl      x-coor      y-coor      z-coor
    22626 -1.62054E-03-4.60526E-02-9.06118E+00-5.89513E-03 1.67102E-02-3.15836E+00-1.26547E-03 9.54896E-03-1.66218E-02 4.79626E+01-2.20758E+01-1.72268E+00



 n o d a l   p r i n t   o u t   f o r   t i m e  s t e p    5801                              ( at time 2.8997098E+00 )

 nodal point  x-rot      y-rot       z-rot       x-rot vel   y-rot vel   z-rot vel   x-rot acc   y-rot acc   z-rot acc
    22626 -1.95835E-06 1.50158E-05 2.53939E-05 2.32936E-06-7.94067E-05-1.37428E-04 1.96953E-05-9.06289E-05-1.65248E-04



 n o d a l   p r i n t   o u t   f o r   t i m e  s t e p    6001                              ( at time 2.9996998E+00 )

 nodal point  x-disp     y-disp      z-disp      x-vel       y-vel       z-vel      x-accl      y-accl      z-accl      x-coor      y-coor      z-coor
    22626 -2.24851E-03-4.42640E-02-9.37709E+00-6.89428E-03 1.92026E-02-3.16073E+00-9.99253E-03 2.49259E-02-2.36821E-02 4.79619E+01-2.20741E+01-2.03859E+00



 n o d a l   p r i n t   o u t   f o r   t i m e  s t e p    6001                              ( at time 2.9996998E+00 )

 nodal point  x-rot      y-rot       z-rot       x-rot vel   y-rot vel   z-rot vel   x-rot acc   y-rot acc   z-rot acc
    22626 -1.73914E-06 6.86121E-06 1.16089E-05 5.88841E-07-8.36329E-05-1.42875E-04-1.74069E-05-4.22662E-05-5.44741E-05



 n o d a l   p r i n t   o u t   f o r   t i m e  s t e p    6201                              ( at time 3.0996898E+00 )

 nodal point  x-disp     y-disp      z-disp      x-vel       y-vel       z-vel      x-accl      y-accl      z-accl      x-coor      y-coor      z-coor
    22626 -3.02066E-03-4.22269E-02-9.69325E+00-8.48253E-03 2.11094E-02-3.16271E+00-1.58840E-02 1.90699E-02-1.98337E-02 4.79612E+01-2.20720E+01-2.35475E+00



 n o d a l   p r i n t   o u t   f o r   t i m e  s t e p    6201                              ( at time 3.0996898E+00 )

 nodal point  x-rot      y-rot       z-rot       x-rot vel   y-rot vel   z-rot vel   x-rot acc   y-rot acc   z-rot acc
    22626 -1.79360E-06-1.77677E-06-3.22008E-06-2.13378E-06-8.86626E-05-1.55513E-04-2.72290E-05-5.03016E-05-1.26400E-04



 n o d a l   p r i n t   o u t   f o r   t i m e  s t e p    6401                              ( at time 3.1996798E+00 )

 nodal point  x-disp     y-disp      z-disp      x-vel       y-vel       z-vel      x-accl      y-accl      z-accl      x-coor      y-coor      z-coor
    22626 -3.89866E-03-4.01428E-02-1.00095E+01-8.98841E-03 2.02997E-02-3.16328E+00-5.05937E-03-8.09729E-03-5.68684E-03 4.79603E+01-2.20699E+01-2.67103E+00



 n o d a l   p r i n t   o u t   f o r   t i m e  s t e p    6401                              ( at time 3.1996798E+00 )

 nodal point  x-rot      y-rot       z-rot       x-rot vel   y-rot vel   z-rot vel   x-rot acc   y-rot acc   z-rot acc
    22626 -1.93157E-06-1.11253E-05-1.89967E-05-1.70885E-06-9.80925E-05-1.65763E-04 4.24977E-06-9.43086E-05-1.02508E-04



 n o d a l   p r i n t   o u t   f o r   t i m e  s t e p    6601                              ( at time 3.2996698E+00 )

 nodal point  x-disp     y-disp      z-disp      x-vel       y-vel       z-vel      x-accl      y-accl      z-accl      x-coor      y-coor      z-coor
    22626 -4.81025E-03-3.82095E-02-1.03258E+01-9.24331E-03 1.83606E-02-3.16300E+00-2.54928E-03-1.93935E-02 2.79932E-03 4.79594E+01-2.20680E+01-2.98731E+00



 n o d a l   p r i n t   o u t   f o r   t i m e  s t e p    6601                              ( at time 3.2996698E+00 )

 nodal point  x-rot      y-rot       z-rot       x-rot vel   y-rot vel   z-rot vel   x-rot acc   y-rot acc   z-rot acc
    22626 -2.20766E-06-2.10738E-05-3.59195E-05-2.46016E-06-1.01942E-04-1.73189E-04-7.51384E-06-3.85029E-05-7.42664E-05



 n o d a l   p r i n t   o u t   f o r   t i m e  s t e p    6801                              ( at time 3.3996598E+00 )

 nodal point  x-disp     y-disp      z-disp      x-vel       y-vel       z-vel      x-accl      y-accl      z-accl      x-coor      y-coor      z-coor
    22626 -5.76667E-03-3.64647E-02-1.06421E+01-9.76186E-03 1.65683E-02-3.16292E+00-5.18594E-03-1.79243E-02 7.96397E-04 4.79584E+01-2.20663E+01-3.30357E+00



 n o d a l   p r i n t   o u t   f o r   t i m e  s t e p    6801                              ( at time 3.3996598E+00 )

 nodal point  x-rot      y-rot       z-rot       x-rot vel   y-rot vel   z-rot vel   x-rot acc   y-rot acc   z-rot acc
    22626 -2.25989E-06-3.12168E-05-5.33661E-05-2.62662E-06-1.00637E-04-1.74761E-04-1.66481E-06 1.30512E-05-1.57153E-05



 n o d a l   p r i n t   o u t   f o r   t i m e  s t e p    7001                              ( at time 3.4996498E+00 )

 nodal point  x-disp     y-disp      z-disp      x-vel       y-vel       z-vel      x-accl      y-accl      z-accl      x-coor      y-coor      z-coor
    22626 -6.76993E-03-3.48818E-02-1.09583E+01-1.03828E-02 1.50283E-02-3.16312E+00-6.20957E-03-1.54014E-02-2.01246E-03 4.79574E+01-2.20647E+01-3.61985E+00



 n o d a l   p r i n t   o u t   f o r   t i m e  s t e p    7001                              ( at time 3.4996498E+00 )

 nodal point  x-rot      y-rot       z-rot       x-rot vel   y-rot vel   z-rot vel   x-rot acc   y-rot acc   z-rot acc
    22626 -2.25392E-06-4.11294E-05-7.03368E-05 5.45013E-07-9.95790E-05-1.68756E-04 3.17196E-05 1.05848E-05 6.00541E-05



 n o d a l   p r i n t   o u t   f o r   t i m e  s t e p    7201                              ( at time 3.5996397E+00 )

 nodal point  x-disp     y-disp      z-disp      x-vel       y-vel       z-vel      x-accl      y-accl      z-accl      x-coor      y-coor      z-coor
    22626 -7.82904E-03-3.34851E-02-1.12746E+01-1.04565E-02 1.26416E-02-3.16292E+00-7.37561E-04-2.38700E-02 2.06968E-03 4.79564E+01-2.20633E+01-3.93613E+00



 n o d a l   p r i n t   o u t   f o r   t i m e  s t e p    7201                              ( at time 3.5996397E+00 )

 nodal point  x-rot      y-rot       z-rot       x-rot vel   y-rot vel   z-rot vel   x-rot acc   y-rot acc   z-rot acc
    22626 -2.26998E-06-5.09924E-05-8.69463E-05 1.95475E-06-9.71184E-05-1.59984E-04 1.40988E-05 2.46093E-05 8.77306E-05



 n o d a l   p r i n t   o u t   f o r   t i m e  s t e p    7401                              ( at time 3.6996297E+00 )

 nodal point  x-disp     y-disp      z-disp      x-vel       y-vel       z-vel      x-accl      y-accl      z-accl      x-coor      y-coor      z-coor
    22626 -8.86406E-03-3.23868E-02-1.15908E+01-1.01992E-02 9.26794E-03-3.16191E+00 2.57317E-03-3.37397E-02 1.01123E-02 4.79553E+01-2.20622E+01-4.25234E+00



 n o d a l   p r i n t   o u t   f o r   t i m e  s t e p    7401                              ( at time 3.6996297E+00 )

 nodal point  x-rot      y-rot       z-rot       x-rot vel   y-rot vel   z-rot vel   x-rot acc   y-rot acc   z-rot acc
    22626 -2.01670E-06-6.05057E-05-1.02851E-04 3.68892E-06-9.36047E-05-1.57563E-04 1.73434E-05 3.51400E-05 2.42126E-05



 n o d a l   p r i n t   o u t   f o r   t i m e  s t e p    7601                              ( at time 3.7996197E+00 )

 nodal point  x-disp     y-disp      z-disp      x-vel       y-vel       z-vel      x-accl      y-accl      z-accl      x-coor      y-coor      z-coor
    22626 -9.85327E-03-3.15978E-02-1.19070E+01-9.62690E-03 6.57334E-03-3.16121E+00 5.72362E-03-2.69487E-02 6.95299E-03 4.79543E+01-2.20614E+01-4.56845E+00



 n o d a l   p r i n t   o u t   f o r   t i m e  s t e p    7601                              ( at time 3.7996197E+00 )

 nodal point  x-rot      y-rot       z-rot       x-rot vel   y-rot vel   z-rot vel   x-rot acc   y-rot acc   z-rot acc
    22626 -1.55500E-06-6.95480E-05-1.18223E-04 5.26662E-06-8.47532E-05-1.42998E-04 1.57786E-05 8.85243E-05 1.45659E-04



 n o d a l   p r i n t   o u t   f o r   t i m e  s t e p    7801                              ( at time 3.8996097E+00 )

 nodal point  x-disp     y-disp      z-disp      x-vel       y-vel       z-vel      x-accl      y-accl      z-accl      x-coor      y-coor      z-coor
    22626 -1.07850E-02-3.10388E-02-1.22230E+01-8.98918E-03 4.80966E-03-3.16115E+00 6.37788E-03-1.76386E-02 6.53331E-04 4.79534E+01-2.20608E+01-4.88454E+00



 n o d a l   p r i n t   o u t   f o r   t i m e  s t e p    7801                              ( at time 3.8996097E+00 )

 nodal point  x-rot      y-rot       z-rot       x-rot vel   y-rot vel   z-rot vel   x-rot acc   y-rot acc   z-rot acc
    22626 -1.19606E-06-7.73697E-05-1.31440E-04 5.12641E-07-7.00740E-05-1.17294E-04-4.75445E-05 1.46806E-04 2.57064E-04



 n o d a l   p r i n t   o u t   f o r   t i m e  s t e p    8001                              ( at time 3.9995997E+00 )

 nodal point  x-disp     y-disp      z-disp      x-vel       y-vel       z-vel      x-accl      y-accl      z-accl      x-coor      y-coor      z-coor
    22626 -1.16576E-02-3.06078E-02-1.25391E+01-8.42412E-03 3.75133E-03-3.16148E+00 5.65114E-03-1.05843E-02-3.36920E-03 4.79525E+01-2.20604E+01-5.20064E+00



 n o d a l   p r i n t   o u t   f o r   t i m e  s t e p    8001                              ( at time 3.9995997E+00 )

 nodal point  x-rot      y-rot       z-rot       x-rot vel   y-rot vel   z-rot vel   x-rot acc   y-rot acc   z-rot acc
    22626 -1.06967E-06-8.38396E-05-1.42220E-04-1.46296E-07-5.89222E-05-1.00913E-04-6.59003E-06 1.11529E-04 1.63833E-04



 n o d a l   p r i n t   o u t   f o r   t i m e  s t e p    8201                              ( at time 4.0995897E+00 )

 nodal point  x-disp     y-disp      z-disp      x-vel       y-vel       z-vel      x-accl      y-accl      z-accl      x-coor      y-coor      z-coor
    22626 -1.24180E-02-3.03471E-02-1.28552E+01-6.63890E-03 1.26102E-03-3.16100E+00 1.78540E-02-2.49056E-02 4.79746E-03 4.79518E+01-2.20601E+01-5.51674E+00



 n o d a l   p r i n t   o u t   f o r   t i m e  s t e p    8201                              ( at time 4.0995897E+00 )

 nodal point  x-rot      y-rot       z-rot       x-rot vel   y-rot vel   z-rot vel   x-rot acc   y-rot acc   z-rot acc
    22626 -1.07970E-06-8.91809E-05-1.51272E-04-9.50197E-08-4.44594E-05-7.73225E-05 5.12810E-07 1.44643E-04 2.35924E-04



 n o d a l   p r i n t   o u t   f o r   t i m e  s t e p    8401                              ( at time 4.1995797E+00 )

 nodal point  x-disp     y-disp      z-disp      x-vel       y-vel       z-vel      x-accl      y-accl      z-accl      x-coor      y-coor      z-coor
    22626 -1.30041E-02-3.03452E-02-1.31713E+01-5.01933E-03-1.14220E-03-3.16042E+00 1.61974E-02-2.40347E-02 5.87046E-03 4.79512E+01-2.20601E+01-5.83277E+00



 n o d a l   p r i n t   o u t   f o r   t i m e  s t e p    8401                              ( at time 4.1995797E+00 )

 nodal point  x-rot      y-rot       z-rot       x-rot vel   y-rot vel   z-rot vel   x-rot acc   y-rot acc   z-rot acc
    22626 -1.06711E-06-9.27653E-05-1.57303E-04-2.40415E-07-2.61980E-05-4.38924E-05-1.45410E-06 1.82632E-04 3.34334E-04



 n o d a l   p r i n t   o u t   f o r   t i m e  s t e p    8601                              ( at time 4.2995697E+00 )

 nodal point  x-disp     y-disp      z-disp      x-vel       y-vel       z-vel      x-accl      y-accl      z-accl      x-coor      y-coor      z-coor
    22626 -1.34418E-02-3.05778E-02-1.34873E+01-3.59027E-03-3.21712E-03-3.16025E+00 1.42920E-02-2.07512E-02 1.66433E-03 4.79507E+01-2.20604E+01-6.14877E+00



 n o d a l   p r i n t   o u t   f o r   t i m e  s t e p    8601                              ( at time 4.2995697E+00 )

 nodal point  x-rot      y-rot       z-rot       x-rot vel   y-rot vel   z-rot vel   x-rot acc   y-rot acc   z-rot acc
    22626 -1.08784E-06-9.44136E-05-1.60230E-04-4.68771E-07-9.15179E-06-1.60583E-05-2.28379E-06 1.70480E-04 2.78370E-04



 n o d a l   p r i n t   o u t   f o r   t i m e  s t e p    8801                              ( at time 4.3995597E+00 )

 nodal point  x-disp     y-disp      z-disp      x-vel       y-vel       z-vel      x-accl      y-accl      z-accl      x-coor      y-coor      z-coor
    22626 -1.37114E-02-3.09392E-02-1.38033E+01-1.85266E-03-4.05295E-03-3.16087E+00 1.73778E-02-8.35919E-03-6.21859E-03 4.79505E+01-2.20607E+01-6.46479E+00



 n o d a l   p r i n t   o u t   f o r   t i m e  s t e p    8801                              ( at time 4.3995597E+00 )

 nodal point  x-rot      y-rot       z-rot       x-rot vel   y-rot vel   z-rot vel   x-rot acc   y-rot acc   z-rot acc
    22626 -1.06852E-06-9.43318E-05-1.59959E-04 8.01801E-07 1.01898E-05 1.94625E-05 1.27070E-05 1.93436E-04 3.55243E-04



 n o d a l   p r i n t   o u t   f o r   t i m e  s t e p    9001                              ( at time 4.4995497E+00 )

 nodal point  x-disp     y-disp      z-disp      x-vel       y-vel       z-vel      x-accl      y-accl      z-accl      x-coor      y-coor      z-coor
    22626 -1.38127E-02-3.14396E-02-1.41193E+01-9.06955E-05-6.30020E-03-3.16049E+00 1.76214E-02-2.24746E-02 3.82222E-03 4.79504E+01-2.20612E+01-6.78083E+00



 n o d a l   p r i n t   o u t   f o r   t i m e  s t e p    9001                              ( at time 4.4995497E+00 )

 nodal point  x-rot      y-rot       z-rot       x-rot vel   y-rot vel   z-rot vel   x-rot acc   y-rot acc   z-rot acc
    22626 -9.32150E-07-9.20567E-05-1.55903E-04 3.50945E-06 3.21030E-05 5.62060E-05 2.70791E-05 2.19153E-04 3.67471E-04



 n o d a l   p r i n t   o u t   f o r   t i m e  s t e p    9201                              ( at time 4.5995397E+00 )

 nodal point  x-disp     y-disp      z-disp      x-vel       y-vel       z-vel      x-accl      y-accl      z-accl      x-coor      y-coor      z-coor
    22626 -1.37268E-02-3.22236E-02-1.44353E+01 1.84597E-03-9.17934E-03-3.15992E+00 1.93687E-02-2.87943E-02 5.69163E-03 4.79505E+01-2.20620E+01-7.09682E+00



 n o d a l   p r i n t   o u t   f o r   t i m e  s t e p    9201                              ( at time 4.5995397E+00 )

 nodal point  x-rot      y-rot       z-rot       x-rot vel   y-rot vel   z-rot vel   x-rot acc   y-rot acc   z-rot acc
    22626 -6.23420E-07-8.80282E-05-1.48825E-04 4.15838E-06 4.81274E-05 8.27163E-05 6.49000E-06 1.60260E-04 2.65130E-04



 n o d a l   p r i n t   o u t   f o r   t i m e  s t e p    9401                              ( at time 4.6995297E+00 )

 nodal point  x-disp     y-disp      z-disp      x-vel       y-vel       z-vel      x-accl      y-accl      z-accl      x-coor      y-coor      z-coor
    22626 -1.34260E-02-3.32221E-02-1.47513E+01 4.06422E-03-1.07692E-02-3.15978E+00 2.21847E-02-1.59002E-02 1.39489E-03 4.79508E+01-2.20630E+01-7.41277E+00



 n o d a l   p r i n t   o u t   f o r   t i m e  s t e p    9401                              ( at time 4.6995297E+00 )

 nodal point  x-rot      y-rot       z-rot       x-rot vel   y-rot vel   z-rot vel   x-rot acc   y-rot acc   z-rot acc
    22626 -2.52648E-07-8.20625E-05-1.38433E-04 2.66100E-06 7.27120E-05 1.25020E-04-1.49753E-05 2.45871E-04 4.23079E-04



 n o d a l   p r i n t   o u t   f o r   t i m e  s t e p    9601                              ( at time 4.7995197E+00 )

 nodal point  x-disp     y-disp      z-disp      x-vel       y-vel       z-vel      x-accl      y-accl      z-accl      x-coor      y-coor      z-coor
    22626 -1.29192E-02-3.43701E-02-1.50672E+01 5.95911E-03-1.20023E-02-3.16004E+00 1.89508E-02-1.23324E-02-2.60618E-03 4.79513E+01-2.20642E+01-7.72872E+00



 n o d a l   p r i n t   o u t   f o r   t i m e  s t e p    9601                              ( at time 4.7995197E+00 )

 nodal point  x-rot      y-rot       z-rot       x-rot vel   y-rot vel   z-rot vel   x-rot acc   y-rot acc   z-rot acc
    22626  4.74939E-08-7.35437E-05-1.23835E-04-1.82793E-07 9.73908E-05 1.66777E-04-2.84408E-05 2.46812E-04 4.17612E-04



 n o d a l   p r i n t   o u t   f o r   t i m e  s t e p    9801                              ( at time 4.8995097E+00 )

 nodal point  x-disp     y-disp      z-disp      x-vel       y-vel       z-vel      x-accl      y-accl      z-accl      x-coor      y-coor      z-coor
    22626 -1.22338E-02-3.56212E-02-1.53832E+01 7.74963E-03-1.30988E-02-3.16031E+00 1.79070E-02-1.09664E-02-2.68486E-03 4.79519E+01-2.20654E+01-8.04472E+00



 n o d a l   p r i n t   o u t   f o r   t i m e  s t e p    9801                              ( at time 4.8995097E+00 )

 nodal point  x-rot      y-rot       z-rot       x-rot vel   y-rot vel   z-rot vel   x-rot acc   y-rot acc   z-rot acc
    22626  7.20175E-08-6.28963E-05-1.05520E-04-1.12226E-06 1.14427E-04 1.96586E-04-9.39566E-06 1.70375E-04 2.98125E-04



 n o d a l   p r i n t   o u t   f o r   t i m e  s t e p   10001                              ( at time 4.9994997E+00 )

 nodal point  x-disp     y-disp      z-disp      x-vel       y-vel       z-vel      x-accl      y-accl      z-accl      x-coor      y-coor      z-coor
    22626 -1.13454E-02-3.70223E-02-1.56992E+01 9.98450E-03-1.49932E-02-3.16014E+00 2.23508E-02-1.89453E-02 1.66432E-03 4.79528E+01-2.20668E+01-8.36071E+00



 n o d a l   p r i n t   o u t   f o r   t i m e  s t e p   10001                              ( at time 4.9994997E+00 )

 nodal point  x-rot      y-rot       z-rot       x-rot vel   y-rot vel   z-rot vel   x-rot acc   y-rot acc   z-rot acc
    22626 -4.30910E-08-5.05298E-05-8.43225E-05-7.38355E-07 1.32388E-04 2.27352E-04 3.83946E-06 1.79630E-04 3.07685E-04



 n o d a l   p r i n t   o u t   f o r   t i m e  s t e p   10202                              ( at time 5.0999896E+00 )

 nodal point  x-disp     y-disp      z-disp      x-vel       y-vel       z-vel      x-accl      y-accl      z-accl      x-coor      y-coor      z-coor
    22626 -1.02377E-02-3.86003E-02-1.60168E+01 1.19989E-02-1.62285E-02-3.16027E+00 2.00458E-02-1.22934E-02-1.28356E-03 4.79539E+01-2.20684E+01-8.67827E+00



 n o d a l   p r i n t   o u t   f o r   t i m e  s t e p   10202                              ( at time 5.0999896E+00 )

 nodal point  x-rot      y-rot       z-rot       x-rot vel   y-rot vel   z-rot vel   x-rot acc   y-rot acc   z-rot acc
    22626 -1.81015E-07-3.60202E-05-5.96004E-05-2.72844E-06 1.53212E-04 2.62240E-04-1.98039E-05 2.07227E-04 3.47178E-04



 n o d a l   p r i n t   o u t   f o r   t i m e  s t e p   10402                              ( at time 5.1999796E+00 )

 nodal point  x-disp     y-disp      z-disp      x-vel       y-vel       z-vel      x-accl      y-accl      z-accl      x-coor      y-coor      z-coor
    22626 -8.95904E-03-4.02261E-02-1.63328E+01 1.34820E-02-1.59758E-02-3.16137E+00 1.48321E-02 2.52731E-03-1.10041E-02 4.79552E+01-2.20700E+01-8.99431E+00



 n o d a l   p r i n t   o u t   f o r   t i m e  s t e p   10402                              ( at time 5.1999796E+00 )

 nodal point  x-rot      y-rot       z-rot       x-rot vel   y-rot vel   z-rot vel   x-rot acc   y-rot acc   z-rot acc
    22626 -3.77301E-07-1.97147E-05-3.18605E-05-2.43127E-06 1.69171E-04 2.90260E-04 2.97199E-06 1.59603E-04 2.80231E-04



 n o d a l   p r i n t   o u t   f o r   t i m e  s t e p   10602                              ( at time 5.2999696E+00 )

 nodal point  x-disp     y-disp      z-disp      x-vel       y-vel       z-vel      x-accl      y-accl      z-accl      x-coor      y-coor      z-coor
    22626 -7.54768E-03-4.17811E-02-1.66490E+01 1.46475E-02-1.52610E-02-3.16292E+00 1.16569E-02 7.14878E-03-1.54988E-02 4.79566E+01-2.20716E+01-9.31050E+00



 n o d a l   p r i n t   o u t   f o r   t i m e  s t e p   10602                              ( at time 5.2999696E+00 )

 nodal point  x-rot      y-rot       z-rot       x-rot vel   y-rot vel   z-rot vel   x-rot acc   y-rot acc   z-rot acc
    22626 -5.51894E-07-2.10664E-06-1.77848E-06-2.96648E-06 1.81373E-04 3.10617E-04-5.35266E-06 1.22039E-04 2.03587E-04



 n o d a l   p r i n t   o u t   f o r   t i m e  s t e p   10802                              ( at time 5.3999596E+00 )

 nodal point  x-disp     y-disp      z-disp      x-vel       y-vel       z-vel      x-accl      y-accl      z-accl      x-coor      y-coor      z-coor
    22626 -6.02144E-03-4.32818E-02-1.69653E+01 1.61961E-02-1.49077E-02-3.16383E+00 1.54870E-02 3.53324E-03-9.05605E-03 4.79582E+01-2.20731E+01-9.62682E+00



 n o d a l   p r i n t   o u t   f o r   t i m e  s t e p   10802                              ( at time 5.3999596E+00 )

 nodal point  x-rot      y-rot       z-rot       x-rot vel   y-rot vel   z-rot vel   x-rot acc   y-rot acc   z-rot acc
    22626 -8.31874E-07 1.67007E-05 3.05134E-05-4.91090E-06 1.95184E-04 3.34229E-04-1.94461E-05 1.38126E-04 2.36144E-04



 n o d a l   p r i n t   o u t   f o r   t i m e  s t e p   11002                              ( at time 5.4999496E+00 )

 nodal point  x-disp     y-disp      z-disp      x-vel       y-vel       z-vel      x-accl      y-accl      z-accl      x-coor      y-coor      z-coor
    22626 -4.31697E-03-4.46996E-02-1.72816E+01 1.78580E-02-1.32017E-02-3.16240E+00 1.66208E-02 1.70621E-02 1.42636E-02 4.79599E+01-2.20745E+01-9.94312E+00



 n o d a l   p r i n t   o u t   f o r   t i m e  s t e p   11002                              ( at time 5.4999496E+00 )

 nodal point  x-rot      y-rot       z-rot       x-rot vel   y-rot vel   z-rot vel   x-rot acc   y-rot acc   z-rot acc
    22626 -1.23734E-06 3.78908E-05 6.43398E-05 3.14037E-06 2.35159E-04 3.42045E-04 8.05209E-05 3.99786E-04 7.81686E-05



 n o d a l   p r i n t   o u t   f o r   t i m e  s t e p   11202                              ( at time 5.5999396E+00 )

 nodal point  x-disp     y-disp      z-disp      x-vel       y-vel       z-vel      x-accl      y-accl      z-accl      x-coor      y-coor      z-coor
    22626 -2.48872E-03-4.58570E-02-1.75977E+01 1.89871E-02-1.01533E-02-3.15780E+00 1.12927E-02 3.04875E-02 4.60147E-02 4.79617E+01-2.20756E+01-1.02591E+01



 n o d a l   p r i n t   o u t   f o r   t i m e  s t e p   11202                              ( at time 5.5999396E+00 )

 nodal point  x-rot      y-rot       z-rot       x-rot vel   y-rot vel   z-rot vel   x-rot acc   y-rot acc   z-rot acc
    22626  1.80116E-07 6.53611E-05 9.81936E-05 1.78109E-05 3.22729E-04 3.45773E-04 1.46720E-04 8.75791E-04 3.72872E-05



 n o d a l   p r i n t   o u t   f o r   t i m e  s t e p   11402                              ( at time 5.6999296E+00 )

 nodal point  x-disp     y-disp      z-disp      x-vel       y-vel       z-vel      x-accl      y-accl      z-accl      x-coor      y-coor      z-coor
    22626 -5.32486E-04-4.66639E-02-1.79129E+01 2.02456E-02-5.69305E-03-3.14791E+00 1.25859E-02 4.46066E-02 9.89032E-02 4.79636E+01-2.20765E+01-1.05744E+01



 n o d a l   p r i n t   o u t   f o r   t i m e  s t e p   11402                              ( at time 5.6999296E+00 )

 nodal point  x-rot      y-rot       z-rot       x-rot vel   y-rot vel   z-rot vel   x-rot acc   y-rot acc   z-rot acc
    22626  4.11379E-06 1.03868E-04 1.31170E-04 6.78083E-05 4.55654E-04 3.29301E-04 5.00023E-04 1.32937E-03-1.64736E-04



 n o d a l   p r i n t   o u t   f o r   t i m e  s t e p   11602                              ( at time 5.7999195E+00 )

 nodal point  x-disp     y-disp      z-disp      x-vel       y-vel       z-vel      x-accl      y-accl      z-accl      x-coor      y-coor      z-coor
    22626  1.51030E-03-4.69497E-02-1.82270E+01 2.04998E-02 4.90167E-04-3.13183E+00 2.54251E-03 6.18384E-02 1.60851E-01 4.79657E+01-2.20767E+01-1.08885E+01



 n o d a l   p r i n t   o u t   f o r   t i m e  s t e p   11602                              ( at time 5.7999195E+00 )

 nodal point  x-rot      y-rot       z-rot       x-rot vel   y-rot vel   z-rot vel   x-rot acc   y-rot acc   z-rot acc
    22626  1.59432E-05 1.58346E-04 1.60960E-04 1.66516E-04 6.35363E-04 2.81532E-04 9.87181E-04 1.79727E-03-4.77740E-04



 n o d a l   p r i n t   o u t   f o r   t i m e  s t e p   11802                              ( at time 5.8999095E+00 )

 nodal point  x-disp     y-disp      z-disp      x-vel       y-vel       z-vel      x-accl      y-accl      z-accl      x-coor      y-coor      z-coor
    22626  3.62792E-03-4.67452E-02-1.85391E+01 2.16104E-02 4.78458E-03-3.10939E+00 1.11070E-02 4.29485E-02 2.24408E-01 4.79678E+01-2.20765E+01-1.12006E+01



 n o d a l   p r i n t   o u t   f o r   t i m e  s t e p   11802                              ( at time 5.8999095E+00 )

 nodal point  x-rot      y-rot       z-rot       x-rot vel   y-rot vel   z-rot vel   x-rot acc   y-rot acc   z-rot acc
    22626  3.69255E-05 2.33565E-04 1.86373E-04 2.63648E-04 8.77016E-04 2.32429E-04 9.71417E-04 2.41677E-03-4.91076E-04



 n o d a l   p r i n t   o u t   f o r   t i m e  s t e p   12002                              ( at time 5.9998995E+00 )

 nodal point  x-disp     y-disp      z-disp      x-vel       y-vel       z-vel      x-accl      y-accl      z-accl      x-coor      y-coor      z-coor
    22626  5.87104E-03-4.60826E-02-1.88488E+01 2.32082E-02 9.06742E-03-3.08415E+00 1.59797E-02 4.28327E-02 2.52392E-01 4.79701E+01-2.20759E+01-1.15103E+01



 n o d a l   p r i n t   o u t   f o r   t i m e  s t e p   12002                              ( at time 5.9998995E+00 )

 nodal point  x-rot      y-rot       z-rot       x-rot vel   y-rot vel   z-rot vel   x-rot acc   y-rot acc   z-rot acc
    22626  6.85058E-05 3.32904E-04 2.05929E-04 3.70510E-04 1.13504E-03 1.68756E-04 1.06872E-03 2.58054E-03-6.36794E-04



 n o d a l   p r i n t   o u t   f o r   t i m e  s t e p   12202                              ( at time 6.0998895E+00 )

 nodal point  x-disp     y-disp      z-disp      x-vel       y-vel       z-vel      x-accl      y-accl      z-accl      x-coor      y-coor      z-coor
    22626  8.19653E-03-4.47856E-02-1.91558E+01 2.46841E-02 1.46335E-02-3.05630E+00 1.47604E-02 5.56665E-02 2.78569E-01 4.79724E+01-2.20746E+01-1.18173E+01



 n o d a l   p r i n t   o u t   f o r   t i m e  s t e p   12202                              ( at time 6.0998895E+00 )

 nodal point  x-rot      y-rot       z-rot       x-rot vel   y-rot vel   z-rot vel   x-rot acc   y-rot acc   z-rot acc
    22626  1.14001E-04 4.59266E-04 2.17325E-04 5.14838E-04 1.41869E-03 9.33058E-05 1.44342E-03 2.83672E-03-7.54579E-04



 n o d a l   p r i n t   o u t   f o r   t i m e  s t e p   12402                              ( at time 6.1998795E+00 )

 nodal point  x-disp     y-disp      z-disp      x-vel       y-vel       z-vel      x-accl      y-accl      z-accl      x-coor      y-coor      z-coor
    22626  1.06033E-02-4.28584E-02-1.94597E+01 2.48796E-02 2.06621E-02-3.02393E+00 1.95530E-03 6.02922E-02 3.23700E-01 4.79748E+01-2.20726E+01-1.21212E+01



 n o d a l   p r i n t   o u t   f o r   t i m e  s t e p   12402                              ( at time 6.1998795E+00 )

 nodal point  x-rot      y-rot       z-rot       x-rot vel   y-rot vel   z-rot vel   x-rot acc   y-rot acc   z-rot acc
    22626  1.73892E-04 6.16930E-04 2.20499E-04 6.72773E-04 1.74112E-03-4.49016E-06 1.57951E-03 3.22466E-03-9.78059E-04



 n o d a l   p r i n t   o u t   f o r   t i m e  s t e p   12602                              ( at time 6.2998695E+00 )

 nodal point  x-disp     y-disp      z-disp      x-vel       y-vel       z-vel      x-accl      y-accl      z-accl      x-coor      y-coor      z-coor
    22626  1.31474E-02-4.04147E-02-1.97603E+01 2.64404E-02 2.66444E-02-2.98921E+00 1.56096E-02 5.98291E-02 3.47297E-01 4.79773E+01-2.20702E+01-1.24218E+01



 n o d a l   p r i n t   o u t   f o r   t i m e  s t e p   12602                              ( at time 6.2998695E+00 )

 nodal point  x-rot      y-rot       z-rot       x-rot vel   y-rot vel   z-rot vel   x-rot acc   y-rot acc   z-rot acc
    22626  2.48224E-04 8.06512E-04 2.14661E-04 8.16229E-04 2.07977E-03-1.18062E-04 1.43471E-03 3.38686E-03-1.13583E-03



 n o d a l   p r i n t   o u t   f o r   t i m e  s t e p   12802                              ( at time 6.3998595E+00 )

 nodal point  x-disp     y-disp      z-disp      x-vel       y-vel       z-vel      x-accl      y-accl      z-accl      x-coor      y-coor      z-coor
    22626  1.58580E-02-3.73671E-02-2.00573E+01 2.85445E-02 3.36850E-02-2.95292E+00 2.10426E-02 7.04122E-02 3.62891E-01 4.79800E+01-2.20672E+01-1.27188E+01



 n o d a l   p r i n t   o u t   f o r   t i m e  s t e p   12802                              ( at time 6.3998595E+00 )

 nodal point  x-rot      y-rot       z-rot       x-rot vel   y-rot vel   z-rot vel   x-rot acc   y-rot acc   z-rot acc
    22626  3.38532E-04 1.02981E-03 1.97045E-04 9.81030E-04 2.41168E-03-2.26712E-04 1.64818E-03 3.31942E-03-1.08661E-03



 n o d a l   p r i n t   o u t   f o r   t i m e  s t e p   13002                              ( at time 6.4998495E+00 )

 nodal point  x-disp     y-disp      z-disp      x-vel       y-vel       z-vel      x-accl      y-accl      z-accl      x-coor      y-coor      z-coor
    22626  1.87133E-02-3.36442E-02-2.03507E+01 3.02562E-02 3.95929E-02-2.91485E+00 1.71190E-02 5.90854E-02 3.80700E-01 4.79829E+01-2.20634E+01-1.30122E+01



 n o d a l   p r i n t   o u t   f o r   t i m e  s t e p   13002                              ( at time 6.4998495E+00 )

 nodal point  x-rot      y-rot       z-rot       x-rot vel   y-rot vel   z-rot vel   x-rot acc   y-rot acc   z-rot acc
    22626  4.44790E-04 1.28896E-03 1.68942E-04 1.12578E-03 2.75641E-03-3.24462E-04 1.44763E-03 3.44761E-03-9.77600E-04



 n o d a l   p r i n t   o u t   f o r   t i m e  s t e p   13202                              ( at time 6.5998395E+00 )

 nodal point  x-disp     y-disp      z-disp      x-vel       y-vel       z-vel      x-accl      y-accl      z-accl      x-coor      y-coor      z-coor
    22626  2.18757E-02-2.93468E-02-2.06402E+01 3.33676E-02 4.72508E-02-2.87495E+00 3.11171E-02 7.65866E-02 3.99087E-01 4.79861E+01-2.20591E+01-1.33017E+01



 n o d a l   p r i n t   o u t   f o r   t i m e  s t e p   13202                              ( at time 6.5998395E+00 )

 nodal point  x-rot      y-rot       z-rot       x-rot vel   y-rot vel   z-rot vel   x-rot acc   y-rot acc   z-rot acc
    22626  5.65573E-04 1.58116E-03 1.29251E-04 1.27644E-03 3.08399E-03-4.76084E-04 1.50673E-03 3.27609E-03-1.51637E-03



 n o d a l   p r i n t   o u t   f o r   t i m e  s t e p   13402                              ( at time 6.6998295E+00 )

 nodal point  x-disp     y-disp      z-disp      x-vel       y-vel       z-vel      x-accl      y-accl      z-accl      x-coor      y-coor      z-coor
    22626  2.54003E-02-2.44431E-02-2.09258E+01 3.61992E-02 5.27390E-02-2.83554E+00 2.83186E-02 5.48870E-02 3.94136E-01 4.79896E+01-2.20542E+01-1.35873E+01



 n o d a l   p r i n t   o u t   f o r   t i m e  s t e p   13402                              ( at time 6.6998295E+00 )

 nodal point  x-rot      y-rot       z-rot       x-rot vel   y-rot vel   z-rot vel   x-rot acc   y-rot acc   z-rot acc
    22626  7.02426E-04 1.90801E-03 7.73658E-05 1.45097E-03 3.41480E-03-5.87014E-04 1.74547E-03 3.30850E-03-1.10941E-03



 n o d a l   p r i n t   o u t   f o r   t i m e  s t e p   13602                              ( at time 6.7998195E+00 )

 nodal point  x-disp     y-disp      z-disp      x-vel       y-vel       z-vel      x-accl      y-accl      z-accl      x-coor      y-coor      z-coor
    22626  2.93041E-02-1.88912E-02-2.12072E+01 4.11207E-02 5.84570E-02-2.79354E+00 4.92195E-02 5.71857E-02 4.20038E-01 4.79935E+01-2.20487E+01-1.38687E+01



 n o d a l   p r i n t   o u t   f o r   t i m e  s t e p   13602                              ( at time 6.7998195E+00 )

 nodal point  x-rot      y-rot       z-rot       x-rot vel   y-rot vel   z-rot vel   x-rot acc   y-rot acc   z-rot acc
    22626  8.56486E-04 2.26864E-03 1.33796E-05 1.64120E-03 3.76162E-03-7.09154E-04 1.90252E-03 3.46849E-03-1.22153E-03



 n o d a l   p r i n t   o u t   f o r   t i m e  s t e p   13802                              ( at time 6.8998095E+00 )

 nodal point  x-disp     y-disp      z-disp      x-vel       y-vel       z-vel      x-accl      y-accl      z-accl      x-coor      y-coor      z-coor
    22626  3.37511E-02-1.28149E-02-2.14843E+01 4.69854E-02 6.40201E-02-2.74933E+00 5.86530E-02 5.56368E-02 4.42118E-01 4.79979E+01-2.20426E+01-1.41458E+01



 n o d a l   p r i n t   o u t   f o r   t i m e  s t e p   13802                              ( at time 6.8998095E+00 )

 nodal point  x-rot      y-rot       z-rot       x-rot vel   y-rot vel   z-rot vel   x-rot acc   y-rot acc   z-rot acc
    22626  1.02812E-03 2.66084E-03-6.31697E-05 1.81719E-03 4.08616E-03-8.31557E-04 1.76015E-03 3.24575E-03-1.22416E-03



 n o d a l   p r i n t   o u t   f o r   t i m e  s t e p   14002                              ( at time 6.9997995E+00 )

 nodal point  x-disp     y-disp      z-disp      x-vel       y-vel       z-vel      x-accl      y-accl      z-accl      x-coor      y-coor      z-coor
    22626  3.87210E-02-6.08331E-03-2.17570E+01 5.15928E-02 7.01788E-02-2.70737E+00 4.60786E-02 6.15929E-02 4.19645E-01 4.80029E+01-2.20359E+01-1.44185E+01



 n o d a l   p r i n t   o u t   f o r   t i m e  s t e p   14002                              ( at time 6.9997995E+00 )

 nodal point  x-rot      y-rot       z-rot       x-rot vel   y-rot vel   z-rot vel   x-rot acc   y-rot acc   z-rot acc
    22626  1.22001E-03 3.08424E-03-1.51359E-04 2.03479E-03 4.37584E-03-9.36116E-04 2.17615E-03 2.89716E-03-1.04569E-03



 n o d a l   p r i n t   o u t   f o r   t i m e  s t e p   14202                              ( at time 7.0997895E+00 )

 nodal point  x-disp     y-disp      z-disp      x-vel       y-vel       z-vel      x-accl      y-accl      z-accl      x-coor      y-coor      z-coor
    22626  4.41219E-02 1.26971E-03-2.20252E+01 5.57855E-02 7.63510E-02-2.65953E+00 4.19317E-02 6.17286E-02 4.78433E-01 4.80083E+01-2.20285E+01-1.46867E+01



 n o d a l   p r i n t   o u t   f o r   t i m e  s t e p   14202                              ( at time 7.0997895E+00 )

 nodal point  x-rot      y-rot       z-rot       x-rot vel   y-rot vel   z-rot vel   x-rot acc   y-rot acc   z-rot acc
    22626  1.43226E-03 3.53943E-03-2.50314E-04 2.23156E-03 4.70278E-03-1.06174E-03 1.96793E-03 3.26969E-03-1.25637E-03



 n o d a l   p r i n t   o u t   f o r   t i m e  s t e p   14402                              ( at time 7.1997794E+00 )

 nodal point  x-disp     y-disp      z-disp      x-vel       y-vel       z-vel      x-accl      y-accl      z-accl      x-coor      y-coor      z-coor
    22626  5.01081E-02 9.10571E-03-2.22888E+01 6.36631E-02 8.09842E-02-2.61089E+00 7.87840E-02 4.63361E-02 4.86471E-01 4.80143E+01-2.20207E+01-1.49503E+01



 n o d a l   p r i n t   o u t   f o r   t i m e  s t e p   14402                              ( at time 7.1997794E+00 )

 nodal point  x-rot      y-rot       z-rot       x-rot vel   y-rot vel   z-rot vel   x-rot acc   y-rot acc   z-rot acc
    22626  1.66650E-03 4.02239E-03-3.60052E-04 2.44519E-03 4.96808E-03-1.16643E-03 2.13652E-03 2.65322E-03-1.04700E-03



 n o d a l   p r i n t   o u t   f o r   t i m e  s t e p   14602                              ( at time 7.2997694E+00 )

 nodal point  x-disp     y-disp      z-disp      x-vel       y-vel       z-vel      x-accl      y-accl      z-accl      x-coor      y-coor      z-coor
    22626  5.68488E-02 1.73994E-02-2.25473E+01 7.04418E-02 8.46432E-02-2.56005E+00 6.77937E-02 3.65939E-02 5.08481E-01 4.80210E+01-2.20124E+01-1.52088E+01



 n o d a l   p r i n t   o u t   f o r   t i m e  s t e p   14602                              ( at time 7.2997694E+00 )

 nodal point  x-rot      y-rot       z-rot       x-rot vel   y-rot vel   z-rot vel   x-rot acc   y-rot acc   z-rot acc
    22626  1.92260E-03 4.53385E-03-4.81332E-04 2.68106E-03 5.27413E-03-1.25482E-03 2.35895E-03 3.06087E-03-8.83998E-04



 n o d a l   p r i n t   o u t   f o r   t i m e  s t e p   14802                              ( at time 7.3997594E+00 )

 nodal point  x-disp     y-disp      z-disp      x-vel       y-vel       z-vel      x-accl      y-accl      z-accl      x-coor      y-coor      z-coor
    22626  6.42209E-02 2.62952E-02-2.28006E+01 7.71245E-02 9.21033E-02-2.50741E+00 6.68338E-02 7.46087E-02 5.26410E-01 4.80284E+01-2.20035E+01-1.54621E+01



 n o d a l   p r i n t   o u t   f o r   t i m e  s t e p   14802                              ( at time 7.3997594E+00 )

 nodal point  x-rot      y-rot       z-rot       x-rot vel   y-rot vel   z-rot vel   x-rot acc   y-rot acc   z-rot acc
    22626  2.20472E-03 5.07403E-03-6.13372E-04 2.93028E-03 5.54022E-03-1.36314E-03 2.49240E-03 2.66110E-03-1.08332E-03



 n o d a l   p r i n t   o u t   f o r   t i m e  s t e p   15002                              ( at time 7.4997494E+00 )

 nodal point  x-disp     y-disp      z-disp      x-vel       y-vel       z-vel      x-accl      y-accl      z-accl      x-coor      y-coor      z-coor
    22626  7.22949E-02 3.56381E-02-2.30485E+01 8.43083E-02 9.53608E-02-2.45089E+00 7.18453E-02 3.25780E-02 5.65331E-01 4.80365E+01-2.19942E+01-1.57100E+01



 n o d a l   p r i n t   o u t   f o r   t i m e  s t e p   15002                              ( at time 7.4997494E+00 )

 nodal point  x-rot      y-rot       z-rot       x-rot vel   y-rot vel   z-rot vel   x-rot acc   y-rot acc   z-rot acc
    22626  2.50995E-03 5.64135E-03-7.54741E-04 3.18121E-03 5.80437E-03-1.47497E-03 2.50961E-03 2.64177E-03-1.11842E-03



 n o d a l   p r i n t   o u t   f o r   t i m e  s t e p   15202                              ( at time 7.5997394E+00 )

 nodal point  x-disp     y-disp      z-disp      x-vel       y-vel       z-vel      x-accl      y-accl      z-accl      x-coor      y-coor      z-coor
    22626  8.12286E-02 4.53859E-02-2.32906E+01 9.30308E-02 1.00460E-01-2.38995E+00 8.72331E-02 5.09963E-02 6.09419E-01 4.80454E+01-2.19844E+01-1.59521E+01



 n o d a l   p r i n t   o u t   f o r   t i m e  s t e p   15202                              ( at time 7.5997394E+00 )

 nodal point  x-rot      y-rot       z-rot       x-rot vel   y-rot vel   z-rot vel   x-rot acc   y-rot acc   z-rot acc
    22626  2.84198E-03 6.23711E-03-9.07975E-04 3.45741E-03 6.08884E-03-1.58351E-03 2.76219E-03 2.84507E-03-1.08542E-03



 n o d a l   p r i n t   o u t   f o r   t i m e  s t e p   15402                              ( at time 7.6997294E+00 )

 nodal point  x-disp     y-disp      z-disp      x-vel       y-vel       z-vel      x-accl      y-accl      z-accl      x-coor      y-coor      z-coor
    22626  9.09358E-02 5.55855E-02-2.35266E+01 1.01239E-01 1.04102E-01-2.32930E+00 8.20864E-02 3.64285E-02 6.06548E-01 4.80551E+01-2.19742E+01-1.61881E+01



 n o d a l   p r i n t   o u t   f o r   t i m e  s t e p   15402                              ( at time 7.6997294E+00 )

 nodal point  x-rot      y-rot       z-rot       x-rot vel   y-rot vel   z-rot vel   x-rot acc   y-rot acc   z-rot acc
    22626  3.20261E-03 6.85904E-03-1.07029E-03 3.75088E-03 6.36045E-03-1.66568E-03 2.93507E-03 2.71630E-03-8.21810E-04



 n o d a l   p r i n t   o u t   f o r   t i m e  s t e p   15602                              ( at time 7.7997194E+00 )

 nodal point  x-disp     y-disp      z-disp      x-vel       y-vel       z-vel      x-accl      y-accl      z-accl      x-coor      y-coor      z-coor
    22626  1.01435E-01 6.61608E-02-2.37562E+01 1.09567E-01 1.08084E-01-2.26408E+00 8.32886E-02 3.98207E-02 6.52246E-01 4.80656E+01-2.19636E+01-1.64177E+01



 n o d a l   p r i n t   o u t   f o r   t i m e  s t e p   15602                              ( at time 7.7997194E+00 )

 nodal point  x-rot      y-rot       z-rot       x-rot vel   y-rot vel   z-rot vel   x-rot acc   y-rot acc   z-rot acc
    22626  3.59329E-03 7.50884E-03-1.24252E-03 4.06337E-03 6.61924E-03-1.76169E-03 3.12521E-03 2.58820E-03-9.60182E-04



 n o d a l   p r i n t   o u t   f o r   t i m e  s t e p   15802                              ( at time 7.8997094E+00 )

 nodal point  x-disp     y-disp      z-disp      x-vel       y-vel       z-vel      x-accl      y-accl      z-accl      x-coor      y-coor      z-coor
    22626  1.12817E-01 7.71896E-02-2.39794E+01 1.19096E-01 1.11422E-01-2.19993E+00 9.53040E-02 3.33812E-02 6.41554E-01 4.80770E+01-2.19526E+01-1.66409E+01



 n o d a l   p r i n t   o u t   f o r   t i m e  s t e p   15802                              ( at time 7.8997094E+00 )

 nodal point  x-rot      y-rot       z-rot       x-rot vel   y-rot vel   z-rot vel   x-rot acc   y-rot acc   z-rot acc
    22626  4.01557E-03 8.18248E-03-1.42407E-03 4.38042E-03 6.85422E-03-1.86159E-03 3.17080E-03 2.35001E-03-9.99134E-04



 n o d a l   p r i n t   o u t   f o r   t i m e  s t e p   16002                              ( at time 7.9996994E+00 )

 nodal point  x-disp     y-disp      z-disp      x-vel       y-vel       z-vel      x-accl      y-accl      z-accl      x-coor      y-coor      z-coor
    22626  1.25085E-01 8.85071E-02-2.41959E+01 1.27085E-01 1.15465E-01-2.13056E+00 7.98934E-02 4.04335E-02 6.93784E-01 4.80893E+01-2.19413E+01-1.68574E+01



 n o d a l   p r i n t   o u t   f o r   t i m e  s t e p   16002                              ( at time 7.9996994E+00 )

 nodal point  x-rot      y-rot       z-rot       x-rot vel   y-rot vel   z-rot vel   x-rot acc   y-rot acc   z-rot acc
    22626  4.47090E-03 8.88031E-03-1.61466E-03 4.73262E-03 7.10385E-03-1.95407E-03 3.52235E-03 2.49655E-03-9.24889E-04



 n o d a l   p r i n t   o u t   f o r   t i m e  s t e p   16202                              ( at time 8.0996894E+00 )

 nodal point  x-disp     y-disp      z-disp      x-vel       y-vel       z-vel      x-accl      y-accl      z-accl      x-coor      y-coor      z-coor
    22626  1.38216E-01 1.00155E-01-2.44056E+01 1.36262E-01 1.18183E-01-2.06362E+00 9.17852E-02 2.71816E-02 6.69537E-01 4.81024E+01-2.19296E+01-1.70671E+01



 n o d a l   p r i n t   o u t   f o r   t i m e  s t e p   16202                              ( at time 8.0996894E+00 )

 nodal point  x-rot      y-rot       z-rot       x-rot vel   y-rot vel   z-rot vel   x-rot acc   y-rot acc   z-rot acc
    22626  4.96116E-03 9.60110E-03-1.81361E-03 5.08873E-03 7.30667E-03-2.02018E-03 3.56143E-03 2.02844E-03-6.61206E-04



 n o d a l   p r i n t   o u t   f o r   t i m e  s t e p   16402                              ( at time 8.1996794E+00 )

 nodal point  x-disp     y-disp      z-disp      x-vel       y-vel       z-vel      x-accl      y-accl      z-accl      x-coor      y-coor      z-coor
    22626  1.52268E-01 1.12096E-01-2.46085E+01 1.45737E-01 1.20622E-01-1.99433E+00 9.47603E-02 2.43943E-02 6.92948E-01 4.81164E+01-2.19177E+01-1.72700E+01



 n o d a l   p r i n t   o u t   f o r   t i m e  s t e p   16402                              ( at time 8.1996794E+00 )

 nodal point  x-rot      y-rot       z-rot       x-rot vel   y-rot vel   z-rot vel   x-rot acc   y-rot acc   z-rot acc
    22626  5.48476E-03 1.03424E-02-2.02042E-03 5.39946E-03 7.53822E-03-2.09779E-03 3.10764E-03 2.31569E-03-7.76184E-04



 n o d a l   p r i n t   o u t   f o r   t i m e  s t e p   16602                              ( at time 8.2996694E+00 )

 nodal point  x-disp     y-disp      z-disp      x-vel       y-vel       z-vel      x-accl      y-accl      z-accl      x-coor      y-coor      z-coor
    22626  1.67262E-01 1.24390E-01-2.48044E+01 1.54875E-01 1.23495E-01-1.92540E+00 9.13815E-02 2.87361E-02 6.89320E-01 4.81314E+01-2.19054E+01-1.74659E+01



 n o d a l   p r i n t   o u t   f o r   t i m e  s t e p   16602                              ( at time 8.2996694E+00 )

 nodal point  x-rot      y-rot       z-rot       x-rot vel   y-rot vel   z-rot vel   x-rot acc   y-rot acc   z-rot acc
    22626  6.04369E-03 1.11053E-02-2.23534E-03 5.77323E-03 7.72646E-03-2.16552E-03 3.73803E-03 1.88261E-03-6.77343E-04



 n o d a l   p r i n t   o u t   f o r   t i m e  s t e p   16802                              ( at time 8.3996594E+00 )

 nodal point  x-disp     y-disp      z-disp      x-vel       y-vel       z-vel      x-accl      y-accl      z-accl      x-coor      y-coor      z-coor
    22626  1.83141E-01 1.36864E-01-2.49933E+01 1.63226E-01 1.25248E-01-1.85328E+00 8.35278E-02 1.75252E-02 7.21264E-01 4.81473E+01-2.18929E+01-1.76548E+01



 n o d a l   p r i n t   o u t   f o r   t i m e  s t e p   16802                              ( at time 8.3996594E+00 )

 nodal point  x-rot      y-rot       z-rot       x-rot vel   y-rot vel   z-rot vel   x-rot acc   y-rot acc   z-rot acc
    22626  6.63822E-03 1.18867E-02-2.45708E-03 6.11693E-03 7.89923E-03-2.24703E-03 3.43741E-03 1.72783E-03-8.15185E-04



 n o d a l   p r i n t   o u t   f o r   t i m e  s t e p   17002                              ( at time 8.4996494E+00 )

 nodal point  x-disp     y-disp      z-disp      x-vel       y-vel       z-vel      x-accl      y-accl      z-accl      x-coor      y-coor      z-coor
    22626  2.00072E-01 1.49466E-01-2.51750E+01 1.73832E-01 1.26794E-01-1.78027E+00 1.06062E-01 1.54700E-02 7.30207E-01 4.81643E+01-2.18803E+01-1.78365E+01



 n o d a l   p r i n t   o u t   f o r   t i m e  s t e p   17002                              ( at time 8.4996494E+00 )

 nodal point  x-rot      y-rot       z-rot       x-rot vel   y-rot vel   z-rot vel   x-rot acc   y-rot acc   z-rot acc
    22626  7.26790E-03 1.26827E-02-2.68629E-03 6.48617E-03 8.04064E-03-2.32433E-03 3.69276E-03 1.41428E-03-7.73083E-04



 n o d a l   p r i n t   o u t   f o r   t i m e  s t e p   17202                              ( at time 8.5996394E+00 )

 nodal point  x-disp     y-disp      z-disp      x-vel       y-vel       z-vel      x-accl      y-accl      z-accl      x-coor      y-coor      z-coor
    22626  2.17935E-01 1.62116E-01-2.53493E+01 1.82804E-01 1.27009E-01-1.70749E+00 8.97297E-02 2.14315E-03 7.27924E-01 4.81821E+01-2.18677E+01-1.80108E+01



 n o d a l   p r i n t   o u t   f o r   t i m e  s t e p   17202                              ( at time 8.5996394E+00 )

 nodal point  x-rot      y-rot       z-rot       x-rot vel   y-rot vel   z-rot vel   x-rot acc   y-rot acc   z-rot acc
    22626  7.93627E-03 1.34945E-02-2.92155E-03 6.87383E-03 8.18855E-03-2.38725E-03 3.87697E-03 1.47923E-03-6.29228E-04



 n o d a l   p r i n t   o u t   f o r   t i m e  s t e p   17402                              ( at time 8.6996293E+00 )

 nodal point  x-disp     y-disp      z-disp      x-vel       y-vel       z-vel      x-accl      y-accl      z-accl      x-coor      y-coor      z-coor
    22626  2.36702E-01 1.74818E-01-2.55163E+01 1.92187E-01 1.26725E-01-1.63380E+00 9.38390E-02-2.83893E-03 7.36953E-01 4.82009E+01-2.18550E+01-1.81778E+01



 n o d a l   p r i n t   o u t   f o r   t i m e  s t e p   17402                              ( at time 8.6996293E+00 )

 nodal point  x-rot      y-rot       z-rot       x-rot vel   y-rot vel   z-rot vel   x-rot acc   y-rot acc   z-rot acc
    22626  8.64116E-03 1.43212E-02-3.16462E-03 7.22523E-03 8.31949E-03-2.46738E-03 3.51431E-03 1.30949E-03-8.01397E-04



 n o d a l   p r i n t   o u t   f o r   t i m e  s t e p   17602                              ( at time 8.7996193E+00 )

 nodal point  x-disp     y-disp      z-disp      x-vel       y-vel       z-vel      x-accl      y-accl      z-accl      x-coor      y-coor      z-coor
    22626  2.56390E-01 1.87325E-01-2.56760E+01 2.01677E-01 1.24284E-01-1.55920E+00 9.49149E-02-2.44132E-02 7.46030E-01 4.82206E+01-2.18425E+01-1.83375E+01



 n o d a l   p r i n t   o u t   f o r   t i m e  s t e p   17602                              ( at time 8.7996193E+00 )

 nodal point  x-rot      y-rot       z-rot       x-rot vel   y-rot vel   z-rot vel   x-rot acc   y-rot acc   z-rot acc
    22626  9.38280E-03 1.51586E-02-3.41374E-03 7.59981E-03 8.45367E-03-2.52422E-03 3.74616E-03 1.34201E-03-5.68397E-04



 n o d a l   p r i n t   o u t   f o r   t i m e  s t e p   17802                              ( at time 8.8996093E+00 )

 nodal point  x-disp     y-disp      z-disp      x-vel       y-vel       z-vel      x-accl      y-accl      z-accl      x-coor      y-coor      z-coor
    22626  2.76967E-01 1.99605E-01-2.58281E+01 2.09733E-01 1.21166E-01-1.48370E+00 8.05658E-02-3.11835E-02 7.55066E-01 4.82411E+01-2.18302E+01-1.84896E+01



 n o d a l   p r i n t   o u t   f o r   t i m e  s t e p   17802                              ( at time 8.8996093E+00 )

 nodal point  x-rot      y-rot       z-rot       x-rot vel   y-rot vel   z-rot vel   x-rot acc   y-rot acc   z-rot acc
    22626  1.01638E-02 1.60094E-02-3.66909E-03 8.02231E-03 8.55693E-03-2.57978E-03 4.22551E-03 1.03264E-03-5.55658E-04



 n o d a l   p r i n t   o u t   f o r   t i m e  s t e p   18002                              ( at time 8.9995993E+00 )

 nodal point  x-disp     y-disp      z-disp      x-vel       y-vel       z-vel      x-accl      y-accl      z-accl      x-coor      y-coor      z-coor
    22626  2.98349E-01 2.11606E-01-2.59728E+01 2.17850E-01 1.17433E-01-1.40939E+00 8.11796E-02-3.73342E-02 7.43244E-01 4.82625E+01-2.18182E+01-1.86343E+01



 n o d a l   p r i n t   o u t   f o r   t i m e  s t e p   18002                              ( at time 8.9995993E+00 )

 nodal point  x-rot      y-rot       z-rot       x-rot vel   y-rot vel   z-rot vel   x-rot acc   y-rot acc   z-rot acc
    22626  1.09849E-02 1.68715E-02-3.93151E-03 8.38676E-03 8.67885E-03-2.65262E-03 3.64482E-03 1.21937E-03-7.28519E-04



 n o d a l   p r i n t   o u t   f o r   t i m e  s t e p   18202                              ( at time 9.0995893E+00 )

 nodal point  x-disp     y-disp      z-disp      x-vel       y-vel       z-vel      x-accl      y-accl      z-accl      x-coor      y-coor      z-coor
    22626  3.20555E-01 2.23055E-01-2.61099E+01 2.26363E-01 1.12339E-01-1.33310E+00 8.51346E-02-5.09432E-02 7.62913E-01 4.82847E+01-2.18067E+01-1.87714E+01



 n o d a l   p r i n t   o u t   f o r   t i m e  s t e p   18202                              ( at time 9.0995893E+00 )

 nodal point  x-rot      y-rot       z-rot       x-rot vel   y-rot vel   z-rot vel   x-rot acc   y-rot acc   z-rot acc
    22626  1.18409E-02 1.77437E-02-4.20044E-03 8.75237E-03 8.77832E-03-2.72131E-03 3.65652E-03 9.94762E-04-6.86941E-04



 n o d a l   p r i n t   o u t   f o r   t i m e  s t e p   18402                              ( at time 9.1995793E+00 )

 nodal point  x-disp     y-disp      z-disp      x-vel       y-vel       z-vel      x-accl      y-accl      z-accl      x-coor      y-coor      z-coor
    22626  3.43558E-01 2.34194E-01-2.62393E+01 2.33782E-01 1.09668E-01-1.25594E+00 7.42025E-02-2.67121E-02 7.71716E-01 4.83077E+01-2.17956E+01-1.89008E+01



 n o d a l   p r i n t   o u t   f o r   t i m e  s t e p   18402                              ( at time 9.1995793E+00 )

 nodal point  x-rot      y-rot       z-rot       x-rot vel   y-rot vel   z-rot vel   x-rot acc   y-rot acc   z-rot acc
    22626  1.27397E-02 1.86253E-02-4.47592E-03 9.20885E-03 8.85023E-03-2.78640E-03 4.56521E-03 7.19221E-04-6.50958E-04



 n o d a l   p r i n t   o u t   f o r   t i m e  s t e p   18602                              ( at time 9.2995693E+00 )

 nodal point  x-disp     y-disp      z-disp      x-vel       y-vel       z-vel      x-accl      y-accl      z-accl      x-coor      y-coor      z-coor
    22626  3.67336E-01 2.44914E-01-2.63608E+01 2.42084E-01 1.04199E-01-1.17633E+00 8.30244E-02-5.46957E-02 7.96176E-01 4.83315E+01-2.17849E+01-1.90223E+01



 n o d a l   p r i n t   o u t   f o r   t i m e  s t e p   18602                              ( at time 9.2995693E+00 )

 nodal point  x-rot      y-rot       z-rot       x-rot vel   y-rot vel   z-rot vel   x-rot acc   y-rot acc   z-rot acc
    22626  1.36792E-02 1.95155E-02-4.75863E-03 9.58798E-03 8.94424E-03-2.87242E-03 3.79171E-03 9.40135E-04-8.60308E-04



 n o d a l   p r i n t   o u t   f o r   t i m e  s t e p   18802                              ( at time 9.3995593E+00 )

 nodal point  x-disp     y-disp      z-disp      x-vel       y-vel       z-vel      x-accl      y-accl      z-accl      x-coor      y-coor      z-coor
    22626  3.91953E-01 2.54940E-01-2.64746E+01 2.49600E-01 9.87086E-02-1.09771E+00 7.51710E-02-5.49084E-02 7.86253E-01 4.83561E+01-2.17748E+01-1.91361E+01



 n o d a l   p r i n t   o u t   f o r   t i m e  s t e p   18802                              ( at time 9.3995593E+00 )

 nodal point  x-rot      y-rot       z-rot       x-rot vel   y-rot vel   z-rot vel   x-rot acc   y-rot acc   z-rot acc
    22626  1.46578E-02 2.04116E-02-5.04729E-03 1.00063E-02 8.98819E-03-2.92949E-03 4.18321E-03 4.39601E-04-5.70805E-04



 n o d a l   p r i n t   o u t   f o r   t i m e  s t e p   19002                              ( at time 9.4995493E+00 )

 nodal point  x-disp     y-disp      z-disp      x-vel       y-vel       z-vel      x-accl      y-accl      z-accl      x-coor      y-coor      z-coor
    22626  4.17250E-01 2.64572E-01-2.65804E+01 2.56230E-01 9.35031E-02-1.02030E+00 6.63050E-02-5.20604E-02 7.74166E-01 4.83814E+01-2.17652E+01-1.92419E+01



 n o d a l   p r i n t   o u t   f o r   t i m e  s t e p   19002                              ( at time 9.4995493E+00 )

 nodal point  x-rot      y-rot       z-rot       x-rot vel   y-rot vel   z-rot vel   x-rot acc   y-rot acc   z-rot acc
    22626  1.56798E-02 2.13161E-02-5.34378E-03 1.04175E-02 9.08909E-03-3.00163E-03 4.11311E-03 1.00901E-03-7.21399E-04



 n o d a l   p r i n t   o u t   f o r   t i m e  s t e p   19202                              ( at time 9.5995393E+00 )

 nodal point  x-disp     y-disp      z-disp      x-vel       y-vel       z-vel      x-accl      y-accl      z-accl      x-coor      y-coor      z-coor
    22626  4.43180E-01 2.73619E-01-2.66785E+01 2.62022E-01 8.78559E-02-9.42282E-01 5.79264E-02-5.64770E-02 7.80281E-01 4.84074E+01-2.17562E+01-1.93400E+01



 n o d a l   p r i n t   o u t   f o r   t i m e  s t e p   19202                              ( at time 9.5995393E+00 )

 nodal point  x-rot      y-rot       z-rot       x-rot vel   y-rot vel   z-rot vel   x-rot acc   y-rot acc   z-rot acc
    22626  1.67400E-02 2.22281E-02-5.64734E-03 1.08080E-02 9.13044E-03-3.07907E-03 3.90524E-03 4.13601E-04-7.74482E-04



 n o d a l   p r i n t   o u t   f o r   t i m e  s t e p   19402                              ( at time 9.6995293E+00 )

 nodal point  x-disp     y-disp      z-disp      x-vel       y-vel       z-vel      x-accl      y-accl      z-accl      x-coor      y-coor      z-coor
    22626  4.69711E-01 2.81984E-01-2.67689E+01 2.68582E-01 7.99059E-02-8.65921E-01 6.56036E-02-7.95083E-02 7.63687E-01 4.84339E+01-2.17478E+01-1.94304E+01



 n o d a l   p r i n t   o u t   f o r   t i m e  s t e p   19402                              ( at time 9.6995293E+00 )

 nodal point  x-rot      y-rot       z-rot       x-rot vel   y-rot vel   z-rot vel   x-rot acc   y-rot acc   z-rot acc
    22626  1.78415E-02 2.31455E-02-5.95748E-03 1.12045E-02 9.21978E-03-3.16421E-03 3.96477E-03 8.93471E-04-8.51531E-04



 n o d a l   p r i n t   o u t   f o r   t i m e  s t e p   19602                              ( at time 9.7995193E+00 )

 nodal point  x-disp     y-disp      z-disp      x-vel       y-vel       z-vel      x-accl      y-accl      z-accl      x-coor      y-coor      z-coor
    22626  4.96849E-01 2.89590E-01-2.68517E+01 2.73944E-01 7.28311E-02-7.90546E-01 5.36299E-02-7.07548E-02 7.53827E-01 4.84610E+01-2.17402E+01-1.95132E+01



 n o d a l   p r i n t   o u t   f o r   t i m e  s t e p   19602                              ( at time 9.7995193E+00 )

 nodal point  x-rot      y-rot       z-rot       x-rot vel   y-rot vel   z-rot vel   x-rot acc   y-rot acc   z-rot acc
    22626  1.89789E-02 2.40729E-02-6.27585E-03 1.15607E-02 9.30194E-03-3.22824E-03 3.56307E-03 8.21714E-04-6.40386E-04



 n o d a l   p r i n t   o u t   f o r   t i m e  s t e p   19802                              ( at time 9.8995093E+00 )

 nodal point  x-disp     y-disp      z-disp      x-vel       y-vel       z-vel      x-accl      y-accl      z-accl      x-coor      y-coor      z-coor
    22626  5.24467E-01 2.96538E-01-2.69269E+01 2.77102E-01 6.83711E-02-7.13933E-01 3.15856E-02-4.46043E-02 7.66199E-01 4.84886E+01-2.17333E+01-1.95884E+01



 n o d a l   p r i n t   o u t   f o r   t i m e  s t e p   19802                              ( at time 9.8995093E+00 )

 nodal point  x-rot      y-rot       z-rot       x-rot vel   y-rot vel   z-rot vel   x-rot acc   y-rot acc   z-rot acc
    22626  2.01558E-02 2.50099E-02-6.60040E-03 1.19886E-02 9.41332E-03-3.32665E-03 4.27884E-03 1.11386E-03-9.84165E-04



 n o d a l   p r i n t   o u t   f o r   t i m e  s t e p   20003                              ( at time 9.9999992E+00 )

 nodal point  x-disp     y-disp      z-disp      x-vel       y-vel       z-vel      x-accl      y-accl      z-accl      x-coor      y-coor      z-coor
[...]
    22626  2.41802E-01 1.41715E-01-6.66551E-02 1.79773E-02 7.25828E-03-5.71641E-03-1.04374E-04 2.23235E-04 3.02652E-04



 n o d a l   p r i n t   o u t   f o r   t i m e  s t e p   45205                              ( at time 2.2599738E+01 )

 nodal point  x-disp     y-disp      z-disp      x-vel       y-vel       z-vel      x-accl      y-accl      z-accl      x-coor      y-coor      z-coor
    22626  4.39248E+00-2.37254E-02-2.20976E+01 2.65992E-01-8.78198E-02 4.42370E-01 5.78477E-02 1.88074E-02 2.18176E-02 5.23567E+01-2.20535E+01-1.47591E+01



 n o d a l   p r i n t   o u t   f o r   t i m e  s t e p   45205                              ( at time 2.2599738E+01 )

 nodal point  x-rot      y-rot       z-rot       x-rot vel   y-rot vel   z-rot vel   x-rot acc   y-rot acc   z-rot acc
    22626  2.43599E-01 1.42443E-01-6.72261E-02 1.79595E-02 7.30104E-03-5.70433E-03-1.77508E-04 4.27637E-04 1.20752E-04



 n o d a l   p r i n t   o u t   f o r   t i m e  s t e p   45405                              ( at time 2.2699728E+01 )

 nodal point  x-disp     y-disp      z-disp      x-vel       y-vel       z-vel      x-accl      y-accl      z-accl      x-coor      y-coor      z-coor
    22626  4.41942E+00-3.24890E-02-2.20533E+01 2.72942E-01-8.71727E-02 4.42929E-01 6.95150E-02 6.47140E-03 5.58796E-03 5.23836E+01-2.20623E+01-1.47148E+01



 n o d a l   p r i n t   o u t   f o r   t i m e  s t e p   45405                              ( at time 2.2699728E+01 )

 nodal point  x-rot      y-rot       z-rot       x-rot vel   y-rot vel   z-rot vel   x-rot acc   y-rot acc   z-rot acc
    22626  2.45394E-01 1.43175E-01-6.77958E-02 1.79489E-02 7.34421E-03-5.69287E-03-1.05959E-04 4.31753E-04 1.14649E-04



 n o d a l   p r i n t   o u t   f o r   t i m e  s t e p   45605                              ( at time 2.2799718E+01 )

 nodal point  x-disp     y-disp      z-disp      x-vel       y-vel       z-vel      x-accl      y-accl      z-accl      x-coor      y-coor      z-coor
    22626  4.44711E+00-4.11986E-02-2.20089E+01 2.81038E-01-8.70052E-02 4.44947E-01 8.09633E-02 1.67475E-03 2.01810E-02 5.24113E+01-2.20710E+01-1.46704E+01



 n o d a l   p r i n t   o u t   f o r   t i m e  s t e p   45605                              ( at time 2.2799718E+01 )

 nodal point  x-rot      y-rot       z-rot       x-rot vel   y-rot vel   z-rot vel   x-rot acc   y-rot acc   z-rot acc
    22626  2.47187E-01 1.43912E-01-6.83637E-02 1.79231E-02 7.39692E-03-5.67407E-03-2.58242E-04 5.27168E-04 1.88023E-04



 n o d a l   p r i n t   o u t   f o r   t i m e  s t e p   45805                              ( at time 2.2899708E+01 )

 nodal point  x-disp     y-disp      z-disp      x-vel       y-vel       z-vel      x-accl      y-accl      z-accl      x-coor      y-coor      z-coor
    22626  4.47556E+00-4.98819E-02-2.19644E+01 2.88027E-01-8.67512E-02 4.45902E-01 6.98960E-02 2.54056E-03 9.55389E-03 5.24397E+01-2.20797E+01-1.46259E+01



 n o d a l   p r i n t   o u t   f o r   t i m e  s t e p   45805                              ( at time 2.2899708E+01 )

 nodal point  x-rot      y-rot       z-rot       x-rot vel   y-rot vel   z-rot vel   x-rot acc   y-rot acc   z-rot acc
    22626  2.48979E-01 1.44654E-01-6.89308E-02 1.79266E-02 7.43047E-03-5.66199E-03 3.46677E-05 3.35588E-04 1.20778E-04



 n o d a l   p r i n t   o u t   f o r   t i m e  s t e p   46005                              ( at time 2.2999698E+01 )

 nodal point  x-disp     y-disp      z-disp      x-vel       y-vel       z-vel      x-accl      y-accl      z-accl      x-coor      y-coor      z-coor
    22626  4.50466E+00-5.84983E-02-2.19197E+01 2.95221E-01-8.61437E-02 4.47493E-01 7.19449E-02 6.07524E-03 1.59135E-02 5.24688E+01-2.20883E+01-1.45812E+01



 n o d a l   p r i n t   o u t   f o r   t i m e  s t e p   46005                              ( at time 2.2999698E+01 )

 nodal point  x-rot      y-rot       z-rot       x-rot vel   y-rot vel   z-rot vel   x-rot acc   y-rot acc   z-rot acc
    22626  2.50771E-01 1.45399E-01-6.94958E-02 1.79034E-02 7.47989E-03-5.63555E-03-2.31790E-04 4.94196E-04 2.64389E-04



 n o d a l   p r i n t   o u t   f o r   t i m e  s t e p   46205                              ( at time 2.3099688E+01 )

 nodal point  x-disp     y-disp      z-disp      x-vel       y-vel       z-vel      x-accl      y-accl      z-accl      x-coor      y-coor      z-coor
    22626  4.53458E+00-6.71431E-02-2.18749E+01 3.02800E-01-8.69554E-02 4.49116E-01 7.57987E-02-8.11771E-03 1.62339E-02 5.24988E+01-2.20969E+01-1.45364E+01



 n o d a l   p r i n t   o u t   f o r   t i m e  s t e p   46205                              ( at time 2.3099688E+01 )

 nodal point  x-rot      y-rot       z-rot       x-rot vel   y-rot vel   z-rot vel   x-rot acc   y-rot acc   z-rot acc
    22626  2.52561E-01 1.46150E-01-7.00586E-02 1.78956E-02 7.54225E-03-5.61878E-03-7.80907E-05 6.23669E-04 1.67778E-04



 n o d a l   p r i n t   o u t   f o r   t i m e  s t e p   46405                              ( at time 2.3199678E+01 )

 nodal point  x-disp     y-disp      z-disp      x-vel       y-vel       z-vel      x-accl      y-accl      z-accl      x-coor      y-coor      z-coor
    22626  4.56521E+00-7.58506E-02-2.18299E+01 3.09508E-01-8.71940E-02 4.50541E-01 6.70947E-02-2.38567E-03 1.42480E-02 5.25294E+01-2.21056E+01-1.44914E+01



 n o d a l   p r i n t   o u t   f o r   t i m e  s t e p   46405                              ( at time 2.3199678E+01 )

 nodal point  x-rot      y-rot       z-rot       x-rot vel   y-rot vel   z-rot vel   x-rot acc   y-rot acc   z-rot acc
    22626  2.54351E-01 1.46906E-01-7.06199E-02 1.79020E-02 7.57755E-03-5.61075E-03 6.43603E-05 3.53041E-04 8.02874E-05



 n o d a l   p r i n t   o u t   f o r   t i m e  s t e p   46605                              ( at time 2.3299668E+01 )

 nodal point  x-disp     y-disp      z-disp      x-vel       y-vel       z-vel      x-accl      y-accl      z-accl      x-coor      y-coor      z-coor
    22626  4.59651E+00-8.46063E-02-2.17848E+01 3.16826E-01-8.81283E-02 4.51783E-01 7.31874E-02-9.34458E-03 1.24212E-02 5.25607E+01-2.21144E+01-1.44463E+01



 n o d a l   p r i n t   o u t   f o r   t i m e  s t e p   46605                              ( at time 2.3299668E+01 )

 nodal point  x-rot      y-rot       z-rot       x-rot vel   y-rot vel   z-rot vel   x-rot acc   y-rot acc   z-rot acc
    22626  2.56140E-01 1.47666E-01-7.11794E-02 1.78815E-02 7.62438E-03-5.58043E-03-2.05845E-04 4.68349E-04 3.03254E-04



 n o d a l   p r i n t   o u t   f o r   t i m e  s t e p   46805                              ( at time 2.3399658E+01 )

 nodal point  x-disp     y-disp      z-disp      x-vel       y-vel       z-vel      x-accl      y-accl      z-accl      x-coor      y-coor      z-coor
    22626  4.62856E+00-9.34626E-02-2.17395E+01 3.24229E-01-8.94224E-02 4.53368E-01 7.40301E-02-1.29418E-02 1.58521E-02 5.25927E+01-2.21233E+01-1.44010E+01



 n o d a l   p r i n t   o u t   f o r   t i m e  s t e p   46805                              ( at time 2.3399658E+01 )

 nodal point  x-rot      y-rot       z-rot       x-rot vel   y-rot vel   z-rot vel   x-rot acc   y-rot acc   z-rot acc
    22626  2.57927E-01 1.48431E-01-7.17363E-02 1.78777E-02 7.67961E-03-5.55856E-03-3.74612E-05 5.52399E-04 2.18699E-04



 n o d a l   p r i n t   o u t   f o r   t i m e  s t e p   47005                              ( at time 2.3499648E+01 )

 nodal point  x-disp     y-disp      z-disp      x-vel       y-vel       z-vel      x-accl      y-accl      z-accl      x-coor      y-coor      z-coor
    22626  4.66129E+00-1.02495E-01-2.16941E+01 3.30436E-01-9.09354E-02 4.55073E-01 6.20827E-02-1.51321E-02 1.70467E-02 5.26255E+01-2.21323E+01-1.43556E+01



 n o d a l   p r i n t   o u t   f o r   t i m e  s t e p   47005                              ( at time 2.3499648E+01 )

 nodal point  x-rot      y-rot       z-rot       x-rot vel   y-rot vel   z-rot vel   x-rot acc   y-rot acc   z-rot acc
    22626  2.59715E-01 1.49202E-01-7.22910E-02 1.78771E-02 7.72700E-03-5.53443E-03-6.44534E-06 4.73956E-04 2.41351E-04



 n o d a l   p r i n t   o u t   f o r   t i m e  s t e p   47205                              ( at time 2.3599638E+01 )

 nodal point  x-disp     y-disp      z-disp      x-vel       y-vel       z-vel      x-accl      y-accl      z-accl      x-coor      y-coor      z-coor
    22626  4.69464E+00-1.11652E-01-2.16486E+01 3.36446E-01-9.24920E-02 4.55869E-01 6.00995E-02-1.55670E-02 7.96883E-03 5.26588E+01-2.21414E+01-1.43101E+01



 n o d a l   p r i n t   o u t   f o r   t i m e  s t e p   47205                              ( at time 2.3599638E+01 )

 nodal point  x-rot      y-rot       z-rot       x-rot vel   y-rot vel   z-rot vel   x-rot acc   y-rot acc   z-rot acc
    22626  2.61502E-01 1.49977E-01-7.28429E-02 1.78683E-02 7.77049E-03-5.49797E-03-8.75167E-05 4.34859E-04 3.64574E-04



 n o d a l   p r i n t   o u t   f o r   t i m e  s t e p   47405                              ( at time 2.3699628E+01 )

 nodal point  x-disp     y-disp      z-disp      x-vel       y-vel       z-vel      x-accl      y-accl      z-accl      x-coor      y-coor      z-coor
    22626  4.72860E+00-1.21015E-01-2.16029E+01 3.42690E-01-9.49020E-02 4.57474E-01 6.24440E-02-2.41025E-02 1.60432E-02 5.26928E+01-2.21508E+01-1.42644E+01



 n o d a l   p r i n t   o u t   f o r   t i m e  s t e p   47405                              ( at time 2.3699628E+01 )

 nodal point  x-rot      y-rot       z-rot       x-rot vel   y-rot vel   z-rot vel   x-rot acc   y-rot acc   z-rot acc
    22626  2.63289E-01 1.50755E-01-7.33916E-02 1.78697E-02 7.81369E-03-5.47482E-03 1.39152E-05 4.32094E-04 2.31539E-04



 n o d a l   p r i n t   o u t   f o r   t i m e  s t e p   47605                              ( at time 2.3799618E+01 )

 nodal point  x-disp     y-disp      z-disp      x-vel       y-vel       z-vel      x-accl      y-accl      z-accl      x-coor      y-coor      z-coor
    22626  4.76313E+00-1.30603E-01-2.15571E+01 3.47853E-01-9.70369E-02 4.57843E-01 5.16400E-02-2.13510E-02 3.69262E-03 5.27273E+01-2.21604E+01-1.42186E+01



 n o d a l   p r i n t   o u t   f o r   t i m e  s t e p   47605                              ( at time 2.3799618E+01 )

 nodal point  x-rot      y-rot       z-rot       x-rot vel   y-rot vel   z-rot vel   x-rot acc   y-rot acc   z-rot acc
    22626  2.65076E-01 1.51538E-01-7.39379E-02 1.78766E-02 7.84918E-03-5.43877E-03 6.90186E-05 3.54901E-04 3.60569E-04



 n o d a l   p r i n t   o u t   f o r   t i m e  s t e p   47805                              ( at time 2.3899608E+01 )

 nodal point  x-disp     y-disp      z-disp      x-vel       y-vel       z-vel      x-accl      y-accl      z-accl      x-coor      y-coor      z-coor
    22626  4.79811E+00-1.40392E-01-2.15113E+01 3.52116E-01-9.88026E-02 4.58486E-01 4.26361E-02-1.76590E-02 6.42955E-03 5.27623E+01-2.21702E+01-1.41728E+01



 n o d a l   p r i n t   o u t   f o r   t i m e  s t e p   47805                              ( at time 2.3899608E+01 )

 nodal point  x-rot      y-rot       z-rot       x-rot vel   y-rot vel   z-rot vel   x-rot acc   y-rot acc   z-rot acc
    22626  2.66863E-01 1.52325E-01-7.44802E-02 1.78770E-02 7.87678E-03-5.40409E-03 4.09819E-06 2.76032E-04 3.46796E-04



 n o d a l   p r i n t   o u t   f o r   t i m e  s t e p   48005                              ( at time 2.3999598E+01 )

 nodal point  x-disp     y-disp      z-disp      x-vel       y-vel       z-vel      x-accl      y-accl      z-accl      x-coor      y-coor      z-coor
    22626  4.83353E+00-1.50379E-01-2.14655E+01 3.56277E-01-1.00970E-01 4.58787E-01 4.16140E-02-2.16802E-02 3.01037E-03 5.27977E+01-2.21802E+01-1.41270E+01



 n o d a l   p r i n t   o u t   f o r   t i m e  s t e p   48005                              ( at time 2.3999598E+01 )

 nodal point  x-rot      y-rot       z-rot       x-rot vel   y-rot vel   z-rot vel   x-rot acc   y-rot acc   z-rot acc
    22626  2.68651E-01 1.53113E-01-7.50189E-02 1.78804E-02 7.90618E-03-5.36949E-03 3.37921E-05 2.94004E-04 3.46099E-04



 n o d a l   p r i n t   o u t   f o r   t i m e  s t e p   48205                              ( at time 2.4099588E+01 )

 nodal point  x-disp     y-disp      z-disp      x-vel       y-vel       z-vel      x-accl      y-accl      z-accl      x-coor      y-coor      z-coor
    22626  4.86936E+00-1.60594E-01-2.14196E+01 3.59988E-01-1.03448E-01 4.59219E-01 3.71091E-02-2.47749E-02 4.32024E-03 5.28335E+01-2.21904E+01-1.40811E+01



 n o d a l   p r i n t   o u t   f o r   t i m e  s t e p   48205                              ( at time 2.4099588E+01 )

 nodal point  x-rot      y-rot       z-rot       x-rot vel   y-rot vel   z-rot vel   x-rot acc   y-rot acc   z-rot acc
    22626  2.70439E-01 1.53906E-01-7.55541E-02 1.78849E-02 7.93557E-03-5.33586E-03 4.49311E-05 2.93980E-04 3.36280E-04



 n o d a l   p r i n t   o u t   f o r   t i m e  s t e p   48405                              ( at time 2.4199578E+01 )

 nodal point  x-disp     y-disp      z-disp      x-vel       y-vel       z-vel      x-accl      y-accl      z-accl      x-coor      y-coor      z-coor
    22626  4.90549E+00-1.71021E-01-2.13736E+01 3.62381E-01-1.05197E-01 4.60062E-01 2.39381E-02-1.74919E-02 8.42933E-03 5.28697E+01-2.22008E+01-1.40351E+01



 n o d a l   p r i n t   o u t   f o r   t i m e  s t e p   48405                              ( at time 2.4199578E+01 )

 nodal point  x-rot      y-rot       z-rot       x-rot vel   y-rot vel   z-rot vel   x-rot acc   y-rot acc   z-rot acc
    22626  2.72227E-01 1.54700E-01-7.60856E-02 1.78835E-02 7.95133E-03-5.29287E-03-1.38969E-05 1.57569E-04 4.30011E-04



 n o d a l   p r i n t   o u t   f o r   t i m e  s t e p   48605                              ( at time 2.4299568E+01 )

 nodal point  x-disp     y-disp      z-disp      x-vel       y-vel       z-vel      x-accl      y-accl      z-accl      x-coor      y-coor      z-coor
    22626  4.94183E+00-1.81559E-01-2.13275E+01 3.64959E-01-1.05921E-01 4.61918E-01 2.57760E-02-7.24203E-03 1.85644E-02 5.29060E+01-2.22113E+01-1.39890E+01



 n o d a l   p r i n t   o u t   f o r   t i m e  s t e p   48605                              ( at time 2.4299568E+01 )

 nodal point  x-rot      y-rot       z-rot       x-rot vel   y-rot vel   z-rot vel   x-rot acc   y-rot acc   z-rot acc
    22626  2.74016E-01 1.55496E-01-7.66132E-02 1.78890E-02 7.96838E-03-5.25311E-03 5.53070E-05 1.70559E-04 3.97585E-04



 n o d a l   p r i n t   o u t   f o r   t i m e  s t e p   48805                              ( at time 2.4399558E+01 )

 nodal point  x-disp     y-disp      z-disp      x-vel       y-vel       z-vel      x-accl      y-accl      z-accl      x-coor      y-coor      z-coor
    22626  4.97840E+00-1.92245E-01-2.12813E+01 3.66358E-01-1.07862E-01 4.62648E-01 1.39932E-02-1.94187E-02 7.29985E-03 5.29426E+01-2.22220E+01-1.39428E+01



 n o d a l   p r i n t   o u t   f o r   t i m e  s t e p   48805                              ( at time 2.4399558E+01 )

 nodal point  x-rot      y-rot       z-rot       x-rot vel   y-rot vel   z-rot vel   x-rot acc   y-rot acc   z-rot acc
    22626  2.75804E-01 1.56293E-01-7.71366E-02 1.78827E-02 7.97489E-03-5.21050E-03-6.37456E-05 6.50775E-05 4.26152E-04



 n o d a l   p r i n t   o u t   f o r   t i m e  s t e p   49006                              ( at time 2.4500048E+01 )

 nodal point  x-disp     y-disp      z-disp      x-vel       y-vel       z-vel      x-accl      y-accl      z-accl      x-coor      y-coor      z-coor
    22626  5.01529E+00-2.03130E-01-2.12347E+01 3.67454E-01-1.08593E-01 4.63981E-01 1.09092E-02-7.26599E-03 1.32720E-02 5.29795E+01-2.22329E+01-1.38962E+01



 n o d a l   p r i n t   o u t   f o r   t i m e  s t e p   49006                              ( at time 2.4500048E+01 )

 nodal point  x-rot      y-rot       z-rot       x-rot vel   y-rot vel   z-rot vel   x-rot acc   y-rot acc   z-rot acc
    22626  2.77601E-01 1.57095E-01-7.76591E-02 1.78796E-02 7.97629E-03-5.18103E-03-3.00837E-05 1.40039E-05 2.93298E-04



 n o d a l   p r i n t   o u t   f o r   t i m e  s t e p   49206                              ( at time 2.4600038E+01 )

 nodal point  x-disp     y-disp      z-disp      x-vel       y-vel       z-vel      x-accl      y-accl      z-accl      x-coor      y-coor      z-coor
    22626  5.05211E+00-2.13987E-01-2.11883E+01 3.68779E-01-1.08964E-01 4.65171E-01 1.32501E-02-3.71468E-03 1.18919E-02 5.30163E+01-2.22438E+01-1.38498E+01



 n o d a l   p r i n t   o u t   f o r   t i m e  s t e p   49206                              ( at time 2.4600038E+01 )

 nodal point  x-rot      y-rot       z-rot       x-rot vel   y-rot vel   z-rot vel   x-rot acc   y-rot acc   z-rot acc
    22626  2.79390E-01 1.57893E-01-7.81753E-02 1.78893E-02 7.99052E-03-5.14389E-03 9.71458E-05 1.42263E-04 3.71366E-04



 n o d a l   p r i n t   o u t   f o r   t i m e  s t e p   49406                              ( at time 2.4700028E+01 )

 nodal point  x-disp     y-disp      z-disp      x-vel       y-vel       z-vel      x-accl      y-accl      z-accl      x-coor      y-coor      z-coor
    22626  5.08901E+00-2.24938E-01-2.11418E+01 3.69418E-01-1.09684E-01 4.65606E-01 6.39241E-03-7.19776E-03 4.35341E-03 5.30532E+01-2.22547E+01-1.38033E+01



 n o d a l   p r i n t   o u t   f o r   t i m e  s t e p   49406                              ( at time 2.4700028E+01 )

 nodal point  x-rot      y-rot       z-rot       x-rot vel   y-rot vel   z-rot vel   x-rot acc   y-rot acc   z-rot acc
    22626  2.81178E-01 1.58692E-01-7.86877E-02 1.78889E-02 7.99689E-03-5.11493E-03-4.37770E-06 6.37561E-05 2.89706E-04



 n o d a l   p r i n t   o u t   f o r   t i m e  s t e p   49606                              ( at time 2.4800018E+01 )

 nodal point  x-disp     y-disp      z-disp      x-vel       y-vel       z-vel      x-accl      y-accl      z-accl      x-coor      y-coor      z-coor
    22626  5.12599E+00-2.35950E-01-2.10952E+01 3.70044E-01-1.10366E-01 4.66424E-01 6.26025E-03-6.82103E-03 8.18149E-03 5.30902E+01-2.22657E+01-1.37567E+01



 n o d a l   p r i n t   o u t   f o r   t i m e  s t e p   49606                              ( at time 2.4800018E+01 )

 nodal point  x-rot      y-rot       z-rot       x-rot vel   y-rot vel   z-rot vel   x-rot acc   y-rot acc   z-rot acc
    22626  2.82967E-01 1.59492E-01-7.91972E-02 1.78926E-02 7.98931E-03-5.07652E-03 3.64926E-05-7.58539E-05 3.84066E-04



 n o d a l   p r i n t   o u t   f o r   t i m e  s t e p   49806                              ( at time 2.4900008E+01 )

 nodal point  x-disp     y-disp      z-disp      x-vel       y-vel       z-vel      x-accl      y-accl      z-accl      x-coor      y-coor      z-coor
    22626  5.16299E+00-2.46991E-01-2.10485E+01 3.69782E-01-1.10704E-01 4.67713E-01-2.62230E-03-3.38532E-03 1.28888E-02 5.31272E+01-2.22768E+01-1.37100E+01



 n o d a l   p r i n t   o u t   f o r   t i m e  s t e p   49806                              ( at time 2.4900008E+01 )

 nodal point  x-rot      y-rot       z-rot       x-rot vel   y-rot vel   z-rot vel   x-rot acc   y-rot acc   z-rot acc
    22626  2.84756E-01 1.60291E-01-7.97037E-02 1.78950E-02 7.99865E-03-5.04668E-03 2.45338E-05 9.34127E-05 2.98452E-04



 n o d a l   p r i n t   o u t   f o r   t i m e  s t e p   50006                              ( at time 2.4999998E+01 )

 nodal point  x-disp     y-disp      z-disp      x-vel       y-vel       z-vel      x-accl      y-accl      z-accl      x-coor      y-coor      z-coor
    22626  5.19996E+00-2.58057E-01-2.10016E+01 3.70103E-01-1.10743E-01 4.69082E-01 3.21358E-03-3.90521E-04 1.36910E-02 5.31641E+01-2.22878E+01-1.36631E+01



 n o d a l   p r i n t   o u t   f o r   t i m e  s t e p   50006                              ( at time 2.4999998E+01 )

 nodal point  x-rot      y-rot       z-rot       x-rot vel   y-rot vel   z-rot vel   x-rot acc   y-rot acc   z-rot acc
    22626  2.86545E-01 1.61090E-01-8.02071E-02 1.78787E-02 7.99389E-03-5.02203E-03-1.62754E-04-4.76229E-05 2.46488E-04
