 LSTC 50th% Full_FE H-III Dummy (Beta Version, February 17, 2019)        
                    ls-dyna smp s R16 R16.0_619_d222963 date 03/18/2025

{BEGIN LEGEND}
 Entity #        Title
    22626                                                                                     
{END LEGEND}




 n o d a l   p r i n t   o u t   f o r   t i m e  s t e p       1                              ( at time 0.0000000E+00 )

 nodal point  x-disp     y-disp      z-disp      x-vel       y-vel       z-vel      x-accl      y-accl      z-accl      x-coor      y-coor      z-coor
    22626  0.00000E+00 0.00000E+00 0.00000E+00 0.00000E+00 0.00000E+00-3.12000E+00 0.00000E+00 0.00000E+00 0.00000E+00 4.79642E+01-2.20298E+01 7.33850E+00



 n o d a l   p r i n t   o u t   f o r   t i m e  s t e p       1                              ( at time 0.0000000E+00 )

 nodal point  x-rot      y-rot       z-rot       x-rot vel   y-rot vel   z-rot vel   x-rot acc   y-rot acc   z-rot acc
    22626  0.00000E+00 0.00000E+00 0.00000E+00 0.00000E+00 0.00000E+00 0.00000E+00 0.00000E+00 0.00000E+00 0.00000E+00



 n o d a l   p r i n t   o u t   f o r   t i m e  s t e p     201                              ( at time 9.9989993E-02 )

 nodal point  x-disp     y-disp      z-disp      x-vel       y-vel       z-vel      x-accl      y-accl      z-accl      x-coor      y-coor      z-coor
    22626  8.34181E-07-4.04483E-06-3.12016E-01 4.76595E-05-4.96432E-04-3.12074E+00 4.76643E-04-4.96482E-03-7.42510E-03 4.79642E+01-2.20298E+01 7.02648E+00



 n o d a l   p r i n t   o u t   f o r   t i m e  s t e p     201                              ( at time 9.9989993E-02 )

 nodal point  x-rot      y-rot       z-rot       x-rot vel   y-rot vel   z-rot vel   x-rot acc   y-rot acc   z-rot acc
    22626  9.60362E-09 3.04017E-08 5.26962E-08 1.30684E-06 2.72254E-06 5.21182E-06 1.30697E-05 2.72281E-05 5.21234E-05



 n o d a l   p r i n t   o u t   f o r   t i m e  s t e p     401                              ( at time 1.9997999E-01 )

 nodal point  x-disp     y-disp      z-disp      x-vel       y-vel       z-vel      x-accl      y-accl      z-accl      x-coor      y-coor      z-coor
    22626 -5.12775E-05-5.21553E-04-6.23853E-01-1.09732E-03-1.11119E-02-3.11558E+00-1.14509E-02-1.06165E-01 5.16132E-02 4.79641E+01-2.20303E+01 6.71465E+00



 n o d a l   p r i n t   o u t   f o r   t i m e  s t e p     401                              ( at time 1.9997999E-01 )

 nodal point  x-rot      y-rot       z-rot       x-rot vel   y-rot vel   z-rot vel   x-rot acc   y-rot acc   z-rot acc
    22626  4.60306E-07 1.32967E-06 2.50202E-06 2.64322E-06 1.90368E-05 3.49180E-05 1.33651E-05 1.63159E-04 2.97092E-04



 n o d a l   p r i n t   o u t   f o r   t i m e  s t e p     601                              ( at time 2.9996998E-01 )

 nodal point  x-disp     y-disp      z-disp      x-vel       y-vel       z-vel      x-accl      y-accl      z-accl      x-coor      y-coor      z-coor
    22626 -2.45532E-05-1.97632E-03-9.35238E-01 1.66220E-03-1.60451E-02-3.11415E+00 2.75979E-02-4.93366E-02 1.43447E-02 4.79642E+01-2.20318E+01 6.40326E+00



 n o d a l   p r i n t   o u t   f o r   t i m e  s t e p     601                              ( at time 2.9996998E-01 )

 nodal point  x-rot      y-rot       z-rot       x-rot vel   y-rot vel   z-rot vel   x-rot acc   y-rot acc   z-rot acc
    22626  6.74760E-07 2.41175E-06 4.82814E-06 8.29250E-06 5.39600E-06 1.47892E-05 5.64985E-05-1.36421E-04-2.01308E-04



 n o d a l   p r i n t   o u t   f o r   t i m e  s t e p     801                              ( at time 3.9995997E-01 )

 nodal point  x-disp     y-disp      z-disp      x-vel       y-vel       z-vel      x-accl      y-accl      z-accl      x-coor      y-coor      z-coor
    22626  5.94559E-05-3.57406E-03-1.24663E+00 1.92036E-04-1.73908E-02-3.11353E+00-1.47031E-02-1.34587E-02 6.16135E-03 4.79642E+01-2.20334E+01 6.09187E+00



 n o d a l   p r i n t   o u t   f o r   t i m e  s t e p     801                              ( at time 3.9995997E-01 )

 nodal point  x-rot      y-rot       z-rot       x-rot vel   y-rot vel   z-rot vel   x-rot acc   y-rot acc   z-rot acc
    22626  1.58174E-06 3.68106E-06 6.68044E-06 6.29066E-06 2.42309E-05 3.82163E-05-2.00204E-05 1.88368E-04 2.34294E-04



 n o d a l   p r i n t   o u t   f o r   t i m e  s t e p    1001                              ( at time 4.9994997E-01 )

 nodal point  x-disp     y-disp      z-disp      x-vel       y-vel       z-vel      x-accl      y-accl      z-accl      x-coor      y-coor      z-coor
    22626  7.27451E-05-5.63144E-03-1.55782E+00 8.88896E-04-2.38494E-02-3.11085E+00 6.96929E-03-6.45926E-02 2.67914E-02 4.79643E+01-2.20354E+01 5.78068E+00



 n o d a l   p r i n t   o u t   f o r   t i m e  s t e p    1001                              ( at time 4.9994997E-01 )

 nodal point  x-rot      y-rot       z-rot       x-rot vel   y-rot vel   z-rot vel   x-rot acc   y-rot acc   z-rot acc
    22626  1.49395E-06 6.64780E-06 1.18366E-05-4.86017E-06 4.37047E-05 7.18972E-05-1.11519E-04 1.94757E-04 3.36843E-04



 n o d a l   p r i n t   o u t   f o r   t i m e  s t e p    1201                              ( at time 5.9993996E-01 )

 nodal point  x-disp     y-disp      z-disp      x-vel       y-vel       z-vel      x-accl      y-accl      z-accl      x-coor      y-coor      z-coor
    22626  5.29598E-05-8.13744E-03-1.86888E+00-5.63621E-04-2.61255E-02-3.11084E+00-1.45266E-02-2.27629E-02 1.19221E-04 4.79642E+01-2.20379E+01 5.46962E+00



 n o d a l   p r i n t   o u t   f o r   t i m e  s t e p    1201                              ( at time 5.9993996E-01 )

 nodal point  x-rot      y-rot       z-rot       x-rot vel   y-rot vel   z-rot vel   x-rot acc   y-rot acc   z-rot acc
    22626  1.26538E-06 9.87517E-06 1.77371E-05-2.09641E-06 2.63590E-05 5.30259E-05 2.76404E-05-1.73474E-04-1.88733E-04



 n o d a l   p r i n t   o u t   f o r   t i m e  s t e p    1401                              ( at time 6.9992995E-01 )

 nodal point  x-disp     y-disp      z-disp      x-vel       y-vel       z-vel      x-accl      y-accl      z-accl      x-coor      y-coor      z-coor
    22626  1.96855E-05-1.10206E-02-2.17976E+00 7.14412E-04-3.22426E-02-3.10770E+00 1.27816E-02-6.11771E-02 3.14458E-02 4.79642E+01-2.20408E+01 5.15874E+00



 n o d a l   p r i n t   o u t   f o r   t i m e  s t e p    1401                              ( at time 6.9992995E-01 )

 nodal point  x-rot      y-rot       z-rot       x-rot vel   y-rot vel   z-rot vel   x-rot acc   y-rot acc   z-rot acc
    22626  1.10221E-06 1.30696E-05 2.27044E-05-2.39464E-06 3.78256E-05 5.92886E-05-2.98259E-06 1.14678E-04 6.26340E-05



 n o d a l   p r i n t   o u t   f o r   t i m e  s t e p    1601                              ( at time 7.9991994E-01 )

 nodal point  x-disp     y-disp      z-disp      x-vel       y-vel       z-vel      x-accl      y-accl      z-accl      x-coor      y-coor      z-coor
    22626  1.33019E-04-1.45709E-02-2.49038E+00 1.37104E-03-3.68148E-02-3.10600E+00 6.56694E-03-4.57267E-02 1.69604E-02 4.79643E+01-2.20444E+01 4.84812E+00



 n o d a l   p r i n t   o u t   f o r   t i m e  s t e p    1601                              ( at time 7.9991994E-01 )

 nodal point  x-rot      y-rot       z-rot       x-rot vel   y-rot vel   z-rot vel   x-rot acc   y-rot acc   z-rot acc
    22626  1.00728E-06 1.72055E-05 2.96644E-05 3.01084E-06 4.87103E-05 7.63954E-05 5.40602E-05 1.08858E-04 1.71085E-04



 n o d a l   p r i n t   o u t   f o r   t i m e  s t e p    1801                              ( at time 8.9990994E-01 )

 nodal point  x-disp     y-disp      z-disp      x-vel       y-vel       z-vel      x-accl      y-accl      z-accl      x-coor      y-coor      z-coor
    22626  2.07387E-04-1.82141E-02-2.80104E+00-5.04233E-04-3.64271E-02-3.10742E+00-1.87546E-02 3.87741E-03-1.41849E-02 4.79644E+01-2.20480E+01 4.53746E+00



 n o d a l   p r i n t   o u t   f o r   t i m e  s t e p    1801                              ( at time 8.9990994E-01 )

 nodal point  x-rot      y-rot       z-rot       x-rot vel   y-rot vel   z-rot vel   x-rot acc   y-rot acc   z-rot acc
    22626  1.02492E-06 2.13204E-05 3.66570E-05-1.95923E-06 3.80776E-05 6.84135E-05-4.97057E-05-1.06338E-04-7.98275E-05



 n o d a l   p r i n t   o u t   f o r   t i m e  s t e p    2001                              ( at time 9.9989993E-01 )

 nodal point  x-disp     y-disp      z-disp      x-vel       y-vel       z-vel      x-accl      y-accl      z-accl      x-coor      y-coor      z-coor
    22626  1.09802E-04-2.19276E-02-3.11175E+00-8.18936E-04-3.84032E-02-3.10755E+00-3.14734E-03-1.97631E-02-1.34482E-03 4.79643E+01-2.20517E+01 4.22675E+00



 n o d a l   p r i n t   o u t   f o r   t i m e  s t e p    2001                              ( at time 9.9989993E-01 )

 nodal point  x-rot      y-rot       z-rot       x-rot vel   y-rot vel   z-rot vel   x-rot acc   y-rot acc   z-rot acc
    22626  8.56635E-07 2.55339E-05 4.38507E-05-8.63622E-07 4.62609E-05 8.59400E-05 1.09571E-05 8.18406E-05 1.75283E-04



 n o d a l   p r i n t   o u t   f o r   t i m e  s t e p    2201                              ( at time 1.0998899E+00 )

 nodal point  x-disp     y-disp      z-disp      x-vel       y-vel       z-vel      x-accl      y-accl      z-accl      x-coor      y-coor      z-coor
    22626  9.18961E-05-2.58760E-02-3.42246E+00-2.20131E-04-4.02569E-02-3.10712E+00 5.98865E-03-1.85392E-02 4.34442E-03 4.79643E+01-2.20557E+01 3.91605E+00



 n o d a l   p r i n t   o u t   f o r   t i m e  s t e p    2201                              ( at time 1.0998899E+00 )

 nodal point  x-rot      y-rot       z-rot       x-rot vel   y-rot vel   z-rot vel   x-rot acc   y-rot acc   z-rot acc
    22626  9.33624E-07 3.03118E-05 5.24794E-05 5.30184E-06 4.64600E-05 7.51371E-05 6.16608E-05 1.99123E-06-1.08041E-04



 n o d a l   p r i n t   o u t   f o r   t i m e  s t e p    2401                              ( at time 1.1998799E+00 )

 nodal point  x-disp     y-disp      z-disp      x-vel       y-vel       z-vel      x-accl      y-accl      z-accl      x-coor      y-coor      z-coor
    22626  1.34289E-04-2.98901E-02-3.73320E+00 7.34916E-04-3.98025E-02-3.10850E+00 9.55142E-03 4.54505E-03-1.37891E-02 4.79643E+01-2.20597E+01 3.60531E+00



 n o d a l   p r i n t   o u t   f o r   t i m e  s t e p    2401                              ( at time 1.1998799E+00 )

 nodal point  x-rot      y-rot       z-rot       x-rot vel   y-rot vel   z-rot vel   x-rot acc   y-rot acc   z-rot acc
    22626  1.33660E-06 3.44654E-05 5.93271E-05 5.05000E-06 4.00235E-05 6.56402E-05-2.51866E-06-6.43714E-05-9.49783E-05



 n o d a l   p r i n t   o u t   f o r   t i m e  s t e p    2601                              ( at time 1.2998699E+00 )

 nodal point  x-disp     y-disp      z-disp      x-vel       y-vel       z-vel      x-accl      y-accl      z-accl      x-coor      y-coor      z-coor
    22626  1.46189E-04-3.37303E-02-4.04413E+00-4.22027E-04-3.65942E-02-3.11133E+00-1.15706E-02 3.20862E-02-2.83007E-02 4.79643E+01-2.20635E+01 3.29437E+00



 n o d a l   p r i n t   o u t   f o r   t i m e  s t e p    2601                              ( at time 1.2998699E+00 )

 nodal point  x-rot      y-rot       z-rot       x-rot vel   y-rot vel   z-rot vel   x-rot acc   y-rot acc   z-rot acc
    22626  1.63895E-06 3.85437E-05 6.61333E-05-2.53373E-06 4.54488E-05 7.97863E-05-7.58449E-05 5.42588E-05 1.41475E-04



 n o d a l   p r i n t   o u t   f o r   t i m e  s t e p    2801                              ( at time 1.3998599E+00 )

 nodal point  x-disp     y-disp      z-disp      x-vel       y-vel       z-vel      x-accl      y-accl      z-accl      x-coor      y-coor      z-coor
    22626  3.22197E-05-3.71240E-02-4.35543E+00-1.30863E-03-3.14343E-02-3.11511E+00-8.86693E-03 5.16038E-02-3.78122E-02 4.79642E+01-2.20669E+01 2.98307E+00



 n o d a l   p r i n t   o u t   f o r   t i m e  s t e p    2801                              ( at time 1.3998599E+00 )

 nodal point  x-rot      y-rot       z-rot       x-rot vel   y-rot vel   z-rot vel   x-rot acc   y-rot acc   z-rot acc
    22626  1.20440E-06 4.29491E-05 7.39880E-05-4.48929E-06 4.45009E-05 7.33777E-05-1.95575E-05-9.47996E-06-6.40927E-05



 n o d a l   p r i n t   o u t   f o r   t i m e  s t e p    3001                              ( at time 1.4998499E+00 )

 nodal point  x-disp     y-disp      z-disp      x-vel       y-vel       z-vel      x-accl      y-accl      z-accl      x-coor      y-coor      z-coor
    22626 -7.75893E-05-4.01686E-02-4.66702E+00-4.97279E-04-2.97710E-02-3.11713E+00 8.11433E-03 1.66344E-02-2.02199E-02 4.79641E+01-2.20700E+01 2.67148E+00



 n o d a l   p r i n t   o u t   f o r   t i m e  s t e p    3001                              ( at time 1.4998499E+00 )

 nodal point  x-rot      y-rot       z-rot       x-rot vel   y-rot vel   z-rot vel   x-rot acc   y-rot acc   z-rot acc
    22626  8.27635E-07 4.68525E-05 8.05194E-05-1.57640E-06 3.19799E-05 5.71544E-05 2.91319E-05-1.25222E-04-1.62249E-04



 n o d a l   p r i n t   o u t   f o r   t i m e  s t e p    3201                              ( at time 1.5998399E+00 )

 nodal point  x-disp     y-disp      z-disp      x-vel       y-vel       z-vel      x-accl      y-accl      z-accl      x-coor      y-coor      z-coor
    22626 -1.24291E-04-4.30593E-02-4.97879E+00-6.95778E-04-2.75123E-02-3.11939E+00-1.98519E-03 2.25898E-02-2.26449E-02 4.79641E+01-2.20728E+01 2.35971E+00



 n o d a l   p r i n t   o u t   f o r   t i m e  s t e p    3201                              ( at time 1.5998399E+00 )

 nodal point  x-rot      y-rot       z-rot       x-rot vel   y-rot vel   z-rot vel   x-rot acc   y-rot acc   z-rot acc
    22626  5.15156E-07 4.99111E-05 8.53950E-05-1.64008E-06 3.26139E-05 4.78878E-05-6.36944E-07 6.33981E-06-9.26750E-05



 n o d a l   p r i n t   o u t   f o r   t i m e  s t e p    3401                              ( at time 1.6998299E+00 )

 nodal point  x-disp     y-disp      z-disp      x-vel       y-vel       z-vel      x-accl      y-accl      z-accl      x-coor      y-coor      z-coor
    22626 -2.11037E-04-4.55736E-02-5.29089E+00-1.12978E-03-2.24359E-02-3.12325E+00-4.34043E-03 5.07693E-02-3.85824E-02 4.79640E+01-2.20754E+01 2.04762E+00



 n o d a l   p r i n t   o u t   f o r   t i m e  s t e p    3401                              ( at time 1.6998299E+00 )

 nodal point  x-rot      y-rot       z-rot       x-rot vel   y-rot vel   z-rot vel   x-rot acc   y-rot acc   z-rot acc
    22626  3.01090E-07 5.29940E-05 9.04285E-05-3.78423E-06 2.98579E-05 4.77540E-05-2.14436E-05-2.75621E-05-1.33753E-06



 n o d a l   p r i n t   o u t   f o r   t i m e  s t e p    3601                              ( at time 1.7998199E+00 )

 nodal point  x-disp     y-disp      z-disp      x-vel       y-vel       z-vel      x-accl      y-accl      z-accl      x-coor      y-coor      z-coor
    22626 -3.12581E-04-4.75643E-02-5.60339E+00-1.32457E-03-1.77196E-02-3.12732E+00-1.94808E-03 4.71677E-02-4.06926E-02 4.79639E+01-2.20774E+01 1.73511E+00



 n o d a l   p r i n t   o u t   f o r   t i m e  s t e p    3601                              ( at time 1.7998199E+00 )

 nodal point  x-rot      y-rot       z-rot       x-rot vel   y-rot vel   z-rot vel   x-rot acc   y-rot acc   z-rot acc
    22626  1.54652E-07 5.57837E-05 9.51879E-05-3.23109E-07 2.15273E-05 4.22381E-05 3.46147E-05-8.33152E-05-5.51654E-05



 n o d a l   p r i n t   o u t   f o r   t i m e  s t e p    3801                              ( at time 1.8998099E+00 )

 nodal point  x-disp     y-disp      z-disp      x-vel       y-vel       z-vel      x-accl      y-accl      z-accl      x-coor      y-coor      z-coor
    22626 -5.00068E-04-4.92021E-02-5.91621E+00-2.16718E-03-1.51665E-02-3.12982E+00-8.42698E-03 2.55335E-02-2.49745E-02 4.79637E+01-2.20790E+01 1.42229E+00



 n o d a l   p r i n t   o u t   f o r   t i m e  s t e p    3801                              ( at time 1.8998099E+00 )

 nodal point  x-rot      y-rot       z-rot       x-rot vel   y-rot vel   z-rot vel   x-rot acc   y-rot acc   z-rot acc
    22626 -8.96804E-08 5.76820E-05 9.86053E-05 1.61017E-06 1.55341E-05 2.75381E-05 1.93347E-05-5.99372E-05-1.47015E-04



 n o d a l   p r i n t   o u t   f o r   t i m e  s t e p    4001                              ( at time 1.9997999E+00 )

 nodal point  x-disp     y-disp      z-disp      x-vel       y-vel       z-vel      x-accl      y-accl      z-accl      x-coor      y-coor      z-coor
    22626 -6.73565E-04-5.05925E-02-6.22929E+00-1.65236E-03-1.28110E-02-3.13210E+00 5.14872E-03 2.35573E-02-2.28404E-02 4.79635E+01-2.20804E+01 1.10921E+00



 n o d a l   p r i n t   o u t   f o r   t i m e  s t e p    4001                              ( at time 1.9997999E+00 )

 nodal point  x-rot      y-rot       z-rot       x-rot vel   y-rot vel   z-rot vel   x-rot acc   y-rot acc   z-rot acc
    22626  1.14791E-07 5.90173E-05 1.00914E-04 3.32139E-06 1.33475E-05 2.03199E-05 1.71140E-05-2.18689E-05-7.21885E-05



 n o d a l   p r i n t   o u t   f o r   t i m e  s t e p    4201                              ( at time 2.0997899E+00 )

 nodal point  x-disp     y-disp      z-disp      x-vel       y-vel       z-vel      x-accl      y-accl      z-accl      x-coor      y-coor      z-coor
    22626 -8.42762E-04-5.16836E-02-6.54262E+00-1.86227E-03-9.15443E-03-3.13518E+00-2.09936E-03 3.65692E-02-3.07972E-02 4.79633E+01-2.20815E+01 7.95877E-01



 n o d a l   p r i n t   o u t   f o r   t i m e  s t e p    4201                              ( at time 2.0997899E+00 )

 nodal point  x-rot      y-rot       z-rot       x-rot vel   y-rot vel   z-rot vel   x-rot acc   y-rot acc   z-rot acc
    22626  3.99613E-07 5.96617E-05 1.02004E-04-1.39383E-06 3.31273E-06 1.39089E-06-4.71569E-05-1.00357E-04-1.89309E-04



 n o d a l   p r i n t   o u t   f o r   t i m e  s t e p    4401                              ( at time 2.1997798E+00 )

 nodal point  x-disp     y-disp      z-disp      x-vel       y-vel       z-vel      x-accl      y-accl      z-accl      x-coor      y-coor      z-coor
    22626 -1.08477E-03-5.23703E-02-6.85629E+00-2.77532E-03-4.41000E-03-3.13895E+00-9.13134E-03 4.74491E-02-3.76525E-02 4.79631E+01-2.20822E+01 4.82213E-01



 n o d a l   p r i n t   o u t   f o r   t i m e  s t e p    4401                              ( at time 2.1997798E+00 )

 nodal point  x-rot      y-rot       z-rot       x-rot vel   y-rot vel   z-rot vel   x-rot acc   y-rot acc   z-rot acc
    22626  2.21586E-07 5.96534E-05 1.01935E-04-1.09467E-06-2.18561E-06-3.11618E-06 2.99184E-06-5.49890E-05-4.50752E-05



 n o d a l   p r i n t   o u t   f o r   t i m e  s t e p    4601                              ( at time 2.2997698E+00 )

 nodal point  x-disp     y-disp      z-disp      x-vel       y-vel       z-vel      x-accl      y-accl      z-accl      x-coor      y-coor      z-coor
    22626 -1.39375E-03-5.25655E-02-7.17034E+00-3.50440E-03-8.98161E-05-3.14227E+00-7.29158E-03 4.32061E-02-3.32889E-02 4.79628E+01-2.20824E+01 1.68163E-01



 n o d a l   p r i n t   o u t   f o r   t i m e  s t e p    4601                              ( at time 2.2997698E+00 )

 nodal point  x-rot      y-rot       z-rot       x-rot vel   y-rot vel   z-rot vel   x-rot acc   y-rot acc   z-rot acc
    22626 -1.67998E-07 5.93404E-05 1.01563E-04-4.57019E-06-9.73058E-06-1.27714E-05-3.47586E-05-7.54572E-05-9.65618E-05



 n o d a l   p r i n t   o u t   f o r   t i m e  s t e p    4801                              ( at time 2.3997598E+00 )

 nodal point  x-disp     y-disp      z-disp      x-vel       y-vel       z-vel      x-accl      y-accl      z-accl      x-coor      y-coor      z-coor
    22626 -1.76288E-03-5.24785E-02-7.48464E+00-3.60378E-03 1.86578E-03-3.14440E+00-9.93847E-04 1.95579E-02-2.12238E-02 4.79624E+01-2.20823E+01-1.46134E-01



 n o d a l   p r i n t   o u t   f o r   t i m e  s t e p    4801                              ( at time 2.3997598E+00 )

 nodal point  x-rot      y-rot       z-rot       x-rot vel   y-rot vel   z-rot vel   x-rot acc   y-rot acc   z-rot acc
    22626 -7.17938E-07 5.80753E-05 9.90754E-05-6.12538E-06-1.61970E-05-3.39615E-05-1.55535E-05-6.46706E-05-2.11923E-04



 n o d a l   p r i n t   o u t   f o r   t i m e  s t e p    5001                              ( at time 2.4997498E+00 )

 nodal point  x-disp     y-disp      z-disp      x-vel       y-vel       z-vel      x-accl      y-accl      z-accl      x-coor      y-coor      z-coor
    22626 -2.15625E-03-5.21710E-02-7.79916E+00-4.24216E-03 4.96571E-03-3.14711E+00-6.38442E-03 3.10024E-02-2.70989E-02 4.79620E+01-2.20820E+01-4.60661E-01



 n o d a l   p r i n t   o u t   f o r   t i m e  s t e p    5001                              ( at time 2.4997498E+00 )

 nodal point  x-rot      y-rot       z-rot       x-rot vel   y-rot vel   z-rot vel   x-rot acc   y-rot acc   z-rot acc
    22626 -1.16921E-06 5.58406E-05 9.51066E-05-4.09046E-06-2.63091E-05-4.86773E-05 2.03512E-05-1.01131E-04-1.47172E-04



 n o d a l   p r i n t   o u t   f o r   t i m e  s t e p    5201                              ( at time 2.5997398E+00 )

 nodal point  x-disp     y-disp      z-disp      x-vel       y-vel       z-vel      x-accl      y-accl      z-accl      x-coor      y-coor      z-coor
    22626 -2.63029E-03-5.14567E-02-8.11403E+00-5.26523E-03 9.26786E-03-3.15070E+00-1.02318E-02 4.30259E-02-3.58975E-02 4.79615E+01-2.20812E+01-7.75526E-01



 n o d a l   p r i n t   o u t   f o r   t i m e  s t e p    5201                              ( at time 2.5997398E+00 )

 nodal point  x-rot      y-rot       z-rot       x-rot vel   y-rot vel   z-rot vel   x-rot acc   y-rot acc   z-rot acc
    22626 -1.54135E-06 5.27387E-05 8.96716E-05-4.74294E-06-3.57728E-05-6.21446E-05-6.52548E-06-9.46466E-05-1.34687E-04



 n o d a l   p r i n t   o u t   f o r   t i m e  s t e p    5401                              ( at time 2.6997298E+00 )

 nodal point  x-disp     y-disp      z-disp      x-vel       y-vel       z-vel      x-accl      y-accl      z-accl      x-coor      y-coor      z-coor
    22626 -3.20003E-03-5.03221E-02-8.42924E+00-6.44129E-03 1.29786E-02-3.15421E+00-1.17617E-02 3.71113E-02-3.51797E-02 4.79610E+01-2.20801E+01-1.09074E+00



 n o d a l   p r i n t   o u t   f o r   t i m e  s t e p    5401                              ( at time 2.6997298E+00 )

 nodal point  x-rot      y-rot       z-rot       x-rot vel   y-rot vel   z-rot vel   x-rot acc   y-rot acc   z-rot acc
    22626 -1.84208E-06 4.89886E-05 8.31638E-05-1.84671E-06-4.15187E-05-6.70005E-05 2.89653E-05-5.74644E-05-4.85642E-05



 n o d a l   p r i n t   o u t   f o r   t i m e  s t e p    5601                              ( at time 2.7997198E+00 )

 nodal point  x-disp     y-disp      z-disp      x-vel       y-vel       z-vel      x-accl      y-accl      z-accl      x-coor      y-coor      z-coor
    22626 -3.91415E-03-4.88976E-02-8.74475E+00-7.69598E-03 1.51503E-02-3.15634E+00-1.25482E-02 2.17186E-02-2.13001E-02 4.79603E+01-2.20787E+01-1.40625E+00



 n o d a l   p r i n t   o u t   f o r   t i m e  s t e p    5601                              ( at time 2.7997198E+00 )

 nodal point  x-rot      y-rot       z-rot       x-rot vel   y-rot vel   z-rot vel   x-rot acc   y-rot acc   z-rot acc
    22626 -1.97842E-06 4.40911E-05 7.50509E-05 2.75879E-07-5.73409E-05-9.86126E-05 2.12280E-05-1.58238E-04-3.16153E-04



 n o d a l   p r i n t   o u t   f o r   t i m e  s t e p    5801                              ( at time 2.8997098E+00 )

 nodal point  x-disp     y-disp      z-disp      x-vel       y-vel       z-vel      x-accl      y-accl      z-accl      x-coor      y-coor      z-coor
    22626 -4.68600E-03-4.73293E-02-9.06044E+00-7.81613E-03 1.61430E-02-3.15804E+00-1.20164E-03 9.92843E-03-1.69342E-02 4.79595E+01-2.20771E+01-1.72194E+00



 n o d a l   p r i n t   o u t   f o r   t i m e  s t e p    5801                              ( at time 2.8997098E+00 )

 nodal point  x-rot      y-rot       z-rot       x-rot vel   y-rot vel   z-rot vel   x-rot acc   y-rot acc   z-rot acc
    22626 -1.78539E-06 3.76504E-05 6.41394E-05 2.37033E-06-6.64672E-05-1.15275E-04 2.09466E-05-9.12717E-05-1.66640E-04



 n o d a l   p r i n t   o u t   f o r   t i m e  s t e p    6001                              ( at time 2.9996998E+00 )

 nodal point  x-disp     y-disp      z-disp      x-vel       y-vel       z-vel      x-accl      y-accl      z-accl      x-coor      y-coor      z-coor
    22626 -5.50685E-03-4.55975E-02-9.37632E+00-8.83223E-03 1.86428E-02-3.16042E+00-1.01620E-02 2.49999E-02-2.37941E-02 4.79587E+01-2.20754E+01-2.03782E+00



 n o d a l   p r i n t   o u t   f o r   t i m e  s t e p    6001                              ( at time 2.9996998E+00 )

 nodal point  x-rot      y-rot       z-rot       x-rot vel   y-rot vel   z-rot vel   x-rot acc   y-rot acc   z-rot acc
    22626 -1.55679E-06 3.07869E-05 5.25690E-05 6.06060E-07-7.11682E-05-1.21096E-04-1.76444E-05-4.70147E-05-5.82172E-05



 n o d a l   p r i n t   o u t   f o r   t i m e  s t e p    6201                              ( at time 3.0996898E+00 )

 nodal point  x-disp     y-disp      z-disp      x-vel       y-vel       z-vel      x-accl      y-accl      z-accl      x-coor      y-coor      z-coor
    22626 -6.47250E-03-4.36164E-02-9.69244E+00-1.04098E-02 2.05599E-02-3.16240E+00-1.57772E-02 1.91738E-02-1.98241E-02 4.79577E+01-2.20734E+01-2.35394E+00



 n o d a l   p r i n t   o u t   f o r   t i m e  s t e p    6201                              ( at time 3.0996898E+00 )

 nodal point  x-rot      y-rot       z-rot       x-rot vel   y-rot vel   z-rot vel   x-rot acc   y-rot acc   z-rot acc
    22626 -1.60420E-06 2.34249E-05 3.99349E-05-2.01975E-06-7.58376E-05-1.33482E-04-2.62607E-05-4.66988E-05-1.23871E-04



 n o d a l   p r i n t   o u t   f o r   t i m e  s t e p    6401                              ( at time 3.1996798E+00 )

 nodal point  x-disp     y-disp      z-disp      x-vel       y-vel       z-vel      x-accl      y-accl      z-accl      x-coor      y-coor      z-coor
    22626 -7.54396E-03-4.15859E-02-1.00087E+01-1.09258E-02 1.97504E-02-3.16297E+00-5.16064E-03-8.09632E-03-5.71784E-03 4.79566E+01-2.20714E+01-2.67019E+00



 n o d a l   p r i n t   o u t   f o r   t i m e  s t e p    6401                              ( at time 3.1996798E+00 )

 nodal point  x-rot      y-rot       z-rot       x-rot vel   y-rot vel   z-rot vel   x-rot acc   y-rot acc   z-rot acc
    22626 -1.74080E-06 1.53507E-05 2.63340E-05-1.70802E-06-8.51337E-05-1.43754E-04 3.11756E-06-9.29702E-05-1.02736E-04



 n o d a l   p r i n t   o u t   f o r   t i m e  s t e p    6601                              ( at time 3.2996698E+00 )

 nodal point  x-disp     y-disp      z-disp      x-vel       y-vel       z-vel      x-accl      y-accl      z-accl      x-coor      y-coor      z-coor
    22626 -8.64998E-03-3.97062E-02-1.03249E+01-1.11970E-02 1.78264E-02-3.16269E+00-2.71244E-03-1.92420E-02 2.77309E-03 4.79555E+01-2.20695E+01-2.98644E+00



 n o d a l   p r i n t   o u t   f o r   t i m e  s t e p    6601                              ( at time 3.2996698E+00 )

 nodal point  x-rot      y-rot       z-rot       x-rot vel   y-rot vel   z-rot vel   x-rot acc   y-rot acc   z-rot acc
    22626 -2.00848E-06 6.65590E-06 1.15690E-05-2.41593E-06-8.96745E-05-1.51859E-04-7.07979E-06-4.54124E-05-8.10485E-05



 n o d a l   p r i n t   o u t   f o r   t i m e  s t e p    6801                              ( at time 3.3996598E+00 )

 nodal point  x-disp     y-disp      z-disp      x-vel       y-vel       z-vel      x-accl      y-accl      z-accl      x-coor      y-coor      z-coor
    22626 -9.80087E-03-3.80149E-02-1.06412E+01-1.16958E-02 1.60386E-02-3.16262E+00-4.98801E-03-1.78794E-02 7.03404E-04 4.79544E+01-2.20678E+01-3.30268E+00



 n o d a l   p r i n t   o u t   f o r   t i m e  s t e p    6801                              ( at time 3.3996598E+00 )

 nodal point  x-rot      y-rot       z-rot       x-rot vel   y-rot vel   z-rot vel   x-rot acc   y-rot acc   z-rot acc
    22626 -2.05913E-06-2.23751E-06-3.73006E-06-2.50674E-06-8.80575E-05-1.53173E-04-9.08143E-07 1.61711E-05-1.31456E-05



 n o d a l   p r i n t   o u t   f o r   t i m e  s t e p    7001                              ( at time 3.4996498E+00 )

 nodal point  x-disp     y-disp      z-disp      x-vel       y-vel       z-vel      x-accl      y-accl      z-accl      x-coor      y-coor      z-coor
    22626 -1.09988E-02-3.64851E-02-1.09574E+01-1.23330E-02 1.44957E-02-3.16281E+00-6.37340E-03-1.54310E-02-1.92423E-03 4.79532E+01-2.20663E+01-3.61892E+00



 n o d a l   p r i n t   o u t   f o r   t i m e  s t e p    7001                              ( at time 3.4996498E+00 )

 nodal point  x-rot      y-rot       z-rot       x-rot vel   y-rot vel   z-rot vel   x-rot acc   y-rot acc   z-rot acc
    22626 -2.05030E-06-1.09026E-05-1.85634E-05 5.56752E-07-8.71706E-05-1.47495E-04 3.06380E-05 8.86985E-06 5.67845E-05



 n o d a l   p r i n t   o u t   f o r   t i m e  s t e p    7201                              ( at time 3.5996397E+00 )

 nodal point  x-disp     y-disp      z-disp      x-vel       y-vel       z-vel      x-accl      y-accl      z-accl      x-coor      y-coor      z-coor
    22626 -1.22532E-02-3.51424E-02-1.12737E+01-1.24239E-02 1.20934E-02-3.16261E+00-9.08960E-04-2.40253E-02 2.09353E-03 4.79519E+01-2.20649E+01-3.93517E+00



 n o d a l   p r i n t   o u t   f o r   t i m e  s t e p    7201                              ( at time 3.5996397E+00 )

 nodal point  x-rot      y-rot       z-rot       x-rot vel   y-rot vel   z-rot vel   x-rot acc   y-rot acc   z-rot acc
    22626 -2.05967E-06-1.95265E-05-3.30479E-05 1.99328E-06-8.48178E-05-1.38941E-04 1.43667E-05 2.35309E-05 8.55470E-05



 n o d a l   p r i n t   o u t   f o r   t i m e  s t e p    7401                              ( at time 3.6996297E+00 )

 nodal point  x-disp     y-disp      z-disp      x-vel       y-vel       z-vel      x-accl      y-accl      z-accl      x-coor      y-coor      z-coor
    22626 -1.34834E-02-3.40985E-02-1.15898E+01-1.21505E-02 8.70247E-03-3.16159E+00 2.73432E-03-3.39125E-02 1.01076E-02 4.79507E+01-2.20639E+01-4.25135E+00



 n o d a l   p r i n t   o u t   f o r   t i m e  s t e p    7401                              ( at time 3.6996297E+00 )

 nodal point  x-rot      y-rot       z-rot       x-rot vel   y-rot vel   z-rot vel   x-rot acc   y-rot acc   z-rot acc
    22626 -1.80497E-06-2.78147E-05-4.68489E-05 3.81577E-06-8.12197E-05-1.36302E-04 1.82267E-05 3.59838E-05 2.63972E-05



 n o d a l   p r i n t   o u t   f o r   t i m e  s t e p    7601                              ( at time 3.7996197E+00 )

 nodal point  x-disp     y-disp      z-disp      x-vel       y-vel       z-vel      x-accl      y-accl      z-accl      x-coor      y-coor      z-coor
    22626 -1.46683E-02-3.33657E-02-1.19059E+01-1.15871E-02 6.00806E-03-3.16088E+00 5.63451E-03-2.69469E-02 7.11275E-03 4.79495E+01-2.20632E+01-4.56744E+00



 n o d a l   p r i n t   o u t   f o r   t i m e  s t e p    7601                              ( at time 3.7996197E+00 )

 nodal point  x-rot      y-rot       z-rot       x-rot vel   y-rot vel   z-rot vel   x-rot acc   y-rot acc   z-rot acc
    22626 -1.33809E-06-3.56322E-05-6.01178E-05 5.37002E-06-7.23997E-05-1.21885E-04 1.55440E-05 8.82092E-05 1.44178E-04



 n o d a l   p r i n t   o u t   f o r   t i m e  s t e p    7801                              ( at time 3.8996097E+00 )

 nodal point  x-disp     y-disp      z-disp      x-vel       y-vel       z-vel      x-accl      y-accl      z-accl      x-coor      y-coor      z-coor
    22626 -1.57954E-02-3.28648E-02-1.22220E+01-1.09401E-02 4.22391E-03-3.16080E+00 6.47108E-03-1.78432E-02 7.84475E-04 4.79484E+01-2.20627E+01-4.88349E+00



 n o d a l   p r i n t   o u t   f o r   t i m e  s t e p    7801                              ( at time 3.8996097E+00 )

 nodal point  x-rot      y-rot       z-rot       x-rot vel   y-rot vel   z-rot vel   x-rot acc   y-rot acc   z-rot acc
    22626 -9.73309E-07-4.22348E-05-7.12396E-05 4.94479E-07-5.77413E-05-9.63363E-05-4.87602E-05 1.46598E-04 2.55517E-04



 n o d a l   p r i n t   o u t   f o r   t i m e  s t e p    8001                              ( at time 3.9995997E+00 )

 nodal point  x-disp     y-disp      z-disp      x-vel       y-vel       z-vel      x-accl      y-accl      z-accl      x-coor      y-coor      z-coor
    22626 -1.68634E-02-3.24941E-02-1.25381E+01-1.03839E-02 3.14043E-03-3.16114E+00 5.56236E-03-1.08359E-02-3.37158E-03 4.79473E+01-2.20623E+01-5.19956E+00



 n o d a l   p r i n t   o u t   f o r   t i m e  s t e p    8001                              ( at time 3.9995997E+00 )

 nodal point  x-rot      y-rot       z-rot       x-rot vel   y-rot vel   z-rot vel   x-rot acc   y-rot acc   z-rot acc
    22626 -8.44125E-07-4.74837E-05-7.99299E-05-2.26313E-07-4.66174E-05-7.98395E-05-7.20865E-06 1.11251E-04 1.64984E-04



 n o d a l   p r i n t   o u t   f o r   t i m e  s t e p    8201                              ( at time 4.0995897E+00 )

 nodal point  x-disp     y-disp      z-disp      x-vel       y-vel       z-vel      x-accl      y-accl      z-accl      x-coor      y-coor      z-coor
    22626 -1.78198E-02-3.22948E-02-1.28541E+01-8.59539E-03 6.34271E-04-3.16063E+00 1.78870E-02-2.50641E-02 5.11697E-03 4.79464E+01-2.20621E+01-5.51561E+00



 n o d a l   p r i n t   o u t   f o r   t i m e  s t e p    8201                              ( at time 4.0995897E+00 )

 nodal point  x-rot      y-rot       z-rot       x-rot vel   y-rot vel   z-rot vel   x-rot acc   y-rot acc   z-rot acc
    22626 -8.48557E-07-5.16125E-05-8.68990E-05-1.78454E-07-3.22558E-05-5.64689E-05 4.78638E-07 1.43630E-04 2.33730E-04



 n o d a l   p r i n t   o u t   f o r   t i m e  s t e p    8401                              ( at time 4.1995797E+00 )

 nodal point  x-disp     y-disp      z-disp      x-vel       y-vel       z-vel      x-accl      y-accl      z-accl      x-coor      y-coor      z-coor
    22626 -1.86006E-02-3.23572E-02-1.31701E+01-6.97331E-03-1.79280E-03-3.16005E+00 1.62224E-02-2.42731E-02 5.81800E-03 4.79456E+01-2.20621E+01-5.83161E+00



 n o d a l   p r i n t   o u t   f o r   t i m e  s t e p    8401                              ( at time 4.1995797E+00 )

 nodal point  x-rot      y-rot       z-rot       x-rot vel   y-rot vel   z-rot vel   x-rot acc   y-rot acc   z-rot acc
    22626 -8.28593E-07-5.39920E-05-9.08515E-05-9.45532E-08-1.42312E-05-2.30570E-05 8.39092E-07 1.80264E-04 3.34152E-04



 n o d a l   p r i n t   o u t   f o r   t i m e  s t e p    8601                              ( at time 4.2995697E+00 )

 nodal point  x-disp     y-disp      z-disp      x-vel       y-vel       z-vel      x-accl      y-accl      z-accl      x-coor      y-coor      z-coor
    22626 -1.92341E-02-3.26556E-02-1.34861E+01-5.55764E-03-3.87753E-03-3.15988E+00 1.41582E-02-2.08495E-02 1.67625E-03 4.79449E+01-2.20624E+01-6.14757E+00



 n o d a l   p r i n t   o u t   f o r   t i m e  s t e p    8601                              ( at time 4.2995697E+00 )

 nodal point  x-rot      y-rot       z-rot       x-rot vel   y-rot vel   z-rot vel   x-rot acc   y-rot acc   z-rot acc
    22626 -8.47640E-07-5.44301E-05-9.17113E-05-3.56732E-07 2.77816E-06 4.63252E-06-2.62205E-06 1.70111E-04 2.76923E-04



 n o d a l   p r i n t   o u t   f o r   t i m e  s t e p    8801                              ( at time 4.3995597E+00 )

 nodal point  x-disp     y-disp      z-disp      x-vel       y-vel       z-vel      x-accl      y-accl      z-accl      x-coor      y-coor      z-coor
    22626 -1.97005E-02-3.30843E-02-1.38021E+01-3.79452E-03-4.74257E-03-3.16047E+00 1.76330E-02-8.65119E-03-5.85377E-03 4.79445E+01-2.20629E+01-6.46355E+00



 n o d a l   p r i n t   o u t   f o r   t i m e  s t e p    8801                              ( at time 4.3995597E+00 )

 nodal point  x-rot      y-rot       z-rot       x-rot vel   y-rot vel   z-rot vel   x-rot acc   y-rot acc   z-rot acc
    22626 -8.20602E-07-5.31516E-05-8.93880E-05 7.22813E-07 2.23346E-05 4.01850E-05 1.07965E-05 1.95584E-04 3.55561E-04



 n o d a l   p r i n t   o u t   f o r   t i m e  s t e p    9001                              ( at time 4.4995497E+00 )

 nodal point  x-disp     y-disp      z-disp      x-vel       y-vel       z-vel      x-accl      y-accl      z-accl      x-coor      y-coor      z-coor
    22626 -1.99978E-02-3.36539E-02-1.41181E+01-2.04719E-03-6.99478E-03-3.16009E+00 1.74750E-02-2.25243E-02 3.72446E-03 4.79442E+01-2.20634E+01-6.77956E+00



 n o d a l   p r i n t   o u t   f o r   t i m e  s t e p    9001                              ( at time 4.4995497E+00 )

 nodal point  x-rot      y-rot       z-rot       x-rot vel   y-rot vel   z-rot vel   x-rot acc   y-rot acc   z-rot acc
    22626 -6.83283E-07-4.96929E-05-8.32858E-05 3.48054E-06 4.38997E-05 7.65292E-05 2.75799E-05 2.15671E-04 3.63476E-04



 n o d a l   p r i n t   o u t   f o r   t i m e  s t e p    9201                              ( at time 4.5995397E+00 )

 nodal point  x-disp     y-disp      z-disp      x-vel       y-vel       z-vel      x-accl      y-accl      z-accl      x-coor      y-coor      z-coor
    22626 -2.01089E-02-3.45074E-02-1.44340E+01-1.20566E-04-9.89198E-03-3.15951E+00 1.92682E-02-2.89749E-02 5.78939E-03 4.79441E+01-2.20643E+01-7.09550E+00



 n o d a l   p r i n t   o u t   f o r   t i m e  s t e p    9201                              ( at time 4.5995397E+00 )

 nodal point  x-rot      y-rot       z-rot       x-rot vel   y-rot vel   z-rot vel   x-rot acc   y-rot acc   z-rot acc
    22626 -3.73012E-07-4.44730E-05-7.41777E-05 4.21036E-06 6.00300E-05 1.03062E-04 7.29891E-06 1.61320E-04 2.65358E-04



 n o d a l   p r i n t   o u t   f o r   t i m e  s t e p    9401                              ( at time 4.6995297E+00 )

 nodal point  x-disp     y-disp      z-disp      x-vel       y-vel       z-vel      x-accl      y-accl      z-accl      x-coor      y-coor      z-coor
    22626 -2.00042E-02-3.55778E-02-1.47499E+01 2.12091E-03-1.14992E-02-3.15935E+00 2.24170E-02-1.60738E-02 1.60472E-03 4.79442E+01-2.20654E+01-7.41141E+00



 n o d a l   p r i n t   o u t   f o r   t i m e  s t e p    9401                              ( at time 4.6995297E+00 )

 nodal point  x-rot      y-rot       z-rot       x-rot vel   y-rot vel   z-rot vel   x-rot acc   y-rot acc   z-rot acc
    22626  3.61669E-09-3.73162E-05-6.17404E-05 2.72673E-06 8.47162E-05 1.45699E-04-1.48377E-05 2.46887E-04 4.26407E-04



 n o d a l   p r i n t   o u t   f o r   t i m e  s t e p    9601                              ( at time 4.7995197E+00 )

 nodal point  x-disp     y-disp      z-disp      x-vel       y-vel       z-vel      x-accl      y-accl      z-accl      x-coor      y-coor      z-coor
    22626 -1.96925E-02-3.67995E-02-1.50658E+01 4.00178E-03-1.27500E-02-3.15961E+00 1.88106E-02-1.25089E-02-2.58949E-03 4.79445E+01-2.20666E+01-7.72732E+00



 n o d a l   p r i n t   o u t   f o r   t i m e  s t e p    9601                              ( at time 4.7995197E+00 )

 nodal point  x-rot      y-rot       z-rot       x-rot vel   y-rot vel   z-rot vel   x-rot acc   y-rot acc   z-rot acc
    22626  3.05784E-07-2.76074E-05-4.50938E-05-1.49825E-07 1.09382E-04 1.87389E-04-2.87685E-05 2.46687E-04 4.16950E-04



 n o d a l   p r i n t   o u t   f o r   t i m e  s t e p    9801                              ( at time 4.8995097E+00 )

 nodal point  x-disp     y-disp      z-disp      x-vel       y-vel       z-vel      x-accl      y-accl      z-accl      x-coor      y-coor      z-coor
    22626 -1.92029E-02-3.81254E-02-1.53818E+01 5.78398E-03-1.38629E-02-3.15987E+00 1.78237E-02-1.11303E-02-2.54418E-03 4.79450E+01-2.20679E+01-8.04327E+00



 n o d a l   p r i n t   o u t   f o r   t i m e  s t e p    9801                              ( at time 4.8995097E+00 )

 nodal point  x-rot      y-rot       z-rot       x-rot vel   y-rot vel   z-rot vel   x-rot acc   y-rot acc   z-rot acc
    22626  3.32658E-07-1.57675E-05-2.47408E-05-8.56057E-07 1.26274E-04 2.16775E-04-7.06303E-06 1.68929E-04 2.93881E-04



 n o d a l   p r i n t   o u t   f o r   t i m e  s t e p   10001                              ( at time 4.9994997E+00 )

 nodal point  x-disp     y-disp      z-disp      x-vel       y-vel       z-vel      x-accl      y-accl      z-accl      x-coor      y-coor      z-coor
    22626 -1.85097E-02-3.96040E-02-1.56977E+01 8.03917E-03-1.57912E-02-3.15968E+00 2.25541E-02-1.92846E-02 1.88369E-03 4.79457E+01-2.20694E+01-8.35922E+00



 n o d a l   p r i n t   o u t   f o r   t i m e  s t e p   10001                              ( at time 4.9994997E+00 )

 nodal point  x-rot      y-rot       z-rot       x-rot vel   y-rot vel   z-rot vel   x-rot acc   y-rot acc   z-rot acc
    22626  2.20875E-07-2.21543E-06-1.49806E-06-1.01414E-06 1.44311E-04 2.48134E-04-1.58100E-06 1.80394E-04 3.13624E-04



 n o d a l   p r i n t   o u t   f o r   t i m e  s t e p   10202                              ( at time 5.0999896E+00 )

 nodal point  x-disp     y-disp      z-disp      x-vel       y-vel       z-vel      x-accl      y-accl      z-accl      x-coor      y-coor      z-coor
    22626 -1.75745E-02-4.12927E-02-1.60152E+01 1.02007E-02-1.72671E-02-3.15804E+00 2.15100E-02-1.46878E-02 1.63470E-02 4.79466E+01-2.20711E+01-8.67667E+00



 n o d a l   p r i n t   o u t   f o r   t i m e  s t e p   10202                              ( at time 5.0999896E+00 )

 nodal point  x-rot      y-rot       z-rot       x-rot vel   y-rot vel   z-rot vel   x-rot acc   y-rot acc   z-rot acc
    22626 -4.45911E-07 1.41547E-05 2.58653E-05-6.51462E-06 1.80318E-04 2.80819E-04-5.47368E-05 3.58313E-04 3.25256E-04



 n o d a l   p r i n t   o u t   f o r   t i m e  s t e p   10402                              ( at time 5.1999796E+00 )

 nodal point  x-disp     y-disp      z-disp      x-vel       y-vel       z-vel      x-accl      y-accl      z-accl      x-coor      y-coor      z-coor
    22626 -1.64763E-02-4.29816E-02-1.63309E+01 1.18892E-02-1.67632E-02-3.15564E+00 1.68863E-02 5.03928E-03 2.39681E-02 4.79477E+01-2.20728E+01-8.99236E+00



 n o d a l   p r i n t   o u t   f o r   t i m e  s t e p   10402                              ( at time 5.1999796E+00 )

 nodal point  x-rot      y-rot       z-rot       x-rot vel   y-rot vel   z-rot vel   x-rot acc   y-rot acc   z-rot acc
    22626  1.34182E-07 3.47406E-05 5.56432E-05 6.22425E-06 2.42452E-04 3.16943E-04 1.27401E-04 6.21398E-04 3.61277E-04



 n o d a l   p r i n t   o u t   f o r   t i m e  s t e p   10602                              ( at time 5.2999696E+00 )

 nodal point  x-disp     y-disp      z-disp      x-vel       y-vel       z-vel      x-accl      y-accl      z-accl      x-coor      y-coor      z-coor
    22626 -1.52361E-02-4.45638E-02-1.66460E+01 1.33806E-02-1.54538E-02-3.14823E+00 1.49156E-02 1.30961E-02 7.41342E-02 4.79489E+01-2.20744E+01-9.30755E+00



 n o d a l   p r i n t   o u t   f o r   t i m e  s t e p   10602                              ( at time 5.2999696E+00 )

 nodal point  x-rot      y-rot       z-rot       x-rot vel   y-rot vel   z-rot vel   x-rot acc   y-rot acc   z-rot acc
    22626  1.81161E-06 6.29277E-05 8.73782E-05 2.80157E-05 3.29966E-04 3.22607E-04 2.17937E-04 8.75228E-04 5.66467E-05



 n o d a l   p r i n t   o u t   f o r   t i m e  s t e p   10802                              ( at time 5.3999596E+00 )

 nodal point  x-disp     y-disp      z-disp      x-vel       y-vel       z-vel      x-accl      y-accl      z-accl      x-coor      y-coor      z-coor
    22626 -1.38778E-02-4.59419E-02-1.69603E+01 1.42297E-02-1.27603E-02-3.13608E+00 8.49157E-03 2.69371E-02 1.21479E-01 4.79503E+01-2.20757E+01-9.62175E+00



 n o d a l   p r i n t   o u t   f o r   t i m e  s t e p   10802                              ( at time 5.3999596E+00 )

 nodal point  x-rot      y-rot       z-rot       x-rot vel   y-rot vel   z-rot vel   x-rot acc   y-rot acc   z-rot acc
    22626  8.49349E-06 1.03350E-04 1.18670E-04 1.05092E-04 4.78182E-04 3.07351E-04 7.70843E-04 1.48232E-03-1.52576E-04



 n o d a l   p r i n t   o u t   f o r   t i m e  s t e p   11002                              ( at time 5.4999496E+00 )

 nodal point  x-disp     y-disp      z-disp      x-vel       y-vel       z-vel      x-accl      y-accl      z-accl      x-coor      y-coor      z-coor
    22626 -1.23398E-02-4.69674E-02-1.72729E+01 1.61838E-02-7.43806E-03-3.11770E+00 1.95429E-02 5.32281E-02 1.83806E-01 4.79518E+01-2.20768E+01-9.93439E+00



 n o d a l   p r i n t   o u t   f o r   t i m e  s t e p   11002                              ( at time 5.4999496E+00 )

 nodal point  x-rot      y-rot       z-rot       x-rot vel   y-rot vel   z-rot vel   x-rot acc   y-rot acc   z-rot acc
    22626  2.31219E-05 1.59702E-04 1.47894E-04 2.04243E-04 6.48728E-04 2.59865E-04 9.91611E-04 1.70563E-03-4.74909E-04



 n o d a l   p r i n t   o u t   f o r   t i m e  s t e p   11202                              ( at time 5.5999396E+00 )

 nodal point  x-disp     y-disp      z-disp      x-vel       y-vel       z-vel      x-accl      y-accl      z-accl      x-coor      y-coor      z-coor
    22626 -1.06026E-02-4.75793E-02-1.75836E+01 1.80044E-02-2.73219E-03-3.09521E+00 1.82085E-02 4.70635E-02 2.24983E-01 4.79536E+01-2.20774E+01-1.02451E+01



 n o d a l   p r i n t   o u t   f o r   t i m e  s t e p   11202                              ( at time 5.5999396E+00 )

 nodal point  x-rot      y-rot       z-rot       x-rot vel   y-rot vel   z-rot vel   x-rot acc   y-rot acc   z-rot acc
    22626  4.69308E-05 2.36889E-04 1.74368E-04 2.98004E-04 8.81347E-04 2.31521E-04 9.37698E-04 2.32643E-03-2.83469E-04



 n o d a l   p r i n t   o u t   f o r   t i m e  s t e p   11402                              ( at time 5.6999296E+00 )

 nodal point  x-disp     y-disp      z-disp      x-vel       y-vel       z-vel      x-accl      y-accl      z-accl      x-coor      y-coor      z-coor
    22626 -8.66280E-03-4.75872E-02-1.78919E+01 2.09920E-02 2.61802E-03-3.07075E+00 2.98792E-02 5.35073E-02 2.44605E-01 4.79555E+01-2.20774E+01-1.05534E+01



 n o d a l   p r i n t   o u t   f o r   t i m e  s t e p   11402                              ( at time 5.6999296E+00 )

 nodal point  x-rot      y-rot       z-rot       x-rot vel   y-rot vel   z-rot vel   x-rot acc   y-rot acc   z-rot acc
    22626  8.27401E-05 3.36692E-04 1.96391E-04 4.07018E-04 1.12782E-03 2.07145E-04 1.09024E-03 2.46497E-03-2.43782E-04



 n o d a l   p r i n t   o u t   f o r   t i m e  s t e p   11602                              ( at time 5.7999195E+00 )

 nodal point  x-disp     y-disp      z-disp      x-vel       y-vel       z-vel      x-accl      y-accl      z-accl      x-coor      y-coor      z-coor
    22626 -6.52947E-03-4.69527E-02-1.81974E+01 2.26036E-02 9.33960E-03-3.04124E+00 1.61167E-02 6.72225E-02 2.95113E-01 4.79576E+01-2.20767E+01-1.08589E+01



 n o d a l   p r i n t   o u t   f o r   t i m e  s t e p   11602                              ( at time 5.7999195E+00 )

 nodal point  x-rot      y-rot       z-rot       x-rot vel   y-rot vel   z-rot vel   x-rot acc   y-rot acc   z-rot acc
    22626  1.30927E-04 4.63708E-04 2.13032E-04 5.45829E-04 1.40407E-03 1.43364E-04 1.38826E-03 2.76280E-03-6.37881E-04



 n o d a l   p r i n t   o u t   f o r   t i m e  s t e p   11802                              ( at time 5.8999095E+00 )

 nodal point  x-disp     y-disp      z-disp      x-vel       y-vel       z-vel      x-accl      y-accl      z-accl      x-coor      y-coor      z-coor
    22626 -4.13827E-03-4.57750E-02-1.85000E+01 2.43252E-02 1.38531E-02-3.00851E+00 1.72184E-02 4.51397E-02 3.27315E-01 4.79600E+01-2.20756E+01-1.11615E+01



 n o d a l   p r i n t   o u t   f o r   t i m e  s t e p   11802                              ( at time 5.8999095E+00 )

 nodal point  x-rot      y-rot       z-rot       x-rot vel   y-rot vel   z-rot vel   x-rot acc   y-rot acc   z-rot acc
    22626  1.93772E-04 6.19082E-04 2.23431E-04 6.98524E-04 1.71872E-03 7.53729E-05 1.52710E-03 3.14679E-03-6.79975E-04



 n o d a l   p r i n t   o u t   f o r   t i m e  s t e p   12002                              ( at time 5.9998995E+00 )

 nodal point  x-disp     y-disp      z-disp      x-vel       y-vel       z-vel      x-accl      y-accl      z-accl      x-coor      y-coor      z-coor
    22626 -1.52101E-03-4.40579E-02-1.87991E+01 2.72385E-02 2.07092E-02-2.97462E+00 2.91354E-02 6.85677E-02 3.38977E-01 4.79627E+01-2.20738E+01-1.14606E+01



 n o d a l   p r i n t   o u t   f o r   t i m e  s t e p   12002                              ( at time 5.9998995E+00 )

 nodal point  x-rot      y-rot       z-rot       x-rot vel   y-rot vel   z-rot vel   x-rot acc   y-rot acc   z-rot acc
    22626  2.70926E-04 8.06722E-04 2.25932E-04 8.57722E-04 2.03621E-03-2.08065E-05 1.59215E-03 3.17523E-03-9.61891E-04



 n o d a l   p r i n t   o u t   f o r   t i m e  s t e p   12202                              ( at time 6.0998895E+00 )

 nodal point  x-disp     y-disp      z-disp      x-vel       y-vel       z-vel      x-accl      y-accl      z-accl      x-coor      y-coor      z-coor
    22626  1.31884E-03-4.16473E-02-1.90946E+01 2.98582E-02 2.73411E-02-2.93855E+00 2.62003E-02 6.63254E-02 3.60748E-01 4.79655E+01-2.20714E+01-1.17561E+01



 n o d a l   p r i n t   o u t   f o r   t i m e  s t e p   12202                              ( at time 6.0998895E+00 )

 nodal point  x-rot      y-rot       z-rot       x-rot vel   y-rot vel   z-rot vel   x-rot acc   y-rot acc   z-rot acc
    22626  3.65492E-04 1.02684E-03 2.19148E-04 1.03124E-03 2.35150E-03-1.09324E-04 1.73531E-03 3.15319E-03-8.85257E-04



 n o d a l   p r i n t   o u t   f o r   t i m e  s t e p   12402                              ( at time 6.1998795E+00 )

 nodal point  x-disp     y-disp      z-disp      x-vel       y-vel       z-vel      x-accl      y-accl      z-accl      x-coor      y-coor      z-coor
    22626  4.49670E-03-3.86247E-02-1.93864E+01 3.34230E-02 3.43280E-02-2.89787E+00 3.56512E-02 6.98759E-02 4.06778E-01 4.79687E+01-2.20684E+01-1.20479E+01



 n o d a l   p r i n t   o u t   f o r   t i m e  s t e p   12402                              ( at time 6.1998795E+00 )

 nodal point  x-rot      y-rot       z-rot       x-rot vel   y-rot vel   z-rot vel   x-rot acc   y-rot acc   z-rot acc
    22626  4.74937E-04 1.27966E-03 2.04067E-04 1.17817E-03 2.70118E-03-2.14265E-04 1.46944E-03 3.49720E-03-1.04952E-03



 n o d a l   p r i n t   o u t   f o r   t i m e  s t e p   12602                              ( at time 6.2998695E+00 )

 nodal point  x-disp     y-disp      z-disp      x-vel       y-vel       z-vel      x-accl      y-accl      z-accl      x-coor      y-coor      z-coor
    22626  8.07361E-03-3.49661E-02-1.96743E+01 3.73968E-02 3.99264E-02-2.85817E+00 3.97416E-02 5.59896E-02 3.97024E-01 4.79723E+01-2.20648E+01-1.23358E+01



 n o d a l   p r i n t   o u t   f o r   t i m e  s t e p   12602                              ( at time 6.2998695E+00 )

 nodal point  x-rot      y-rot       z-rot       x-rot vel   y-rot vel   z-rot vel   x-rot acc   y-rot acc   z-rot acc
    22626  6.02700E-04 1.56556E-03 1.78445E-04 1.37120E-03 3.03658E-03-3.12451E-04 1.93055E-03 3.35431E-03-9.81959E-04



 n o d a l   p r i n t   o u t   f o r   t i m e  s t e p   12802                              ( at time 6.3998595E+00 )

 nodal point  x-disp     y-disp      z-disp      x-vel       y-vel       z-vel      x-accl      y-accl      z-accl      x-coor      y-coor      z-coor
    22626  1.20834E-02-3.06173E-02-1.99579E+01 4.29706E-02 4.66553E-02-2.81481E+00 5.57439E-02 6.72956E-02 4.33694E-01 4.79763E+01-2.20604E+01-1.26194E+01



 n o d a l   p r i n t   o u t   f o r   t i m e  s t e p   12802                              ( at time 6.3998595E+00 )

 nodal point  x-rot      y-rot       z-rot       x-rot vel   y-rot vel   z-rot vel   x-rot acc   y-rot acc   z-rot acc
    22626  7.47486E-04 1.88630E-03 1.41456E-04 1.53321E-03 3.38888E-03-4.22171E-04 1.62021E-03 3.52332E-03-1.09731E-03



 n o d a l   p r i n t   o u t   f o r   t i m e  s t e p   13002                              ( at time 6.4998495E+00 )

 nodal point  x-disp     y-disp      z-disp      x-vel       y-vel       z-vel      x-accl      y-accl      z-accl      x-coor      y-coor      z-coor
    22626  1.66077E-02-2.55429E-02-2.02372E+01 4.90721E-02 5.44807E-02-2.77113E+00 6.10212E-02 7.82624E-02 4.36853E-01 4.79808E+01-2.20553E+01-1.28987E+01



 n o d a l   p r i n t   o u t   f o r   t i m e  s t e p   13002                              ( at time 6.4998495E+00 )

 nodal point  x-rot      y-rot       z-rot       x-rot vel   y-rot vel   z-rot vel   x-rot acc   y-rot acc   z-rot acc
    22626  9.12028E-04 2.24222E-03 9.29628E-05 1.75968E-03 3.72160E-03-5.35858E-04 2.26501E-03 3.32757E-03-1.13698E-03



 n o d a l   p r i n t   o u t   f o r   t i m e  s t e p   13202                              ( at time 6.5998395E+00 )

 nodal point  x-disp     y-disp      z-disp      x-vel       y-vel       z-vel      x-accl      y-accl      z-accl      x-coor      y-coor      z-coor
    22626  2.17981E-02-1.96773E-02-2.05118E+01 5.56096E-02 6.23779E-02-2.72319E+00 6.53817E-02 7.89795E-02 4.79451E-01 4.79860E+01-2.20495E+01-1.31733E+01



 n o d a l   p r i n t   o u t   f o r   t i m e  s t e p   13202                              ( at time 6.5998395E+00 )

 nodal point  x-rot      y-rot       z-rot       x-rot vel   y-rot vel   z-rot vel   x-rot acc   y-rot acc   z-rot acc
    22626  1.09653E-03 2.63203E-03 3.34147E-05 1.93862E-03 4.06410E-03-6.54277E-04 1.78955E-03 3.42534E-03-1.18431E-03



 n o d a l   p r i n t   o u t   f o r   t i m e  s t e p   13402                              ( at time 6.6998295E+00 )

 nodal point  x-disp     y-disp      z-disp      x-vel       y-vel       z-vel      x-accl      y-accl      z-accl      x-coor      y-coor      z-coor
    22626  2.76591E-02-1.31035E-02-2.07818E+01 6.24955E-02 6.96143E-02-2.67575E+00 6.88660E-02 7.23710E-02 4.74437E-01 4.79918E+01-2.20429E+01-1.34433E+01



 n o d a l   p r i n t   o u t   f o r   t i m e  s t e p   13402                              ( at time 6.6998295E+00 )

 nodal point  x-rot      y-rot       z-rot       x-rot vel   y-rot vel   z-rot vel   x-rot acc   y-rot acc   z-rot acc
    22626  1.30121E-03 3.05573E-03-3.86169E-05 2.16265E-03 4.39712E-03-7.73622E-04 2.24050E-03 3.33047E-03-1.19357E-03



 n o d a l   p r i n t   o u t   f o r   t i m e  s t e p   13602                              ( at time 6.7998195E+00 )

 nodal point  x-disp     y-disp      z-disp      x-vel       y-vel       z-vel      x-accl      y-accl      z-accl      x-coor      y-coor      z-coor
    22626  3.42933E-02-5.77051E-03-2.10468E+01 7.09604E-02 7.70644E-02-2.62513E+00 8.46568E-02 7.45089E-02 5.06197E-01 4.79985E+01-2.20356E+01-1.37083E+01



 n o d a l   p r i n t   o u t   f o r   t i m e  s t e p   13602                              ( at time 6.7998195E+00 )

 nodal point  x-rot      y-rot       z-rot       x-rot vel   y-rot vel   z-rot vel   x-rot acc   y-rot acc   z-rot acc
    22626  1.52839E-03 3.51060E-03-1.22721E-04 2.36853E-03 4.70989E-03-9.01872E-04 2.05899E-03 3.12804E-03-1.28263E-03



 n o d a l   p r i n t   o u t   f o r   t i m e  s t e p   13802                              ( at time 6.8998095E+00 )

 nodal point  x-disp     y-disp      z-disp      x-vel       y-vel       z-vel      x-accl      y-accl      z-accl      x-coor      y-coor      z-coor
    22626  4.18374E-02 2.32219E-03-2.13068E+01 7.99742E-02 8.41188E-02-2.57478E+00 9.01479E-02 7.05509E-02 5.03589E-01 4.80060E+01-2.20275E+01-1.39683E+01



 n o d a l   p r i n t   o u t   f o r   t i m e  s t e p   13802                              ( at time 6.8998095E+00 )

 nodal point  x-rot      y-rot       z-rot       x-rot vel   y-rot vel   z-rot vel   x-rot acc   y-rot acc   z-rot acc
    22626  1.77709E-03 3.99692E-03-2.19963E-04 2.59663E-03 5.02279E-03-1.02625E-03 2.28127E-03 3.12936E-03-1.24393E-03



 n o d a l   p r i n t   o u t   f o r   t i m e  s t e p   14002                              ( at time 6.9997995E+00 )

 nodal point  x-disp     y-disp      z-disp      x-vel       y-vel       z-vel      x-accl      y-accl      z-accl      x-coor      y-coor      z-coor
    22626  5.01932E-02 1.11712E-02-2.15616E+01 8.74588E-02 9.29843E-02-2.52196E+00 7.48536E-02 8.86646E-02 5.28227E-01 4.80144E+01-2.20186E+01-1.42231E+01



 n o d a l   p r i n t   o u t   f o r   t i m e  s t e p   14002                              ( at time 6.9997995E+00 )

 nodal point  x-rot      y-rot       z-rot       x-rot vel   y-rot vel   z-rot vel   x-rot acc   y-rot acc   z-rot acc
    22626  2.04888E-03 4.51402E-03-3.29374E-04 2.84299E-03 5.32587E-03-1.16003E-03 2.46381E-03 3.03110E-03-1.33786E-03



 n o d a l   p r i n t   o u t   f o r   t i m e  s t e p   14202                              ( at time 7.0997895E+00 )

 nodal point  x-disp     y-disp      z-disp      x-vel       y-vel       z-vel      x-accl      y-accl      z-accl      x-coor      y-coor      z-coor
    22626  5.94549E-02 2.08287E-02-2.18112E+01 9.73973E-02 9.99424E-02-2.46866E+00 9.93944E-02 6.95873E-02 5.33117E-01 4.80236E+01-2.20090E+01-1.44727E+01



 n o d a l   p r i n t   o u t   f o r   t i m e  s t e p   14202                              ( at time 7.0997895E+00 )

 nodal point  x-rot      y-rot       z-rot       x-rot vel   y-rot vel   z-rot vel   x-rot acc   y-rot acc   z-rot acc
    22626  2.34451E-03 5.06180E-03-4.52072E-04 3.07561E-03 5.62038E-03-1.28999E-03 2.32640E-03 2.94533E-03-1.29974E-03



 n o d a l   p r i n t   o u t   f o r   t i m e  s t e p   14402                              ( at time 7.1997794E+00 )

 nodal point  x-disp     y-disp      z-disp      x-vel       y-vel       z-vel      x-accl      y-accl      z-accl      x-coor      y-coor      z-coor
    22626  6.97251E-02 3.11641E-02-2.20552E+01 1.07760E-01 1.06987E-01-2.41281E+00 1.03636E-01 7.04539E-02 5.58469E-01 4.80339E+01-2.19986E+01-1.47167E+01



 n o d a l   p r i n t   o u t   f o r   t i m e  s t e p   14402                              ( at time 7.1997794E+00 )

 nodal point  x-rot      y-rot       z-rot       x-rot vel   y-rot vel   z-rot vel   x-rot acc   y-rot acc   z-rot acc
    22626  2.66411E-03 5.63904E-03-5.87144E-04 3.32271E-03 5.91413E-03-1.41608E-03 2.47130E-03 2.93783E-03-1.26106E-03



 n o d a l   p r i n t   o u t   f o r   t i m e  s t e p   14602                              ( at time 7.2997694E+00 )

 nodal point  x-disp     y-disp      z-disp      x-vel       y-vel       z-vel      x-accl      y-accl      z-accl      x-coor      y-coor      z-coor
    22626  8.09569E-02 4.21769E-02-2.22936E+01 1.16980E-01 1.13259E-01-2.35642E+00 9.22116E-02 6.27212E-02 5.64039E-01 4.80451E+01-2.19876E+01-1.49551E+01



 n o d a l   p r i n t   o u t   f o r   t i m e  s t e p   14602                              ( at time 7.2997694E+00 )

 nodal point  x-rot      y-rot       z-rot       x-rot vel   y-rot vel   z-rot vel   x-rot acc   y-rot acc   z-rot acc
    22626  3.00811E-03 6.24611E-03-7.34310E-04 3.56793E-03 6.21477E-03-1.53167E-03 2.45242E-03 3.00672E-03-1.15604E-03



 n o d a l   p r i n t   o u t   f o r   t i m e  s t e p   14802                              ( at time 7.3997594E+00 )

 nodal point  x-disp     y-disp      z-disp      x-vel       y-vel       z-vel      x-accl      y-accl      z-accl      x-coor      y-coor      z-coor
    22626  9.31035E-02 5.38317E-02-2.25263E+01 1.26107E-01 1.19465E-01-2.29900E+00 9.12783E-02 6.20664E-02 5.74251E-01 4.80573E+01-2.19760E+01-1.51878E+01



 n o d a l   p r i n t   o u t   f o r   t i m e  s t e p   14802                              ( at time 7.3997594E+00 )

 nodal point  x-rot      y-rot       z-rot       x-rot vel   y-rot vel   z-rot vel   x-rot acc   y-rot acc   z-rot acc
    22626  3.37787E-03 6.88170E-03-8.92950E-04 3.83162E-03 6.49954E-03-1.63886E-03 2.63722E-03 2.84801E-03-1.07200E-03



 n o d a l   p r i n t   o u t   f o r   t i m e  s t e p   15002                              ( at time 7.4997494E+00 )

 nodal point  x-disp     y-disp      z-disp      x-vel       y-vel       z-vel      x-accl      y-accl      z-accl      x-coor      y-coor      z-coor
    22626  1.06165E-01 6.60049E-02-2.27532E+01 1.34730E-01 1.24319E-01-2.23886E+00 8.62349E-02 4.85477E-02 6.01443E-01 4.80703E+01-2.19638E+01-1.54147E+01



 n o d a l   p r i n t   o u t   f o r   t i m e  s t e p   15002                              ( at time 7.4997494E+00 )

 nodal point  x-rot      y-rot       z-rot       x-rot vel   y-rot vel   z-rot vel   x-rot acc   y-rot acc   z-rot acc
    22626  3.77343E-03 7.54650E-03-1.06236E-03 4.08581E-03 6.79350E-03-1.75334E-03 2.54215E-03 2.93985E-03-1.14491E-03



 n o d a l   p r i n t   o u t   f o r   t i m e  s t e p   15202                              ( at time 7.5997394E+00 )

 nodal point  x-disp     y-disp      z-disp      x-vel       y-vel       z-vel      x-accl      y-accl      z-accl      x-coor      y-coor      z-coor
    22626  1.20061E-01 7.85533E-02-2.29741E+01 1.42809E-01 1.28103E-01-2.17676E+00 8.08021E-02 3.78407E-02 6.21010E-01 4.80842E+01-2.19512E+01-1.56356E+01



 n o d a l   p r i n t   o u t   f o r   t i m e  s t e p   15202                              ( at time 7.5997394E+00 )

 nodal point  x-rot      y-rot       z-rot       x-rot vel   y-rot vel   z-rot vel   x-rot acc   y-rot acc   z-rot acc
    22626  4.19548E-03 8.23884E-03-1.24188E-03 4.36968E-03 7.06354E-03-1.84754E-03 2.83893E-03 2.70065E-03-9.42088E-04



 n o d a l   p r i n t   o u t   f o r   t i m e  s t e p   15402                              ( at time 7.6997294E+00 )

 nodal point  x-disp     y-disp      z-disp      x-vel       y-vel       z-vel      x-accl      y-accl      z-accl      x-coor      y-coor      z-coor
    22626  1.34714E-01 9.14747E-02-2.31885E+01 1.50980E-01 1.30331E-01-2.11440E+00 8.17170E-02 2.22874E-02 6.23664E-01 4.80989E+01-2.19383E+01-1.58500E+01



 n o d a l   p r i n t   o u t   f o r   t i m e  s t e p   15402                              ( at time 7.6997294E+00 )

 nodal point  x-rot      y-rot       z-rot       x-rot vel   y-rot vel   z-rot vel   x-rot acc   y-rot acc   z-rot acc
    22626  4.64809E-03 8.95916E-03-1.43133E-03 4.66889E-03 7.32912E-03-1.94057E-03 2.99243E-03 2.65607E-03-9.30376E-04



 n o d a l   p r i n t   o u t   f o r   t i m e  s t e p   15602                              ( at time 7.7997194E+00 )

 nodal point  x-disp     y-disp      z-disp      x-vel       y-vel       z-vel      x-accl      y-accl      z-accl      x-coor      y-coor      z-coor
    22626  1.50216E-01 1.04678E-01-2.33966E+01 1.58407E-01 1.32837E-01-2.04954E+00 7.42822E-02 2.50593E-02 6.48667E-01 4.81144E+01-2.19251E+01-1.60581E+01



 n o d a l   p r i n t   o u t   f o r   t i m e  s t e p   15602                              ( at time 7.7997194E+00 )

 nodal point  x-rot      y-rot       z-rot       x-rot vel   y-rot vel   z-rot vel   x-rot acc   y-rot acc   z-rot acc
    22626  5.13001E-03 9.70717E-03-1.63084E-03 4.96211E-03 7.61173E-03-2.04103E-03 2.93248E-03 2.82637E-03-1.00469E-03



 n o d a l   p r i n t   o u t   f o r   t i m e  s t e p   15802                              ( at time 7.8997094E+00 )

 nodal point  x-disp     y-disp      z-disp      x-vel       y-vel       z-vel      x-accl      y-accl      z-accl      x-coor      y-coor      z-coor
    22626  1.66458E-01 1.18045E-01-2.35983E+01 1.65916E-01 1.35022E-01-1.98424E+00 7.50977E-02 2.18506E-02 6.53092E-01 4.81306E+01-2.19117E+01-1.62598E+01



 n o d a l   p r i n t   o u t   f o r   t i m e  s t e p   15802                              ( at time 7.8997094E+00 )

 nodal point  x-rot      y-rot       z-rot       x-rot vel   y-rot vel   z-rot vel   x-rot acc   y-rot acc   z-rot acc
    22626  5.64195E-03 1.04800E-02-1.83756E-03 5.28067E-03 7.84546E-03-2.11789E-03 3.18589E-03 2.33755E-03-7.68726E-04



 n o d a l   p r i n t   o u t   f o r   t i m e  s t e p   16002                              ( at time 7.9996994E+00 )

 nodal point  x-disp     y-disp      z-disp      x-vel       y-vel       z-vel      x-accl      y-accl      z-accl      x-coor      y-coor      z-coor
    22626  1.83471E-01 1.31612E-01-2.37934E+01 1.73663E-01 1.35822E-01-1.91697E+00 7.74734E-02 8.00910E-03 6.72826E-01 4.81477E+01-2.18982E+01-1.64549E+01



 n o d a l   p r i n t   o u t   f o r   t i m e  s t e p   16002                              ( at time 7.9996994E+00 )

 nodal point  x-rot      y-rot       z-rot       x-rot vel   y-rot vel   z-rot vel   x-rot acc   y-rot acc   z-rot acc
    22626  6.18521E-03 1.12766E-02-2.05311E-03 5.59224E-03 8.09216E-03-2.20668E-03 3.11603E-03 2.46728E-03-8.87929E-04



 n o d a l   p r i n t   o u t   f o r   t i m e  s t e p   16202                              ( at time 8.0996894E+00 )

 nodal point  x-disp     y-disp      z-disp      x-vel       y-vel       z-vel      x-accl      y-accl      z-accl      x-coor      y-coor      z-coor
    22626  2.01203E-01 1.45213E-01-2.39815E+01 1.81271E-01 1.36453E-01-1.84834E+00 7.60856E-02 6.30502E-03 6.86367E-01 4.81654E+01-2.18846E+01-1.66430E+01



 n o d a l   p r i n t   o u t   f o r   t i m e  s t e p   16202                              ( at time 8.0996894E+00 )

 nodal point  x-rot      y-rot       z-rot       x-rot vel   y-rot vel   z-rot vel   x-rot acc   y-rot acc   z-rot acc
    22626  6.76141E-03 1.20972E-02-2.27700E-03 5.92701E-03 8.30693E-03-2.27377E-03 3.34810E-03 2.14785E-03-6.71009E-04



 n o d a l   p r i n t   o u t   f o r   t i m e  s t e p   16402                              ( at time 8.1996794E+00 )

 nodal point  x-disp     y-disp      z-disp      x-vel       y-vel       z-vel      x-accl      y-accl      z-accl      x-coor      y-coor      z-coor
    22626  2.19708E-01 1.58826E-01-2.41629E+01 1.88645E-01 1.36333E-01-1.77850E+00 7.37511E-02-1.19832E-03 6.98405E-01 4.81839E+01-2.18710E+01-1.68244E+01



 n o d a l   p r i n t   o u t   f o r   t i m e  s t e p   16402                              ( at time 8.1996794E+00 )

 nodal point  x-rot      y-rot       z-rot       x-rot vel   y-rot vel   z-rot vel   x-rot acc   y-rot acc   z-rot acc
    22626  7.36966E-03 1.29382E-02-2.50675E-03 6.23831E-03 8.51371E-03-2.33745E-03 3.11324E-03 2.06805E-03-6.36812E-04



 n o d a l   p r i n t   o u t   f o r   t i m e  s t e p   16602                              ( at time 8.2996694E+00 )

 nodal point  x-disp     y-disp      z-disp      x-vel       y-vel       z-vel      x-accl      y-accl      z-accl      x-coor      y-coor      z-coor
    22626  2.38969E-01 1.72359E-01-2.43373E+01 1.96546E-01 1.34511E-01-1.70859E+00 7.90209E-02-1.82239E-02 6.99166E-01 4.82031E+01-2.18574E+01-1.69988E+01



 n o d a l   p r i n t   o u t   f o r   t i m e  s t e p   16602                              ( at time 8.2996694E+00 )

 nodal point  x-rot      y-rot       z-rot       x-rot vel   y-rot vel   z-rot vel   x-rot acc   y-rot acc   z-rot acc
    22626  8.01158E-03 1.37984E-02-2.74379E-03 6.60154E-03 8.67661E-03-2.40525E-03 3.63271E-03 1.62911E-03-6.78132E-04



 n o d a l   p r i n t   o u t   f o r   t i m e  s t e p   16802                              ( at time 8.3996594E+00 )

 nodal point  x-disp     y-disp      z-disp      x-vel       y-vel       z-vel      x-accl      y-accl      z-accl      x-coor      y-coor      z-coor
    22626  2.58961E-01 1.85728E-01-2.45044E+01 2.02955E-01 1.31461E-01-1.63608E+00 6.40962E-02-3.05032E-02 7.25158E-01 4.82231E+01-2.18441E+01-1.71659E+01



 n o d a l   p r i n t   o u t   f o r   t i m e  s t e p   16802                              ( at time 8.3996594E+00 )

 nodal point  x-rot      y-rot       z-rot       x-rot vel   y-rot vel   z-rot vel   x-rot acc   y-rot acc   z-rot acc
    22626  8.68986E-03 1.46747E-02-2.98753E-03 6.94897E-03 8.84995E-03-2.46792E-03 3.47468E-03 1.73366E-03-6.26753E-04



 n o d a l   p r i n t   o u t   f o r   t i m e  s t e p   17002                              ( at time 8.4996494E+00 )

 nodal point  x-disp     y-disp      z-disp      x-vel       y-vel       z-vel      x-accl      y-accl      z-accl      x-coor      y-coor      z-coor
    22626  2.79600E-01 1.98657E-01-2.46643E+01 2.10767E-01 1.27143E-01-1.56282E+00 7.81278E-02-4.31867E-02 7.32724E-01 4.82438E+01-2.18311E+01-1.73258E+01



 n o d a l   p r i n t   o u t   f o r   t i m e  s t e p   17002                              ( at time 8.4996494E+00 )

 nodal point  x-rot      y-rot       z-rot       x-rot vel   y-rot vel   z-rot vel   x-rot acc   y-rot acc   z-rot acc
    22626  9.40246E-03 1.55672E-02-3.23768E-03 7.30863E-03 8.98875E-03-2.53143E-03 3.59695E-03 1.38811E-03-6.35180E-04



 n o d a l   p r i n t   o u t   f o r   t i m e  s t e p   17202                              ( at time 8.5996394E+00 )

 nodal point  x-disp     y-disp      z-disp      x-vel       y-vel       z-vel      x-accl      y-accl      z-accl      x-coor      y-coor      z-coor
    22626  3.01030E-01 2.11168E-01-2.48167E+01 2.17461E-01 1.21725E-01-1.48584E+00 6.69471E-02-5.41827E-02 7.69877E-01 4.82652E+01-2.18186E+01-1.74782E+01



 n o d a l   p r i n t   o u t   f o r   t i m e  s t e p   17202                              ( at time 8.5996394E+00 )

 nodal point  x-rot      y-rot       z-rot       x-rot vel   y-rot vel   z-rot vel   x-rot acc   y-rot acc   z-rot acc
    22626  1.01538E-02 1.64712E-02-3.49433E-03 7.71255E-03 9.11184E-03-2.58551E-03 4.03957E-03 1.23105E-03-5.40799E-04



 n o d a l   p r i n t   o u t   f o r   t i m e  s t e p   17402                              ( at time 8.6996293E+00 )

 nodal point  x-disp     y-disp      z-disp      x-vel       y-vel       z-vel      x-accl      y-accl      z-accl      x-coor      y-coor      z-coor
    22626  3.23082E-01 2.23110E-01-2.49614E+01 2.23869E-01 1.16718E-01-1.40903E+00 6.40831E-02-5.00770E-02 7.68192E-01 4.82873E+01-2.18067E+01-1.76229E+01



 n o d a l   p r i n t   o u t   f o r   t i m e  s t e p   17402                              ( at time 8.6996293E+00 )

 nodal point  x-rot      y-rot       z-rot       x-rot vel   y-rot vel   z-rot vel   x-rot acc   y-rot acc   z-rot acc
    22626  1.09433E-02 1.73885E-02-3.75729E-03 8.08777E-03 9.21557E-03-2.67028E-03 3.75257E-03 1.03737E-03-8.47819E-04



 n o d a l   p r i n t   o u t   f o r   t i m e  s t e p   17602                              ( at time 8.7996193E+00 )

 nodal point  x-disp     y-disp      z-disp      x-vel       y-vel       z-vel      x-accl      y-accl      z-accl      x-coor      y-coor      z-coor
    22626  3.45859E-01 2.34381E-01-2.50983E+01 2.31168E-01 1.09428E-01-1.32902E+00 7.29955E-02-7.29015E-02 8.00149E-01 4.83100E+01-2.17954E+01-1.77598E+01



 n o d a l   p r i n t   o u t   f o r   t i m e  s t e p   17602                              ( at time 8.7996193E+00 )

 nodal point  x-rot      y-rot       z-rot       x-rot vel   y-rot vel   z-rot vel   x-rot acc   y-rot acc   z-rot acc
    22626  1.17718E-02 1.83145E-02-4.02681E-03 8.50193E-03 9.30735E-03-2.73611E-03 4.14201E-03 9.17930E-04-6.58297E-04



 n o d a l   p r i n t   o u t   f o r   t i m e  s t e p   17802                              ( at time 8.8996093E+00 )

 nodal point  x-disp     y-disp      z-disp      x-vel       y-vel       z-vel      x-accl      y-accl      z-accl      x-coor      y-coor      z-coor
    22626  3.69342E-01 2.44921E-01-2.52273E+01 2.38761E-01 1.02959E-01-1.25023E+00 7.59368E-02-6.47003E-02 7.87976E-01 4.83335E+01-2.17849E+01-1.78888E+01



 n o d a l   p r i n t   o u t   f o r   t i m e  s t e p   17802                              ( at time 8.8996093E+00 )

 nodal point  x-rot      y-rot       z-rot       x-rot vel   y-rot vel   z-rot vel   x-rot acc   y-rot acc   z-rot acc
    22626  1.26413E-02 1.92502E-02-4.30194E-03 8.89361E-03 9.40718E-03-2.78798E-03 3.91723E-03 9.98320E-04-5.18818E-04



 n o d a l   p r i n t   o u t   f o r   t i m e  s t e p   18002                              ( at time 8.9995993E+00 )

 nodal point  x-disp     y-disp      z-disp      x-vel       y-vel       z-vel      x-accl      y-accl      z-accl      x-coor      y-coor      z-coor
    22626  3.93537E-01 2.54912E-01-2.53484E+01 2.45418E-01 9.65464E-02-1.17314E+00 6.65789E-02-6.41313E-02 7.71008E-01 4.83577E+01-2.17749E+01-1.80099E+01



 n o d a l   p r i n t   o u t   f o r   t i m e  s t e p   18002                              ( at time 8.9995993E+00 )

 nodal point  x-rot      y-rot       z-rot       x-rot vel   y-rot vel   z-rot vel   x-rot acc   y-rot acc   z-rot acc
    22626  1.35502E-02 2.01953E-02-4.58361E-03 9.28506E-03 9.49860E-03-2.84850E-03 3.91486E-03 9.14325E-04-6.05242E-04



 n o d a l   p r i n t   o u t   f o r   t i m e  s t e p   18202                              ( at time 9.0995893E+00 )

 nodal point  x-disp     y-disp      z-disp      x-vel       y-vel       z-vel      x-accl      y-accl      z-accl      x-coor      y-coor      z-coor
    22626  4.18442E-01 2.64213E-01-2.54618E+01 2.53028E-01 9.05373E-02-1.09511E+00 7.61069E-02-6.00966E-02 7.80404E-01 4.83826E+01-2.17656E+01-1.81233E+01



 n o d a l   p r i n t   o u t   f o r   t i m e  s t e p   18202                              ( at time 9.0995893E+00 )

 nodal point  x-rot      y-rot       z-rot       x-rot vel   y-rot vel   z-rot vel   x-rot acc   y-rot acc   z-rot acc
    22626  1.44988E-02 2.11493E-02-4.87015E-03 9.69104E-03 9.57475E-03-2.89712E-03 4.06019E-03 7.61582E-04-4.86225E-04



 n o d a l   p r i n t   o u t   f o r   t i m e  s t e p   18402                              ( at time 9.1995793E+00 )

 nodal point  x-disp     y-disp      z-disp      x-vel       y-vel       z-vel      x-accl      y-accl      z-accl      x-coor      y-coor      z-coor
    22626  4.44107E-01 2.73021E-01-2.55675E+01 2.59378E-01 8.57048E-02-1.02053E+00 6.35083E-02-4.83304E-02 7.45864E-01 4.84083E+01-2.17568E+01-1.82290E+01



 n o d a l   p r i n t   o u t   f o r   t i m e  s t e p   18402                              ( at time 9.1995793E+00 )

 nodal point  x-rot      y-rot       z-rot       x-rot vel   y-rot vel   z-rot vel   x-rot acc   y-rot acc   z-rot acc
    22626  1.54890E-02 2.21120E-02-5.16189E-03 1.00931E-02 9.68615E-03-2.94397E-03 4.02055E-03 1.11410E-03-4.68619E-04



 n o d a l   p r i n t   o u t   f o r   t i m e  s t e p   18602                              ( at time 9.2995693E+00 )

 nodal point  x-disp     y-disp      z-disp      x-vel       y-vel       z-vel      x-accl      y-accl      z-accl      x-coor      y-coor      z-coor
    22626  4.70380E-01 2.81277E-01-2.56659E+01 2.66346E-01 7.84362E-02-9.46754E-01 6.96813E-02-7.26934E-02 7.37799E-01 4.84346E+01-2.17485E+01-1.83274E+01



 n o d a l   p r i n t   o u t   f o r   t i m e  s t e p   18602                              ( at time 9.2995693E+00 )

 nodal point  x-rot      y-rot       z-rot       x-rot vel   y-rot vel   z-rot vel   x-rot acc   y-rot acc   z-rot acc
    22626  1.65161E-02 2.30848E-02-5.45838E-03 1.04467E-02 9.78223E-03-2.95656E-03 3.53712E-03 9.60924E-04-1.25874E-04



 n o d a l   p r i n t   o u t   f o r   t i m e  s t e p   18802                              ( at time 9.3995593E+00 )

 nodal point  x-disp     y-disp      z-disp      x-vel       y-vel       z-vel      x-accl      y-accl      z-accl      x-coor      y-coor      z-coor
    22626  4.97279E-01 2.88959E-01-2.57569E+01 2.72018E-01 7.61508E-02-8.74559E-01 5.67258E-02-2.28556E-02 7.22026E-01 4.84615E+01-2.17408E+01-1.84184E+01



 n o d a l   p r i n t   o u t   f o r   t i m e  s t e p   18802                              ( at time 9.3995593E+00 )

 nodal point  x-rot      y-rot       z-rot       x-rot vel   y-rot vel   z-rot vel   x-rot acc   y-rot acc   z-rot acc
    22626  1.75839E-02 2.40664E-02-5.75896E-03 1.09043E-02 9.85372E-03-3.02720E-03 4.57663E-03 7.14983E-04-7.06496E-04



 n o d a l   p r i n t   o u t   f o r   t i m e  s t e p   19002                              ( at time 9.4995493E+00 )

 nodal point  x-disp     y-disp      z-disp      x-vel       y-vel       z-vel      x-accl      y-accl      z-accl      x-coor      y-coor      z-coor
    22626  5.24928E-01 2.96425E-01-2.58407E+01 2.79740E-01 7.18274E-02-8.02117E-01 7.72286E-02-4.32390E-02 7.24494E-01 4.84891E+01-2.17334E+01-1.85022E+01



 n o d a l   p r i n t   o u t   f o r   t i m e  s t e p   19002                              ( at time 9.4995493E+00 )

 nodal point  x-rot      y-rot       z-rot       x-rot vel   y-rot vel   z-rot vel   x-rot acc   y-rot acc   z-rot acc
    22626  1.86922E-02 2.50550E-02-6.06492E-03 1.12611E-02 9.94064E-03-3.09853E-03 3.56792E-03 8.69301E-04-7.13372E-04



 n o d a l   p r i n t   o u t   f o r   t i m e  s t e p   19202                              ( at time 9.5995393E+00 )

 nodal point  x-disp     y-disp      z-disp      x-vel       y-vel       z-vel      x-accl      y-accl      z-accl      x-coor      y-coor      z-coor
    22626  5.53277E-01 3.03244E-01-2.59174E+01 2.87009E-01 6.63541E-02-7.33477E-01 7.27014E-02-5.47373E-02 6.86463E-01 4.85175E+01-2.17265E+01-1.85789E+01



 n o d a l   p r i n t   o u t   f o r   t i m e  s t e p   19202                              ( at time 9.5995393E+00 )

 nodal point  x-rot      y-rot       z-rot       x-rot vel   y-rot vel   z-rot vel   x-rot acc   y-rot acc   z-rot acc
    22626  1.98382E-02 2.60509E-02-6.37439E-03 1.16553E-02 9.99311E-03-3.11308E-03 3.94267E-03 5.24718E-04-1.45502E-04



 n o d a l   p r i n t   o u t   f o r   t i m e  s t e p   19402                              ( at time 9.6995293E+00 )

 nodal point  x-disp     y-disp      z-disp      x-vel       y-vel       z-vel      x-accl      y-accl      z-accl      x-coor      y-coor      z-coor
    22626  5.82233E-01 3.09883E-01-2.59872E+01 2.92972E-01 6.56062E-02-6.61595E-01 5.96321E-02-7.48010E-03 7.18889E-01 4.85464E+01-2.17199E+01-1.86487E+01



 n o d a l   p r i n t   o u t   f o r   t i m e  s t e p   19402                              ( at time 9.6995293E+00 )

 nodal point  x-rot      y-rot       z-rot       x-rot vel   y-rot vel   z-rot vel   x-rot acc   y-rot acc   z-rot acc
    22626  2.10244E-02 2.70553E-02-6.68976E-03 1.20730E-02 1.00876E-02-3.17872E-03 4.17698E-03 9.44624E-04-6.56400E-04



 n o d a l   p r i n t   o u t   f o r   t i m e  s t e p   19602                              ( at time 9.7995193E+00 )

 nodal point  x-disp     y-disp      z-disp      x-vel       y-vel       z-vel      x-accl      y-accl      z-accl      x-coor      y-coor      z-coor
    22626  6.11935E-01 3.16290E-01-2.60501E+01 3.01787E-01 6.18823E-02-5.95119E-01 8.81567E-02-3.72431E-02 6.64826E-01 4.85761E+01-2.17135E+01-1.87116E+01



 n o d a l   p r i n t   o u t   f o r   t i m e  s t e p   19602                              ( at time 9.7995193E+00 )

 nodal point  x-rot      y-rot       z-rot       x-rot vel   y-rot vel   z-rot vel   x-rot acc   y-rot acc   z-rot acc
    22626  2.22519E-02 2.80648E-02-7.00998E-03 1.24457E-02 1.01154E-02-3.18458E-03 3.72733E-03 2.78084E-04-5.86723E-05



 n o d a l   p r i n t   o u t   f o r   t i m e  s t e p   19802                              ( at time 9.8995093E+00 )

 nodal point  x-disp     y-disp      z-disp      x-vel       y-vel       z-vel      x-accl      y-accl      z-accl      x-coor      y-coor      z-coor
    22626  6.42400E-01 3.22529E-01-2.61062E+01 3.07245E-01 6.09582E-02-5.30867E-01 5.45906E-02-9.24111E-03 6.42592E-01 4.86066E+01-2.17073E+01-1.87677E+01



 n o d a l   p r i n t   o u t   f o r   t i m e  s t e p   19802                              ( at time 9.8995093E+00 )

 nodal point  x-rot      y-rot       z-rot       x-rot vel   y-rot vel   z-rot vel   x-rot acc   y-rot acc   z-rot acc
    22626  2.35155E-02 2.90796E-02-7.33413E-03 1.28550E-02 1.01774E-02-3.26369E-03 4.09321E-03 6.20445E-04-7.91162E-04



 n o d a l   p r i n t   o u t   f o r   t i m e  s t e p   20003                              ( at time 9.9999992E+00 )

 nodal point  x-disp     y-disp      z-disp      x-vel       y-vel       z-vel      x-accl      y-accl      z-accl      x-coor      y-coor      z-coor
[...]
    22626  2.54108E-01 1.51840E-01-7.09844E-02 1.78618E-02 7.88499E-03-6.10526E-03-1.56346E-04 6.72942E-05 3.56338E-04



 n o d a l   p r i n t   o u t   f o r   t i m e  s t e p   45205                              ( at time 2.2599738E+01 )

 nodal point  x-disp     y-disp      z-disp      x-vel       y-vel       z-vel      x-accl      y-accl      z-accl      x-coor      y-coor      z-coor
    22626  4.72475E+00 7.14606E-01-2.06101E+01 2.85044E-01-8.35272E-02 4.51662E-01 1.62518E-02-9.30819E-03-6.93087E-03 5.26889E+01-2.13152E+01-1.32716E+01



 n o d a l   p r i n t   o u t   f o r   t i m e  s t e p   45205                              ( at time 2.2599738E+01 )

 nodal point  x-rot      y-rot       z-rot       x-rot vel   y-rot vel   z-rot vel   x-rot acc   y-rot acc   z-rot acc
    22626  2.55894E-01 1.52628E-01-7.15935E-02 1.78566E-02 7.88768E-03-6.07408E-03-5.23451E-05 2.68991E-05 3.11901E-04



 n o d a l   p r i n t   o u t   f o r   t i m e  s t e p   45405                              ( at time 2.2699728E+01 )

 nodal point  x-disp     y-disp      z-disp      x-vel       y-vel       z-vel      x-accl      y-accl      z-accl      x-coor      y-coor      z-coor
    22626  4.75327E+00 7.06148E-01-2.05650E+01 2.85853E-01-8.56130E-02 4.51070E-01 8.08954E-03-2.08598E-02-5.91761E-03 5.27174E+01-2.13236E+01-1.32265E+01



 n o d a l   p r i n t   o u t   f o r   t i m e  s t e p   45405                              ( at time 2.2699728E+01 )

 nodal point  x-rot      y-rot       z-rot       x-rot vel   y-rot vel   z-rot vel   x-rot acc   y-rot acc   z-rot acc
    22626  2.57679E-01 1.53417E-01-7.21989E-02 1.78466E-02 7.90188E-03-6.03365E-03-9.99233E-05 1.42070E-04 4.04271E-04



 n o d a l   p r i n t   o u t   f o r   t i m e  s t e p   45605                              ( at time 2.2799718E+01 )

 nodal point  x-disp     y-disp      z-disp      x-vel       y-vel       z-vel      x-accl      y-accl      z-accl      x-coor      y-coor      z-coor
    22626  4.78191E+00 6.97508E-01-2.05200E+01 2.87088E-01-8.74181E-02 4.49962E-01 1.23476E-02-1.80528E-02-1.10857E-02 5.27461E+01-2.13323E+01-1.31814E+01



 n o d a l   p r i n t   o u t   f o r   t i m e  s t e p   45605                              ( at time 2.2799718E+01 )

 nodal point  x-rot      y-rot       z-rot       x-rot vel   y-rot vel   z-rot vel   x-rot acc   y-rot acc   z-rot acc
    22626  2.59463E-01 1.54208E-01-7.28009E-02 1.78396E-02 7.91120E-03-6.00144E-03-7.00232E-05 9.31780E-05 3.22104E-04



 n o d a l   p r i n t   o u t   f o r   t i m e  s t e p   45805                              ( at time 2.2899708E+01 )

 nodal point  x-disp     y-disp      z-disp      x-vel       y-vel       z-vel      x-accl      y-accl      z-accl      x-coor      y-coor      z-coor
    22626  4.81071E+00 6.88660E-01-2.04750E+01 2.88632E-01-8.95951E-02 4.49361E-01 1.54417E-02-2.17728E-02-6.00881E-03 5.27749E+01-2.13411E+01-1.31365E+01



 n o d a l   p r i n t   o u t   f o r   t i m e  s t e p   45805                              ( at time 2.2899708E+01 )

 nodal point  x-rot      y-rot       z-rot       x-rot vel   y-rot vel   z-rot vel   x-rot acc   y-rot acc   z-rot acc
    22626  2.61247E-01 1.54999E-01-7.33994E-02 1.78512E-02 7.90701E-03-5.97033E-03 1.15366E-04-4.18583E-05 3.11157E-04



 n o d a l   p r i n t   o u t   f o r   t i m e  s t e p   46005                              ( at time 2.2999698E+01 )

 nodal point  x-disp     y-disp      z-disp      x-vel       y-vel       z-vel      x-accl      y-accl      z-accl      x-coor      y-coor      z-coor
    22626  4.83964E+00 6.79607E-01-2.04301E+01 2.89741E-01-9.11344E-02 4.48472E-01 1.11003E-02-1.53948E-02-8.89025E-03 5.28038E+01-2.13502E+01-1.30916E+01



 n o d a l   p r i n t   o u t   f o r   t i m e  s t e p   46005                              ( at time 2.2999698E+01 )

 nodal point  x-rot      y-rot       z-rot       x-rot vel   y-rot vel   z-rot vel   x-rot acc   y-rot acc   z-rot acc
    22626  2.63032E-01 1.55790E-01-7.39942E-02 1.78474E-02 7.92445E-03-5.93064E-03-3.74240E-05 1.74360E-04 3.96980E-04



 n o d a l   p r i n t   o u t   f o r   t i m e  s t e p   46205                              ( at time 2.3099688E+01 )

 nodal point  x-disp     y-disp      z-disp      x-vel       y-vel       z-vel      x-accl      y-accl      z-accl      x-coor      y-coor      z-coor
    22626  4.86868E+00 6.70404E-01-2.03853E+01 2.91085E-01-9.30373E-02 4.47001E-01 1.34391E-02-1.90307E-02-1.47168E-02 5.28329E+01-2.13594E+01-1.30468E+01



 n o d a l   p r i n t   o u t   f o r   t i m e  s t e p   46205                              ( at time 2.3099688E+01 )

 nodal point  x-rot      y-rot       z-rot       x-rot vel   y-rot vel   z-rot vel   x-rot acc   y-rot acc   z-rot acc
    22626  2.64817E-01 1.56583E-01-7.45854E-02 1.78565E-02 7.92452E-03-5.89333E-03 9.08699E-05 7.07883E-07 3.73148E-04



 n o d a l   p r i n t   o u t   f o r   t i m e  s t e p   46405                              ( at time 2.3199678E+01 )

 nodal point  x-disp     y-disp      z-disp      x-vel       y-vel       z-vel      x-accl      y-accl      z-accl      x-coor      y-coor      z-coor
    22626  4.89786E+00 6.61006E-01-2.03407E+01 2.92599E-01-9.47489E-02 4.46412E-01 1.51392E-02-1.71176E-02-5.88411E-03 5.28620E+01-2.13688E+01-1.30022E+01



 n o d a l   p r i n t   o u t   f o r   t i m e  s t e p   46405                              ( at time 2.3199678E+01 )

 nodal point  x-rot      y-rot       z-rot       x-rot vel   y-rot vel   z-rot vel   x-rot acc   y-rot acc   z-rot acc
    22626  2.66602E-01 1.57375E-01-7.51728E-02 1.78650E-02 7.93231E-03-5.85704E-03 8.52611E-05 7.78843E-05 3.62918E-04



 n o d a l   p r i n t   o u t   f o r   t i m e  s t e p   46605                              ( at time 2.3299668E+01 )

 nodal point  x-disp     y-disp      z-disp      x-vel       y-vel       z-vel      x-accl      y-accl      z-accl      x-coor      y-coor      z-coor
    22626  4.92716E+00 6.51450E-01-2.02961E+01 2.93462E-01-9.65580E-02 4.45234E-01 8.63230E-03-1.80934E-02-1.17863E-02 5.28913E+01-2.13783E+01-1.29576E+01



 n o d a l   p r i n t   o u t   f o r   t i m e  s t e p   46605                              ( at time 2.3299668E+01 )

 nodal point  x-rot      y-rot       z-rot       x-rot vel   y-rot vel   z-rot vel   x-rot acc   y-rot acc   z-rot acc
    22626  2.68389E-01 1.58169E-01-7.57569E-02 1.78735E-02 7.93361E-03-5.82126E-03 8.48901E-05 1.30958E-05 3.57816E-04



 n o d a l   p r i n t   o u t   f o r   t i m e  s t e p   46805                              ( at time 2.3399658E+01 )

 nodal point  x-disp     y-disp      z-disp      x-vel       y-vel       z-vel      x-accl      y-accl      z-accl      x-coor      y-coor      z-coor
    22626  4.95657E+00 6.41743E-01-2.02516E+01 2.94613E-01-9.78825E-02 4.43652E-01 1.15059E-02-1.32457E-02-1.58235E-02 5.29207E+01-2.13880E+01-1.29131E+01



 n o d a l   p r i n t   o u t   f o r   t i m e  s t e p   46805                              ( at time 2.3399658E+01 )

 nodal point  x-rot      y-rot       z-rot       x-rot vel   y-rot vel   z-rot vel   x-rot acc   y-rot acc   z-rot acc
    22626  2.70177E-01 1.58962E-01-7.63373E-02 1.78810E-02 7.93989E-03-5.78595E-03 7.52764E-05 6.27210E-05 3.53185E-04



 n o d a l   p r i n t   o u t   f o r   t i m e  s t e p   47005                              ( at time 2.3499648E+01 )

 nodal point  x-disp     y-disp      z-disp      x-vel       y-vel       z-vel      x-accl      y-accl      z-accl      x-coor      y-coor      z-coor
    22626  4.98609E+00 6.31864E-01-2.02074E+01 2.96197E-01-9.95052E-02 4.42340E-01 1.58453E-02-1.62283E-02-1.31142E-02 5.29503E+01-2.13979E+01-1.28689E+01



 n o d a l   p r i n t   o u t   f o r   t i m e  s t e p   47005                              ( at time 2.3499648E+01 )

 nodal point  x-rot      y-rot       z-rot       x-rot vel   y-rot vel   z-rot vel   x-rot acc   y-rot acc   z-rot acc
    22626  2.71966E-01 1.59756E-01-7.69139E-02 1.79006E-02 7.94114E-03-5.75069E-03 1.95633E-04 1.24902E-05 3.52626E-04



 n o d a l   p r i n t   o u t   f o r   t i m e  s t e p   47205                              ( at time 2.3599638E+01 )

 nodal point  x-disp     y-disp      z-disp      x-vel       y-vel       z-vel      x-accl      y-accl      z-accl      x-coor      y-coor      z-coor
    22626  5.01574E+00 6.21877E-01-2.01632E+01 2.96903E-01-1.00361E-01 4.41179E-01 7.06483E-03-8.55637E-03-1.16153E-02 5.29799E+01-2.14079E+01-1.28247E+01



 n o d a l   p r i n t   o u t   f o r   t i m e  s t e p   47205                              ( at time 2.3599638E+01 )

 nodal point  x-rot      y-rot       z-rot       x-rot vel   y-rot vel   z-rot vel   x-rot acc   y-rot acc   z-rot acc
    22626  2.73757E-01 1.60550E-01-7.74876E-02 1.79203E-02 7.94071E-03-5.72318E-03 1.96661E-04-4.23799E-06 2.75115E-04



 n o d a l   p r i n t   o u t   f o r   t i m e  s t e p   47405                              ( at time 2.3699628E+01 )

 nodal point  x-disp     y-disp      z-disp      x-vel       y-vel       z-vel      x-accl      y-accl      z-accl      x-coor      y-coor      z-coor
    22626  5.04547E+00 6.11807E-01-2.01191E+01 2.97694E-01-1.01005E-01 4.39673E-01 7.90698E-03-6.44780E-03-1.50641E-02 5.30096E+01-2.14180E+01-1.27806E+01



 n o d a l   p r i n t   o u t   f o r   t i m e  s t e p   47405                              ( at time 2.3699628E+01 )

 nodal point  x-rot      y-rot       z-rot       x-rot vel   y-rot vel   z-rot vel   x-rot acc   y-rot acc   z-rot acc
    22626  2.75549E-01 1.61345E-01-7.80578E-02 1.79248E-02 7.94594E-03-5.68242E-03 4.49870E-05 5.22613E-05 4.07593E-04



 n o d a l   p r i n t   o u t   f o r   t i m e  s t e p   47605                              ( at time 2.3799618E+01 )

 nodal point  x-disp     y-disp      z-disp      x-vel       y-vel       z-vel      x-accl      y-accl      z-accl      x-coor      y-coor      z-coor
    22626  5.07528E+00 6.01657E-01-2.00753E+01 2.98619E-01-1.02079E-01 4.37663E-01 9.25226E-03-1.07388E-02-2.00952E-02 5.30395E+01-2.14281E+01-1.27368E+01



 n o d a l   p r i n t   o u t   f o r   t i m e  s t e p   47605                              ( at time 2.3799618E+01 )

 nodal point  x-rot      y-rot       z-rot       x-rot vel   y-rot vel   z-rot vel   x-rot acc   y-rot acc   z-rot acc
    22626  2.77342E-01 1.62139E-01-7.86247E-02 1.79496E-02 7.94832E-03-5.65219E-03 2.48076E-04 2.38631E-05 3.02364E-04



 n o d a l   p r i n t   o u t   f o r   t i m e  s t e p   47805                              ( at time 2.3899608E+01 )

 nodal point  x-disp     y-disp      z-disp      x-vel       y-vel       z-vel      x-accl      y-accl      z-accl      x-coor      y-coor      z-coor
    22626  5.10519E+00 5.91448E-01-2.00316E+01 2.99375E-01-1.02085E-01 4.36449E-01 7.55647E-03-5.57354E-05-1.21447E-02 5.30694E+01-2.14383E+01-1.26931E+01



 n o d a l   p r i n t   o u t   f o r   t i m e  s t e p   47805                              ( at time 2.3899608E+01 )

 nodal point  x-rot      y-rot       z-rot       x-rot vel   y-rot vel   z-rot vel   x-rot acc   y-rot acc   z-rot acc
    22626  2.79138E-01 1.62934E-01-7.91891E-02 1.79779E-02 7.94343E-03-5.62788E-03 2.83204E-04-4.89734E-05 2.43167E-04



 n o d a l   p r i n t   o u t   f o r   t i m e  s t e p   48005                              ( at time 2.3999598E+01 )

 nodal point  x-disp     y-disp      z-disp      x-vel       y-vel       z-vel      x-accl      y-accl      z-accl      x-coor      y-coor      z-coor
    22626  5.13515E+00 5.81240E-01-1.99880E+01 2.99882E-01-1.02030E-01 4.34251E-01 5.07053E-03 5.46486E-04-2.19873E-02 5.30993E+01-2.14485E+01-1.26495E+01



 n o d a l   p r i n t   o u t   f o r   t i m e  s t e p   48005                              ( at time 2.3999598E+01 )

 nodal point  x-rot      y-rot       z-rot       x-rot vel   y-rot vel   z-rot vel   x-rot acc   y-rot acc   z-rot acc
    22626  2.80937E-01 1.63727E-01-7.97504E-02 1.79972E-02 7.93488E-03-5.59884E-03 1.93438E-04-8.54304E-05 2.90349E-04



 n o d a l   p r i n t   o u t   f o r   t i m e  s t e p   48205                              ( at time 2.4099588E+01 )

 nodal point  x-disp     y-disp      z-disp      x-vel       y-vel       z-vel      x-accl      y-accl      z-accl      x-coor      y-coor      z-coor
    22626  5.16516E+00 5.71033E-01-1.99448E+01 3.00174E-01-1.02070E-01 4.32034E-01 2.92388E-03-4.01623E-04-2.21693E-02 5.31293E+01-2.14588E+01-1.26063E+01



 n o d a l   p r i n t   o u t   f o r   t i m e  s t e p   48205                              ( at time 2.4099588E+01 )

 nodal point  x-rot      y-rot       z-rot       x-rot vel   y-rot vel   z-rot vel   x-rot acc   y-rot acc   z-rot acc
    22626  2.82737E-01 1.64521E-01-8.03087E-02 1.80143E-02 7.92857E-03-5.57297E-03 1.70690E-04-6.31122E-05 2.58726E-04



 n o d a l   p r i n t   o u t   f o r   t i m e  s t e p   48405                              ( at time 2.4199578E+01 )

 nodal point  x-disp     y-disp      z-disp      x-vel       y-vel       z-vel      x-accl      y-accl      z-accl      x-coor      y-coor      z-coor
    22626  5.19521E+00 5.60852E-01-1.99016E+01 3.00656E-01-1.01490E-01 4.30188E-01 4.82344E-03 5.79950E-03-1.84649E-02 5.31594E+01-2.14689E+01-1.25631E+01



 n o d a l   p r i n t   o u t   f o r   t i m e  s t e p   48405                              ( at time 2.4199578E+01 )

 nodal point  x-rot      y-rot       z-rot       x-rot vel   y-rot vel   z-rot vel   x-rot acc   y-rot acc   z-rot acc
    22626  2.84540E-01 1.65313E-01-8.08647E-02 1.80471E-02 7.92671E-03-5.55185E-03 3.28458E-04-1.86285E-05 2.11229E-04



 n o d a l   p r i n t   o u t   f o r   t i m e  s t e p   48605                              ( at time 2.4299568E+01 )

 nodal point  x-disp     y-disp      z-disp      x-vel       y-vel       z-vel      x-accl      y-accl      z-accl      x-coor      y-coor      z-coor
    22626  5.22527E+00 5.50759E-01-1.98587E+01 3.00534E-01-1.00716E-01 4.28281E-01-1.22022E-03 7.74671E-03-1.90702E-02 5.31894E+01-2.14790E+01-1.25202E+01



 n o d a l   p r i n t   o u t   f o r   t i m e  s t e p   48605                              ( at time 2.4299568E+01 )

 nodal point  x-rot      y-rot       z-rot       x-rot vel   y-rot vel   z-rot vel   x-rot acc   y-rot acc   z-rot acc
    22626  2.86346E-01 1.66106E-01-8.14185E-02 1.80712E-02 7.91887E-03-5.52066E-03 2.40340E-04-7.84059E-05 3.11961E-04



 n o d a l   p r i n t   o u t   f o r   t i m e  s t e p   48805                              ( at time 2.4399558E+01 )

 nodal point  x-disp     y-disp      z-disp      x-vel       y-vel       z-vel      x-accl      y-accl      z-accl      x-coor      y-coor      z-coor
    22626  5.25534E+00 5.40717E-01-1.98160E+01 3.01012E-01-9.99852E-02 4.25771E-01 4.77387E-03 7.30723E-03-2.50967E-02 5.32195E+01-2.14891E+01-1.24775E+01



 n o d a l   p r i n t   o u t   f o r   t i m e  s t e p   48805                              ( at time 2.4399558E+01 )

 nodal point  x-rot      y-rot       z-rot       x-rot vel   y-rot vel   z-rot vel   x-rot acc   y-rot acc   z-rot acc
    22626  2.88154E-01 1.66896E-01-8.19693E-02 1.80901E-02 7.90895E-03-5.49889E-03 1.89076E-04-9.92322E-05 2.17675E-04



 n o d a l   p r i n t   o u t   f o r   t i m e  s t e p   49006                              ( at time 2.4500048E+01 )

 nodal point  x-disp     y-disp      z-disp      x-vel       y-vel       z-vel      x-accl      y-accl      z-accl      x-coor      y-coor      z-coor
    22626  5.28557E+00 5.30750E-01-1.97733E+01 3.00927E-01-9.83148E-02 4.23850E-01-8.40194E-04 1.66226E-02-1.91151E-02 5.32498E+01-2.14990E+01-1.24348E+01



 n o d a l   p r i n t   o u t   f o r   t i m e  s t e p   49006                              ( at time 2.4500048E+01 )

 nodal point  x-rot      y-rot       z-rot       x-rot vel   y-rot vel   z-rot vel   x-rot acc   y-rot acc   z-rot acc
    22626  2.89973E-01 1.67691E-01-8.25213E-02 1.81195E-02 7.90163E-03-5.48374E-03 2.93182E-04-7.28274E-05 1.50780E-04



 n o d a l   p r i n t   o u t   f o r   t i m e  s t e p   49206                              ( at time 2.4600038E+01 )

 nodal point  x-disp     y-disp      z-disp      x-vel       y-vel       z-vel      x-accl      y-accl      z-accl      x-coor      y-coor      z-coor
    22626  5.31565E+00 5.20984E-01-1.97310E+01 3.00619E-01-9.69232E-02 4.21880E-01-3.08810E-03 1.39168E-02-1.97059E-02 5.32798E+01-2.15088E+01-1.23925E+01



 n o d a l   p r i n t   o u t   f o r   t i m e  s t e p   49206                              ( at time 2.4600038E+01 )

 nodal point  x-rot      y-rot       z-rot       x-rot vel   y-rot vel   z-rot vel   x-rot acc   y-rot acc   z-rot acc
    22626  2.91786E-01 1.68481E-01-8.30682E-02 1.81412E-02 7.89274E-03-5.45757E-03 2.17186E-04-8.89588E-05 2.61786E-04



 n o d a l   p r i n t   o u t   f o r   t i m e  s t e p   49406                              ( at time 2.4700028E+01 )

 nodal point  x-disp     y-disp      z-disp      x-vel       y-vel       z-vel      x-accl      y-accl      z-accl      x-coor      y-coor      z-coor
    22626  5.34569E+00 5.11383E-01-1.96890E+01 3.00367E-01-9.50558E-02 4.19381E-01-2.51947E-03 1.86760E-02-2.49935E-02 5.33099E+01-2.15184E+01-1.23505E+01



 n o d a l   p r i n t   o u t   f o r   t i m e  s t e p   49406                              ( at time 2.4700028E+01 )

 nodal point  x-rot      y-rot       z-rot       x-rot vel   y-rot vel   z-rot vel   x-rot acc   y-rot acc   z-rot acc
    22626  2.93601E-01 1.69269E-01-8.36129E-02 1.81523E-02 7.88153E-03-5.43813E-03 1.11007E-04-1.12060E-04 1.94421E-04



 n o d a l   p r i n t   o u t   f o r   t i m e  s t e p   49606                              ( at time 2.4800018E+01 )

 nodal point  x-disp     y-disp      z-disp      x-vel       y-vel       z-vel      x-accl      y-accl      z-accl      x-coor      y-coor      z-coor
    22626  5.37571E+00 5.01973E-01-1.96472E+01 2.99933E-01-9.32106E-02 4.17154E-01-4.33336E-03 1.84539E-02-2.22712E-02 5.33399E+01-2.15278E+01-1.23087E+01



 n o d a l   p r i n t   o u t   f o r   t i m e  s t e p   49606                              ( at time 2.4800018E+01 )

 nodal point  x-rot      y-rot       z-rot       x-rot vel   y-rot vel   z-rot vel   x-rot acc   y-rot acc   z-rot acc
    22626  2.95417E-01 1.70057E-01-8.41557E-02 1.81780E-02 7.87586E-03-5.42131E-03 2.56659E-04-5.66948E-05 1.68128E-04



 n o d a l   p r i n t   o u t   f o r   t i m e  s t e p   49806                              ( at time 2.4900008E+01 )

 nodal point  x-disp     y-disp      z-disp      x-vel       y-vel       z-vel      x-accl      y-accl      z-accl      x-coor      y-coor      z-coor
    22626  5.40568E+00 4.92770E-01-1.96056E+01 2.99374E-01-9.09210E-02 4.14886E-01-5.59094E-03 2.28988E-02-2.26874E-02 5.33699E+01-2.15370E+01-1.22671E+01



 n o d a l   p r i n t   o u t   f o r   t i m e  s t e p   49806                              ( at time 2.4900008E+01 )

 nodal point  x-rot      y-rot       z-rot       x-rot vel   y-rot vel   z-rot vel   x-rot acc   y-rot acc   z-rot acc
    22626  2.97236E-01 1.70844E-01-8.46969E-02 1.82085E-02 7.86532E-03-5.40247E-03 3.04632E-04-1.05400E-04 1.88511E-04



 n o d a l   p r i n t   o u t   f o r   t i m e  s t e p   50006                              ( at time 2.4999998E+01 )

 nodal point  x-disp     y-disp      z-disp      x-vel       y-vel       z-vel      x-accl      y-accl      z-accl      x-coor      y-coor      z-coor
    22626  5.43557E+00 4.83773E-01-1.95642E+01 2.98528E-01-8.90308E-02 4.12644E-01-8.46583E-03 1.89036E-02-2.24206E-02 5.33998E+01-2.15460E+01-1.22257E+01



 n o d a l   p r i n t   o u t   f o r   t i m e  s t e p   50006                              ( at time 2.4999998E+01 )

 nodal point  x-rot      y-rot       z-rot       x-rot vel   y-rot vel   z-rot vel   x-rot acc   y-rot acc   z-rot acc
    22626  2.99057E-01 1.71630E-01-8.52360E-02 1.82217E-02 7.84781E-03-5.38759E-03 1.32446E-04-1.75161E-04 1.48816E-04
