 LSTC 50th% Full_FE H-III Dummy (Beta Version, February 17, 2019)        
                    ls-dyna smp s R16 R16.0_619_d222963 date 03/18/2025

{BEGIN LEGEND}
 Entity #        Title
    22626                                                                                     
{END LEGEND}




 n o d a l   p r i n t   o u t   f o r   t i m e  s t e p       1                              ( at time 0.0000000E+00 )

 nodal point  x-disp     y-disp      z-disp      x-vel       y-vel       z-vel      x-accl      y-accl      z-accl      x-coor      y-coor      z-coor
    22626  0.00000E+00 0.00000E+00 0.00000E+00 0.00000E+00 0.00000E+00-3.12000E+00 0.00000E+00 0.00000E+00 0.00000E+00 4.79642E+01-2.20298E+01 7.33850E+00



 n o d a l   p r i n t   o u t   f o r   t i m e  s t e p       1                              ( at time 0.0000000E+00 )

 nodal point  x-rot      y-rot       z-rot       x-rot vel   y-rot vel   z-rot vel   x-rot acc   y-rot acc   z-rot acc
    22626  0.00000E+00 0.00000E+00 0.00000E+00 0.00000E+00 0.00000E+00 0.00000E+00 0.00000E+00 0.00000E+00 0.00000E+00



 n o d a l   p r i n t   o u t   f o r   t i m e  s t e p     201                              ( at time 9.9989993E-02 )

 nodal point  x-disp     y-disp      z-disp      x-vel       y-vel       z-vel      x-accl      y-accl      z-accl      x-coor      y-coor      z-coor
    22626  8.33923E-07-4.04121E-06-3.12016E-01 4.77082E-05-4.96322E-04-3.12074E+00 4.77129E-04-4.96372E-03-7.42748E-03 4.79642E+01-2.20298E+01 7.02648E+00



 n o d a l   p r i n t   o u t   f o r   t i m e  s t e p     201                              ( at time 9.9989993E-02 )

 nodal point  x-rot      y-rot       z-rot       x-rot vel   y-rot vel   z-rot vel   x-rot acc   y-rot acc   z-rot acc
    22626  9.61200E-09 3.04101E-08 5.26899E-08 1.30653E-06 2.72347E-06 5.21488E-06 1.30667E-05 2.72374E-05 5.21540E-05



 n o d a l   p r i n t   o u t   f o r   t i m e  s t e p     401                              ( at time 1.9997999E-01 )

 nodal point  x-disp     y-disp      z-disp      x-vel       y-vel       z-vel      x-accl      y-accl      z-accl      x-coor      y-coor      z-coor
    22626 -5.12701E-05-5.21505E-04-6.23853E-01-1.09541E-03-1.11121E-02-3.11558E+00-1.14324E-02-1.06169E-01 5.16276E-02 4.79641E+01-2.20303E+01 6.71465E+00



 n o d a l   p r i n t   o u t   f o r   t i m e  s t e p     401                              ( at time 1.9997999E-01 )

 nodal point  x-rot      y-rot       z-rot       x-rot vel   y-rot vel   z-rot vel   x-rot acc   y-rot acc   z-rot acc
    22626  4.60335E-07 1.33050E-06 2.50331E-06 2.61944E-06 1.90882E-05 3.49997E-05 1.31304E-05 1.63664E-04 2.97878E-04



 n o d a l   p r i n t   o u t   f o r   t i m e  s t e p     601                              ( at time 2.9996998E-01 )

 nodal point  x-disp     y-disp      z-disp      x-vel       y-vel       z-vel      x-accl      y-accl      z-accl      x-coor      y-coor      z-coor
    22626 -2.45345E-05-1.97553E-03-9.35239E-01 1.66367E-03-1.60321E-02-3.11415E+00 2.75936E-02-4.92048E-02 1.42803E-02 4.79642E+01-2.20318E+01 6.40326E+00



 n o d a l   p r i n t   o u t   f o r   t i m e  s t e p     601                              ( at time 2.9996998E-01 )

 nodal point  x-rot      y-rot       z-rot       x-rot vel   y-rot vel   z-rot vel   x-rot acc   y-rot acc   z-rot acc
    22626  6.74455E-07 2.41691E-06 4.83714E-06 8.20222E-06 5.45697E-06 1.49853E-05 5.58334E-05-1.36326E-04-2.00165E-04



 n o d a l   p r i n t   o u t   f o r   t i m e  s t e p     801                              ( at time 3.9995997E-01 )

 nodal point  x-disp     y-disp      z-disp      x-vel       y-vel       z-vel      x-accl      y-accl      z-accl      x-coor      y-coor      z-coor
    22626  5.94590E-05-3.57156E-03-1.24663E+00 1.83175E-04-1.73754E-02-3.11354E+00-1.48064E-02-1.34344E-02 6.11128E-03 4.79642E+01-2.20334E+01 6.09187E+00



 n o d a l   p r i n t   o u t   f o r   t i m e  s t e p     801                              ( at time 3.9995997E-01 )

 nodal point  x-rot      y-rot       z-rot       x-rot vel   y-rot vel   z-rot vel   x-rot acc   y-rot acc   z-rot acc
    22626  1.58293E-06 3.68887E-06 6.69776E-06 6.32633E-06 2.41888E-05 3.81634E-05-1.87608E-05 1.87337E-04 2.31804E-04



 n o d a l   p r i n t   o u t   f o r   t i m e  s t e p    1001                              ( at time 4.9994997E-01 )

 nodal point  x-disp     y-disp      z-disp      x-vel       y-vel       z-vel      x-accl      y-accl      z-accl      x-coor      y-coor      z-coor
    22626  7.16460E-05-5.62676E-03-1.55783E+00 8.79869E-04-2.38152E-02-3.11087E+00 6.96764E-03-6.44045E-02 2.66793E-02 4.79643E+01-2.20354E+01 5.78067E+00



 n o d a l   p r i n t   o u t   f o r   t i m e  s t e p    1001                              ( at time 4.9994997E-01 )

 nodal point  x-rot      y-rot       z-rot       x-rot vel   y-rot vel   z-rot vel   x-rot acc   y-rot acc   z-rot acc
    22626  1.50017E-06 6.66059E-06 1.18622E-05-4.84810E-06 4.38836E-05 7.20694E-05-1.11756E-04 1.96968E-04 3.39094E-04



 n o d a l   p r i n t   o u t   f o r   t i m e  s t e p    1201                              ( at time 5.9993996E-01 )

 nodal point  x-disp     y-disp      z-disp      x-vel       y-vel       z-vel      x-accl      y-accl      z-accl      x-coor      y-coor      z-coor
    22626  5.24367E-05-8.12794E-03-1.86888E+00-5.47632E-04-2.60627E-02-3.11087E+00-1.42764E-02-2.24764E-02 6.19950E-05 4.79642E+01-2.20379E+01 5.46962E+00



 n o d a l   p r i n t   o u t   f o r   t i m e  s t e p    1201                              ( at time 5.9993996E-01 )

 nodal point  x-rot      y-rot       z-rot       x-rot vel   y-rot vel   z-rot vel   x-rot acc   y-rot acc   z-rot acc
    22626  1.26892E-06 9.91246E-06 1.78070E-05-1.99681E-06 2.66198E-05 5.35735E-05 2.85158E-05-1.72655E-04-1.84977E-04



 n o d a l   p r i n t   o u t   f o r   t i m e  s t e p    1401                              ( at time 6.9992995E-01 )

 nodal point  x-disp     y-disp      z-disp      x-vel       y-vel       z-vel      x-accl      y-accl      z-accl      x-coor      y-coor      z-coor
    22626  1.93369E-05-1.10066E-02-2.17977E+00 6.89964E-04-3.21956E-02-3.10774E+00 1.23772E-02-6.13353E-02 3.12789E-02 4.79642E+01-2.20408E+01 5.15873E+00



 n o d a l   p r i n t   o u t   f o r   t i m e  s t e p    1401                              ( at time 6.9992995E-01 )

 nodal point  x-rot      y-rot       z-rot       x-rot vel   y-rot vel   z-rot vel   x-rot acc   y-rot acc   z-rot acc
    22626  1.12882E-06 1.31197E-05 2.28094E-05-2.07091E-06 3.76647E-05 5.90215E-05-7.41019E-07 1.10460E-04 5.44851E-05



 n o d a l   p r i n t   o u t   f o r   t i m e  s t e p    1601                              ( at time 7.9991994E-01 )

 nodal point  x-disp     y-disp      z-disp      x-vel       y-vel       z-vel      x-accl      y-accl      z-accl      x-coor      y-coor      z-coor
    22626  1.30581E-04-1.45512E-02-2.49040E+00 1.35266E-03-3.67460E-02-3.10605E+00 6.62766E-03-4.55091E-02 1.68698E-02 4.79643E+01-2.20443E+01 4.84811E+00



 n o d a l   p r i n t   o u t   f o r   t i m e  s t e p    1601                              ( at time 7.9991994E-01 )

 nodal point  x-rot      y-rot       z-rot       x-rot vel   y-rot vel   z-rot vel   x-rot acc   y-rot acc   z-rot acc
    22626  1.06603E-06 1.72660E-05 2.97875E-05 3.25927E-06 4.90968E-05 7.67299E-05 5.33071E-05 1.14333E-04 1.77102E-04



 n o d a l   p r i n t   o u t   f o r   t i m e  s t e p    1801                              ( at time 8.9990994E-01 )

 nodal point  x-disp     y-disp      z-disp      x-vel       y-vel       z-vel      x-accl      y-accl      z-accl      x-coor      y-coor      z-coor
    22626  2.03353E-04-1.81870E-02-2.80106E+00-5.14015E-04-3.63523E-02-3.10747E+00-1.86687E-02 3.93758E-03-1.41873E-02 4.79644E+01-2.20480E+01 4.53745E+00



 n o d a l   p r i n t   o u t   f o r   t i m e  s t e p    1801                              ( at time 8.9990994E-01 )

 nodal point  x-rot      y-rot       z-rot       x-rot vel   y-rot vel   z-rot vel   x-rot acc   y-rot acc   z-rot acc
    22626  1.12623E-06 2.14067E-05 3.68266E-05-1.30050E-06 3.82527E-05 6.88530E-05-4.56023E-05-1.08452E-04-7.87772E-05



 n o d a l   p r i n t   o u t   f o r   t i m e  s t e p    2001                              ( at time 9.9989993E-01 )

 nodal point  x-disp     y-disp      z-disp      x-vel       y-vel       z-vel      x-accl      y-accl      z-accl      x-coor      y-coor      z-coor
    22626  1.04119E-04-2.18894E-02-3.11178E+00-8.39157E-04-3.82597E-02-3.10767E+00-3.25174E-03-1.90755E-02-2.00530E-03 4.79643E+01-2.20517E+01 4.22672E+00



 n o d a l   p r i n t   o u t   f o r   t i m e  s t e p    2001                              ( at time 9.9989993E-01 )

 nodal point  x-rot      y-rot       z-rot       x-rot vel   y-rot vel   z-rot vel   x-rot acc   y-rot acc   z-rot acc
    22626  1.01122E-06 2.56535E-05 4.40877E-05-2.77346E-07 4.65742E-05 8.65874E-05 1.02326E-05 8.32230E-05 1.77362E-04



 n o d a l   p r i n t   o u t   f o r   t i m e  s t e p    2201                              ( at time 1.0998899E+00 )

 nodal point  x-disp     y-disp      z-disp      x-vel       y-vel       z-vel      x-accl      y-accl      z-accl      x-coor      y-coor      z-coor
    22626  8.32127E-05-2.58245E-02-3.42249E+00-2.55618E-04-4.01555E-02-3.10718E+00 5.83598E-03-1.89604E-02 4.91192E-03 4.79643E+01-2.20556E+01 3.91601E+00



 n o d a l   p r i n t   o u t   f o r   t i m e  s t e p    2201                              ( at time 1.0998899E+00 )

 nodal point  x-rot      y-rot       z-rot       x-rot vel   y-rot vel   z-rot vel   x-rot acc   y-rot acc   z-rot acc
    22626  1.14769E-06 3.04637E-05 5.27761E-05 5.85802E-06 4.65075E-05 7.52503E-05 6.13598E-05-6.66763E-07-1.13383E-04



 n o d a l   p r i n t   o u t   f o r   t i m e  s t e p    2401                              ( at time 1.1998799E+00 )

 nodal point  x-disp     y-disp      z-disp      x-vel       y-vel       z-vel      x-accl      y-accl      z-accl      x-coor      y-coor      z-coor
    22626  1.21895E-04-2.98285E-02-3.73324E+00 7.08876E-04-3.96484E-02-3.10859E+00 9.64590E-03 5.07115E-03-1.41301E-02 4.79643E+01-2.20596E+01 3.60526E+00



 n o d a l   p r i n t   o u t   f o r   t i m e  s t e p    2401                              ( at time 1.1998799E+00 )

 nodal point  x-rot      y-rot       z-rot       x-rot vel   y-rot vel   z-rot vel   x-rot acc   y-rot acc   z-rot acc
    22626  1.61093E-06 3.46361E-05 5.96734E-05 5.76812E-06 4.04163E-05 6.66019E-05-8.99116E-07-6.09178E-05-8.64934E-05



 n o d a l   p r i n t   o u t   f o r   t i m e  s t e p    2601                              ( at time 1.2998699E+00 )

 nodal point  x-disp     y-disp      z-disp      x-vel       y-vel       z-vel      x-accl      y-accl      z-accl      x-coor      y-coor      z-coor
    22626  1.31496E-04-3.36524E-02-4.04418E+00-4.47618E-04-3.64485E-02-3.11144E+00-1.15661E-02 3.20031E-02-2.85010E-02 4.79643E+01-2.20634E+01 3.29432E+00



 n o d a l   p r i n t   o u t   f o r   t i m e  s t e p    2601                              ( at time 1.2998699E+00 )

 nodal point  x-rot      y-rot       z-rot       x-rot vel   y-rot vel   z-rot vel   x-rot acc   y-rot acc   z-rot acc
    22626  1.99067E-06 3.87642E-05 6.65825E-05-1.58231E-06 4.58920E-05 8.08202E-05-7.35116E-05 5.47621E-05 1.42198E-04



 n o d a l   p r i n t   o u t   f o r   t i m e  s t e p    2801                              ( at time 1.3998599E+00 )

 nodal point  x-disp     y-disp      z-disp      x-vel       y-vel       z-vel      x-accl      y-accl      z-accl      x-coor      y-coor      z-coor
    22626  1.32962E-05-3.70311E-02-4.35550E+00-1.34208E-03-3.12696E-02-3.11524E+00-8.94549E-03 5.17940E-02-3.79171E-02 4.79642E+01-2.20668E+01 2.98300E+00



 n o d a l   p r i n t   o u t   f o r   t i m e  s t e p    2801                              ( at time 1.3998599E+00 )

 nodal point  x-rot      y-rot       z-rot       x-rot vel   y-rot vel   z-rot vel   x-rot acc   y-rot acc   z-rot acc
    22626  1.65730E-06 4.32073E-05 7.45041E-05-3.73549E-06 4.52101E-05 7.44387E-05-2.15340E-05-6.81982E-06-6.38210E-05



 n o d a l   p r i n t   o u t   f o r   t i m e  s t e p    3001                              ( at time 1.4998499E+00 )

 nodal point  x-disp     y-disp      z-disp      x-vel       y-vel       z-vel      x-accl      y-accl      z-accl      x-coor      y-coor      z-coor
    22626 -9.83111E-05-4.00579E-02-4.66710E+00-4.91310E-04-2.95905E-02-3.11725E+00 8.50852E-03 1.67924E-02-2.01675E-02 4.79641E+01-2.20698E+01 2.67140E+00



 n o d a l   p r i n t   o u t   f o r   t i m e  s t e p    3001                              ( at time 1.4998499E+00 )

 nodal point  x-rot      y-rot       z-rot       x-rot vel   y-rot vel   z-rot vel   x-rot acc   y-rot acc   z-rot acc
    22626  1.36717E-06 4.71827E-05 8.11552E-05-4.85343E-07 3.24348E-05 5.81170E-05 3.25048E-05-1.27765E-04-1.63233E-04



 n o d a l   p r i n t   o u t   f o r   t i m e  s t e p    3201                              ( at time 1.5998399E+00 )

 nodal point  x-disp     y-disp      z-disp      x-vel       y-vel       z-vel      x-accl      y-accl      z-accl      x-coor      y-coor      z-coor
    22626 -1.48854E-04-4.29342E-02-4.97888E+00-7.76906E-04-2.73755E-02-3.11953E+00-2.85625E-03 2.21522E-02-2.28046E-02 4.79640E+01-2.20727E+01 2.35962E+00



 n o d a l   p r i n t   o u t   f o r   t i m e  s t e p    3201                              ( at time 1.5998399E+00 )

 nodal point  x-rot      y-rot       z-rot       x-rot vel   y-rot vel   z-rot vel   x-rot acc   y-rot acc   z-rot acc
    22626  1.17889E-06 5.02629E-05 8.60995E-05-3.63118E-07 3.26562E-05 4.84147E-05 1.22237E-06 2.21393E-06-9.70332E-05



 n o d a l   p r i n t   o u t   f o r   t i m e  s t e p    3401                              ( at time 1.6998299E+00 )

 nodal point  x-disp     y-disp      z-disp      x-vel       y-vel       z-vel      x-accl      y-accl      z-accl      x-coor      y-coor      z-coor
    22626 -2.39533E-04-4.54354E-02-5.29099E+00-1.14399E-03-2.23168E-02-3.12334E+00-3.67124E-03 5.05921E-02-3.80888E-02 4.79639E+01-2.20752E+01 2.04751E+00



 n o d a l   p r i n t   o u t   f o r   t i m e  s t e p    3401                              ( at time 1.6998299E+00 )

 nodal point  x-rot      y-rot       z-rot       x-rot vel   y-rot vel   z-rot vel   x-rot acc   y-rot acc   z-rot acc
    22626  1.06070E-06 5.33983E-05 9.12033E-05-3.09612E-06 3.08381E-05 4.87781E-05-2.73327E-05-1.81829E-05 3.63467E-06



 n o d a l   p r i n t   o u t   f o r   t i m e  s t e p    3601                              ( at time 1.7998199E+00 )

 nodal point  x-disp     y-disp      z-disp      x-vel       y-vel       z-vel      x-accl      y-accl      z-accl      x-coor      y-coor      z-coor
    22626 -3.42344E-04-4.74117E-02-5.60350E+00-1.35425E-03-1.75706E-02-3.12742E+00-2.10274E-03 4.74671E-02-4.07928E-02 4.79638E+01-2.20772E+01 1.73500E+00



 n o d a l   p r i n t   o u t   f o r   t i m e  s t e p    3601                              ( at time 1.7998199E+00 )

 nodal point  x-rot      y-rot       z-rot       x-rot vel   y-rot vel   z-rot vel   x-rot acc   y-rot acc   z-rot acc
    22626  1.00018E-06 5.62542E-05 9.60605E-05 7.54514E-07 2.18714E-05 4.30871E-05 3.85102E-05-8.96761E-05-5.69165E-05



 n o d a l   p r i n t   o u t   f o r   t i m e  s t e p    3801                              ( at time 1.8998099E+00 )

 nodal point  x-disp     y-disp      z-disp      x-vel       y-vel       z-vel      x-accl      y-accl      z-accl      x-coor      y-coor      z-coor
    22626 -5.32101E-04-4.90336E-02-5.91634E+00-2.16193E-03-1.50292E-02-3.12997E+00-8.07765E-03 2.54164E-02-2.55324E-02 4.79636E+01-2.20788E+01 1.42216E+00



 n o d a l   p r i n t   o u t   f o r   t i m e  s t e p    3801                              ( at time 1.8998099E+00 )

 nodal point  x-rot      y-rot       z-rot       x-rot vel   y-rot vel   z-rot vel   x-rot acc   y-rot acc   z-rot acc
    22626  8.71900E-07 5.82090E-05 9.95623E-05 2.61841E-06 1.63375E-05 2.82675E-05 1.86408E-05-5.53444E-05-1.48210E-04



 n o d a l   p r i n t   o u t   f o r   t i m e  s t e p    4001                              ( at time 1.9997999E+00 )

 nodal point  x-disp     y-disp      z-disp      x-vel       y-vel       z-vel      x-accl      y-accl      z-accl      x-coor      y-coor      z-coor
    22626 -7.04991E-04-5.04136E-02-6.22942E+00-1.64937E-03-1.27257E-02-3.13217E+00 5.12616E-03 2.30366E-02-2.20130E-02 4.79635E+01-2.20802E+01 1.10908E+00



 n o d a l   p r i n t   o u t   f o r   t i m e  s t e p    4001                              ( at time 1.9997999E+00 )

 nodal point  x-rot      y-rot       z-rot       x-rot vel   y-rot vel   z-rot vel   x-rot acc   y-rot acc   z-rot acc
    22626  1.16412E-06 5.96277E-05 1.01963E-04 4.36732E-06 1.38559E-05 2.05428E-05 1.74909E-05-2.48185E-05-7.72548E-05



 n o d a l   p r i n t   o u t   f o r   t i m e  s t e p    4201                              ( at time 2.0997899E+00 )

 nodal point  x-disp     y-disp      z-disp      x-vel       y-vel       z-vel      x-accl      y-accl      z-accl      x-coor      y-coor      z-coor
    22626 -8.75622E-04-5.14989E-02-6.54277E+00-1.87701E-03-9.09006E-03-3.13525E+00-2.27666E-03 3.63604E-02-3.07805E-02 4.79633E+01-2.20813E+01 7.95734E-01



 n o d a l   p r i n t   o u t   f o r   t i m e  s t e p    4201                              ( at time 2.0997899E+00 )

 nodal point  x-rot      y-rot       z-rot       x-rot vel   y-rot vel   z-rot vel   x-rot acc   y-rot acc   z-rot acc
    22626  1.54134E-06 6.02906E-05 1.03088E-04-3.08186E-07 3.57474E-06 1.89655E-06-4.67598E-05-1.02822E-04-1.86481E-04



 n o d a l   p r i n t   o u t   f o r   t i m e  s t e p    4401                              ( at time 2.1997798E+00 )

 nodal point  x-disp     y-disp      z-disp      x-vel       y-vel       z-vel      x-accl      y-accl      z-accl      x-coor      y-coor      z-coor
    22626 -1.11680E-03-5.21774E-02-6.85644E+00-2.72791E-03-4.30028E-03-3.13902E+00-8.50992E-03 4.79027E-02-3.76811E-02 4.79631E+01-2.20820E+01 4.82063E-01



 n o d a l   p r i n t   o u t   f o r   t i m e  s t e p    4401                              ( at time 2.1997798E+00 )

 nodal point  x-rot      y-rot       z-rot       x-rot vel   y-rot vel   z-rot vel   x-rot acc   y-rot acc   z-rot acc
    22626  1.44021E-06 6.03797E-05 1.03128E-04-7.39243E-07-1.16663E-06-2.00913E-06-4.31101E-06-4.74185E-05-3.90607E-05



 n o d a l   p r i n t   o u t   f o r   t i m e  s t e p    4601                              ( at time 2.2997698E+00 )

 nodal point  x-disp     y-disp      z-disp      x-vel       y-vel       z-vel      x-accl      y-accl      z-accl      x-coor      y-coor      z-coor
    22626 -1.42276E-03-5.23640E-02-7.17049E+00-3.48820E-03-4.24038E-05-3.14235E+00-7.60359E-03 4.25830E-02-3.33533E-02 4.79628E+01-2.20822E+01 1.68006E-01



 n o d a l   p r i n t   o u t   f o r   t i m e  s t e p    4601                              ( at time 2.2997698E+00 )

 nodal point  x-rot      y-rot       z-rot       x-rot vel   y-rot vel   z-rot vel   x-rot acc   y-rot acc   z-rot acc
    22626  1.10147E-06 6.01501E-05 1.02835E-04-3.94294E-06-9.02389E-06-1.21372E-05-3.20402E-05-7.85804E-05-1.01291E-04



 n o d a l   p r i n t   o u t   f o r   t i m e  s t e p    4801                              ( at time 2.3997598E+00 )

 nodal point  x-disp     y-disp      z-disp      x-vel       y-vel       z-vel      x-accl      y-accl      z-accl      x-coor      y-coor      z-coor
    22626 -1.78910E-03-5.22718E-02-7.48480E+00-3.56429E-03 1.87920E-03-3.14444E+00-7.60949E-04 1.92180E-02-2.08923E-02 4.79624E+01-2.20821E+01-1.46299E-01



 n o d a l   p r i n t   o u t   f o r   t i m e  s t e p    4801                              ( at time 2.3997598E+00 )

 nodal point  x-rot      y-rot       z-rot       x-rot vel   y-rot vel   z-rot vel   x-rot acc   y-rot acc   z-rot acc
    22626  6.48044E-07 5.89370E-05 1.00387E-04-5.07696E-06-1.53197E-05-3.31720E-05-1.13413E-05-6.29642E-05-2.10369E-04



 n o d a l   p r i n t   o u t   f o r   t i m e  s t e p    5001                              ( at time 2.4997498E+00 )

 nodal point  x-disp     y-disp      z-disp      x-vel       y-vel       z-vel      x-accl      y-accl      z-accl      x-coor      y-coor      z-coor
    22626 -2.17855E-03-5.19651E-02-7.79933E+00-4.23032E-03 4.95362E-03-3.14714E+00-6.66096E-03 3.07472E-02-2.69940E-02 4.79620E+01-2.20818E+01-4.60829E-01



 n o d a l   p r i n t   o u t   f o r   t i m e  s t e p    5001                              ( at time 2.4997498E+00 )

 nodal point  x-rot      y-rot       z-rot       x-rot vel   y-rot vel   z-rot vel   x-rot acc   y-rot acc   z-rot acc
    22626  2.74544E-07 5.67740E-05 9.64661E-05-3.57473E-06-2.61790E-05-4.83331E-05 1.50237E-05-1.08604E-04-1.51626E-04



 n o d a l   p r i n t   o u t   f o r   t i m e  s t e p    5201                              ( at time 2.5997398E+00 )

 nodal point  x-disp     y-disp      z-disp      x-vel       y-vel       z-vel      x-accl      y-accl      z-accl      x-coor      y-coor      z-coor
    22626 -2.64899E-03-5.12460E-02-8.11420E+00-5.21808E-03 9.39011E-03-3.15077E+00-9.87863E-03 4.43693E-02-3.63267E-02 4.79615E+01-2.20810E+01-7.75700E-01



 n o d a l   p r i n t   o u t   f o r   t i m e  s t e p    5201                              ( at time 2.5997398E+00 )

 nodal point  x-rot      y-rot       z-rot       x-rot vel   y-rot vel   z-rot vel   x-rot acc   y-rot acc   z-rot acc
    22626 -6.21729E-08 5.37445E-05 9.11336E-05-4.56456E-06-3.50277E-05-6.12283E-05-9.89923E-06-8.84958E-05-1.28965E-04



 n o d a l   p r i n t   o u t   f o r   t i m e  s t e p    5401                              ( at time 2.6997298E+00 )

 nodal point  x-disp     y-disp      z-disp      x-vel       y-vel       z-vel      x-accl      y-accl      z-accl      x-coor      y-coor      z-coor
    22626 -3.21442E-03-5.01002E-02-8.42942E+00-6.36593E-03 1.30543E-02-3.15420E+00-1.14797E-02 3.66457E-02-3.42880E-02 4.79610E+01-2.20799E+01-1.09092E+00



 n o d a l   p r i n t   o u t   f o r   t i m e  s t e p    5401                              ( at time 2.6997298E+00 )

 nodal point  x-rot      y-rot       z-rot       x-rot vel   y-rot vel   z-rot vel   x-rot acc   y-rot acc   z-rot acc
    22626 -3.92528E-07 5.00862E-05 8.47417E-05-2.27386E-06-4.08601E-05-6.61029E-05 2.29092E-05-5.83303E-05-4.87505E-05



 n o d a l   p r i n t   o u t   f o r   t i m e  s t e p    5601                              ( at time 2.7997198E+00 )

 nodal point  x-disp     y-disp      z-disp      x-vel       y-vel       z-vel      x-accl      y-accl      z-accl      x-coor      y-coor      z-coor
    22626 -3.92170E-03-4.86709E-02-8.74493E+00-7.60462E-03 1.52190E-02-3.15638E+00-1.23881E-02 2.16486E-02-2.17269E-02 4.79603E+01-2.20785E+01-1.40643E+00



 n o d a l   p r i n t   o u t   f o r   t i m e  s t e p    5601                              ( at time 2.7997198E+00 )

 nodal point  x-rot      y-rot       z-rot       x-rot vel   y-rot vel   z-rot vel   x-rot acc   y-rot acc   z-rot acc
    22626 -5.74540E-07 4.52488E-05 7.67301E-05-3.38722E-07-5.68017E-05-9.72268E-05 1.93534E-05-1.59432E-04-3.11271E-04



 n o d a l   p r i n t   o u t   f o r   t i m e  s t e p    5801                              ( at time 2.8997098E+00 )

 nodal point  x-disp     y-disp      z-disp      x-vel       y-vel       z-vel      x-accl      y-accl      z-accl      x-coor      y-coor      z-coor
    22626 -4.68642E-03-4.70930E-02-9.06063E+00-7.77565E-03 1.62360E-02-3.15807E+00-1.71044E-03 1.01713E-02-1.69056E-02 4.79595E+01-2.20769E+01-1.72212E+00



 n o d a l   p r i n t   o u t   f o r   t i m e  s t e p    5801                              ( at time 2.8997098E+00 )

 nodal point  x-rot      y-rot       z-rot       x-rot vel   y-rot vel   z-rot vel   x-rot acc   y-rot acc   z-rot acc
    22626 -4.56245E-07 3.88815E-05 6.59581E-05 1.59498E-06-6.62785E-05-1.14737E-04 1.93390E-05-9.47767E-05-1.75121E-04



 n o d a l   p r i n t   o u t   f o r   t i m e  s t e p    6001                              ( at time 2.9996998E+00 )

 nodal point  x-disp     y-disp      z-disp      x-vel       y-vel       z-vel      x-accl      y-accl      z-accl      x-coor      y-coor      z-coor
    22626 -5.50486E-03-4.53554E-02-9.37650E+00-8.82301E-03 1.86926E-02-3.16045E+00-1.04747E-02 2.45689E-02-2.38061E-02 4.79587E+01-2.20751E+01-2.03800E+00



 n o d a l   p r i n t   o u t   f o r   t i m e  s t e p    6001                              ( at time 2.9996998E+00 )

 nodal point  x-rot      y-rot       z-rot       x-rot vel   y-rot vel   z-rot vel   x-rot acc   y-rot acc   z-rot acc
    22626 -2.85938E-07 3.20434E-05 5.44510E-05 1.87139E-07-7.05380E-05-1.20071E-04-1.40798E-05-4.25996E-05-5.33412E-05



 n o d a l   p r i n t   o u t   f o r   t i m e  s t e p    6201                              ( at time 3.0996898E+00 )

 nodal point  x-disp     y-disp      z-disp      x-vel       y-vel       z-vel      x-accl      y-accl      z-accl      x-coor      y-coor      z-coor
    22626 -6.46337E-03-4.33624E-02-9.69263E+00-1.02759E-02 2.07166E-02-3.16244E+00-1.45304E-02 2.02415E-02-1.99791E-02 4.79577E+01-2.20732E+01-2.35413E+00



 n o d a l   p r i n t   o u t   f o r   t i m e  s t e p    6201                              ( at time 3.0996898E+00 )

 nodal point  x-rot      y-rot       z-rot       x-rot vel   y-rot vel   z-rot vel   x-rot acc   y-rot acc   z-rot acc
    22626 -4.02919E-07 2.47984E-05 4.20122E-05-2.87220E-06-7.41197E-05-1.31001E-04-3.05965E-05-3.58210E-05-1.09313E-04



 n o d a l   p r i n t   o u t   f o r   t i m e  s t e p    6401                              ( at time 3.1996798E+00 )

 nodal point  x-disp     y-disp      z-disp      x-vel       y-vel       z-vel      x-accl      y-accl      z-accl      x-coor      y-coor      z-coor
    22626 -7.52363E-03-4.13195E-02-1.00089E+01-1.08597E-02 1.98415E-02-3.16305E+00-5.83815E-03-8.75150E-03-6.05166E-03 4.79567E+01-2.20711E+01-2.67039E+00



 n o d a l   p r i n t   o u t   f o r   t i m e  s t e p    6401                              ( at time 3.1996798E+00 )

 nodal point  x-rot      y-rot       z-rot       x-rot vel   y-rot vel   z-rot vel   x-rot acc   y-rot acc   z-rot acc
    22626 -6.21922E-07 1.68307E-05 2.85832E-05-2.30536E-06-8.50547E-05-1.42974E-04 5.66894E-06-1.09361E-04-1.19747E-04



 n o d a l   p r i n t   o u t   f o r   t i m e  s t e p    6601                              ( at time 3.2996698E+00 )

 nodal point  x-disp     y-disp      z-disp      x-vel       y-vel       z-vel      x-accl      y-accl      z-accl      x-coor      y-coor      z-coor
    22626 -8.62281E-03-3.94308E-02-1.03251E+01-1.10933E-02 1.79279E-02-3.16272E+00-2.33690E-03-1.91382E-02 3.25236E-03 4.79556E+01-2.20692E+01-2.98664E+00



 n o d a l   p r i n t   o u t   f o r   t i m e  s t e p    6601                              ( at time 3.2996698E+00 )

 nodal point  x-rot      y-rot       z-rot       x-rot vel   y-rot vel   z-rot vel   x-rot acc   y-rot acc   z-rot acc
    22626 -9.91050E-07 8.19204E-06 1.39335E-05-4.14362E-06-8.84905E-05-1.49964E-04-1.83845E-05-3.43616E-05-6.99018E-05



 n o d a l   p r i n t   o u t   f o r   t i m e  s t e p    6801                              ( at time 3.3996598E+00 )

 nodal point  x-disp     y-disp      z-disp      x-vel       y-vel       z-vel      x-accl      y-accl      z-accl      x-coor      y-coor      z-coor
    22626 -9.76119E-03-3.77279E-02-1.06414E+01-1.16014E-02 1.61486E-02-3.16262E+00-5.08170E-03-1.77948E-02 9.87150E-04 4.79544E+01-2.20675E+01-3.30288E+00



 n o d a l   p r i n t   o u t   f o r   t i m e  s t e p    6801                              ( at time 3.3996598E+00 )

 nodal point  x-rot      y-rot       z-rot       x-rot vel   y-rot vel   z-rot vel   x-rot acc   y-rot acc   z-rot acc
    22626 -1.19919E-06-5.75475E-07-1.17770E-06-3.99858E-06-8.73768E-05-1.51898E-04 1.45055E-06 1.11383E-05-1.93456E-05



 n o d a l   p r i n t   o u t   f o r   t i m e  s t e p    7001                              ( at time 3.4996498E+00 )

 nodal point  x-disp     y-disp      z-disp      x-vel       y-vel       z-vel      x-accl      y-accl      z-accl      x-coor      y-coor      z-coor
    22626 -1.09546E-02-3.61827E-02-1.09576E+01-1.22881E-02 1.47207E-02-3.16291E+00-6.86749E-03-1.42801E-02-2.82793E-03 4.79532E+01-2.20660E+01-3.61913E+00



 n o d a l   p r i n t   o u t   f o r   t i m e  s t e p    7001                              ( at time 3.4996498E+00 )

 nodal point  x-rot      y-rot       z-rot       x-rot vel   y-rot vel   z-rot vel   x-rot acc   y-rot acc   z-rot acc
    22626 -1.33035E-06-9.18088E-06-1.58730E-05-1.00351E-06-8.65401E-05-1.45940E-04 2.99538E-05 8.36812E-06 5.95904E-05



 n o d a l   p r i n t   o u t   f o r   t i m e  s t e p    7201                              ( at time 3.5996397E+00 )

 nodal point  x-disp     y-disp      z-disp      x-vel       y-vel       z-vel      x-accl      y-accl      z-accl      x-coor      y-coor      z-coor
    22626 -1.21994E-02-3.48198E-02-1.12739E+01-1.22916E-02 1.21974E-02-3.16263E+00-3.51610E-05-2.52356E-02 2.76594E-03 4.79520E+01-2.20646E+01-3.93538E+00



 n o d a l   p r i n t   o u t   f o r   t i m e  s t e p    7201                              ( at time 3.5996397E+00 )

 nodal point  x-rot      y-rot       z-rot       x-rot vel   y-rot vel   z-rot vel   x-rot acc   y-rot acc   z-rot acc
    22626 -1.54180E-06-1.76624E-05-3.01179E-05 1.99833E-07-8.34210E-05-1.36692E-04 1.20346E-05 3.11938E-05 9.24913E-05



 n o d a l   p r i n t   o u t   f o r   t i m e  s t e p    7401                              ( at time 3.6996297E+00 )

 nodal point  x-disp     y-disp      z-disp      x-vel       y-vel       z-vel      x-accl      y-accl      z-accl      x-coor      y-coor      z-coor
    22626 -1.34146E-02-3.37700E-02-1.15901E+01-1.19758E-02 8.83298E-03-3.16164E+00 3.15884E-03-3.36475E-02 9.93350E-03 4.79508E+01-2.20636E+01-4.25156E+00



 n o d a l   p r i n t   o u t   f o r   t i m e  s t e p    7401                              ( at time 3.6996297E+00 )

 nodal point  x-rot      y-rot       z-rot       x-rot vel   y-rot vel   z-rot vel   x-rot acc   y-rot acc   z-rot acc
    22626 -1.40690E-06-2.58643E-05-4.37557E-05 2.92032E-06-8.05940E-05-1.35384E-04 2.72076E-05 2.82725E-05 1.30737E-05



 n o d a l   p r i n t   o u t   f o r   t i m e  s t e p    7601                              ( at time 3.7996197E+00 )

 nodal point  x-disp     y-disp      z-disp      x-vel       y-vel       z-vel      x-accl      y-accl      z-accl      x-coor      y-coor      z-coor
    22626 -1.45858E-02-3.30163E-02-1.19062E+01-1.14855E-02 6.22928E-03-3.16099E+00 4.90293E-03-2.60396E-02 6.50472E-03 4.79496E+01-2.20628E+01-4.56766E+00



 n o d a l   p r i n t   o u t   f o r   t i m e  s t e p    7601                              ( at time 3.7996197E+00 )

 nodal point  x-rot      y-rot       z-rot       x-rot vel   y-rot vel   z-rot vel   x-rot acc   y-rot acc   z-rot acc
    22626 -1.08833E-06-3.35655E-05-5.68329E-05 3.44624E-06-7.08318E-05-1.19471E-04 5.25973E-06 9.76319E-05 1.59150E-04



 n o d a l   p r i n t   o u t   f o r   t i m e  s t e p    7801                              ( at time 3.8996097E+00 )

 nodal point  x-disp     y-disp      z-disp      x-vel       y-vel       z-vel      x-accl      y-accl      z-accl      x-coor      y-coor      z-coor
    22626 -1.57051E-02-3.24962E-02-1.22222E+01-1.08576E-02 4.43200E-03-3.16089E+00 6.28009E-03-1.79746E-02 9.51384E-04 4.79485E+01-2.20623E+01-4.88372E+00



 n o d a l   p r i n t   o u t   f o r   t i m e  s t e p    7801                              ( at time 3.8996097E+00 )

 nodal point  x-rot      y-rot       z-rot       x-rot vel   y-rot vel   z-rot vel   x-rot acc   y-rot acc   z-rot acc
    22626 -9.42094E-07-4.00603E-05-6.77331E-05-1.82994E-06-5.68844E-05-9.34400E-05-5.27671E-05 1.39488E-04 2.60336E-04



 n o d a l   p r i n t   o u t   f o r   t i m e  s t e p    8001                              ( at time 3.9995997E+00 )

 nodal point  x-disp     y-disp      z-disp      x-vel       y-vel       z-vel      x-accl      y-accl      z-accl      x-coor      y-coor      z-coor
    22626 -1.67635E-02-3.20926E-02-1.25383E+01-1.02855E-02 3.54026E-03-3.16120E+00 5.72174E-03-8.91825E-03-3.07591E-03 4.79474E+01-2.20619E+01-5.19980E+00



 n o d a l   p r i n t   o u t   f o r   t i m e  s t e p    8001                              ( at time 3.9995997E+00 )

 nodal point  x-rot      y-rot       z-rot       x-rot vel   y-rot vel   z-rot vel   x-rot acc   y-rot acc   z-rot acc
    22626 -1.14451E-06-4.51873E-05-7.61251E-05-4.26574E-06-4.50499E-05-7.66699E-05-2.43604E-05 1.18357E-04 1.67717E-04



 n o d a l   p r i n t   o u t   f o r   t i m e  s t e p    8201                              ( at time 4.0995897E+00 )

 nodal point  x-disp     y-disp      z-disp      x-vel       y-vel       z-vel      x-accl      y-accl      z-accl      x-coor      y-coor      z-coor
    22626 -1.77088E-02-3.18560E-02-1.28544E+01-8.48519E-03 1.01135E-03-3.16071E+00 1.80047E-02-2.52917E-02 4.85468E-03 4.79465E+01-2.20616E+01-5.51586E+00



 n o d a l   p r i n t   o u t   f o r   t i m e  s t e p    8201                              ( at time 4.0995897E+00 )

 nodal point  x-rot      y-rot       z-rot       x-rot vel   y-rot vel   z-rot vel   x-rot acc   y-rot acc   z-rot acc
    22626 -1.60080E-06-4.92097E-05-8.27581E-05-5.39775E-06-3.20898E-05-5.37522E-05-1.13213E-05 1.29614E-04 2.29200E-04



 n o d a l   p r i n t   o u t   f o r   t i m e  s t e p    8401                              ( at time 4.1995797E+00 )

 nodal point  x-disp     y-disp      z-disp      x-vel       y-vel       z-vel      x-accl      y-accl      z-accl      x-coor      y-coor      z-coor
    22626 -1.84791E-02-3.18754E-02-1.31704E+01-6.88313E-03-1.32601E-03-3.16005E+00 1.60222E-02-2.33759E-02 6.69070E-03 4.79457E+01-2.20617E+01-5.83186E+00



 n o d a l   p r i n t   o u t   f o r   t i m e  s t e p    8401                              ( at time 4.1995797E+00 )

 nodal point  x-rot      y-rot       z-rot       x-rot vel   y-rot vel   z-rot vel   x-rot acc   y-rot acc   z-rot acc
    22626 -2.19685E-06-5.15452E-05-8.64071E-05-7.33377E-06-1.34513E-05-1.95169E-05-1.93621E-05 1.86404E-04 3.42387E-04



 n o d a l   p r i n t   o u t   f o r   t i m e  s t e p    8601                              ( at time 4.2995697E+00 )

 nodal point  x-disp     y-disp      z-disp      x-vel       y-vel       z-vel      x-accl      y-accl      z-accl      x-coor      y-coor      z-coor
    22626 -1.91070E-02-3.21254E-02-1.34863E+01-5.52901E-03-3.39102E-03-3.15987E+00 1.35426E-02-2.06522E-02 1.78832E-03 4.79451E+01-2.20619E+01-6.14782E+00



 n o d a l   p r i n t   o u t   f o r   t i m e  s t e p    8601                              ( at time 4.2995697E+00 )

 nodal point  x-rot      y-rot       z-rot       x-rot vel   y-rot vel   z-rot vel   x-rot acc   y-rot acc   z-rot acc
    22626 -2.98205E-06-5.19661E-05-8.69143E-05-8.18520E-06 2.89344E-06 8.34859E-06-8.51520E-06 1.63464E-04 2.78683E-04



 n o d a l   p r i n t   o u t   f o r   t i m e  s t e p    8801                              ( at time 4.3995597E+00 )

 nodal point  x-disp     y-disp      z-disp      x-vel       y-vel       z-vel      x-accl      y-accl      z-accl      x-coor      y-coor      z-coor
    22626 -1.95722E-02-3.24990E-02-1.38023E+01-3.77174E-03-4.15352E-03-3.16057E+00 1.75745E-02-7.62577E-03-7.01021E-03 4.79446E+01-2.20623E+01-6.46380E+00



 n o d a l   p r i n t   o u t   f o r   t i m e  s t e p    8801                              ( at time 4.3995597E+00 )

 nodal point  x-rot      y-rot       z-rot       x-rot vel   y-rot vel   z-rot vel   x-rot acc   y-rot acc   z-rot acc
    22626 -3.71290E-06-5.06556E-05-8.42202E-05-6.67183E-06 2.31094E-05 4.40334E-05 1.51352E-05 2.02180E-04 3.56884E-04



 n o d a l   p r i n t   o u t   f o r   t i m e  s t e p    9001                              ( at time 4.4995497E+00 )

 nodal point  x-disp     y-disp      z-disp      x-vel       y-vel       z-vel      x-accl      y-accl      z-accl      x-coor      y-coor      z-coor
    22626 -1.98622E-02-3.30139E-02-1.41183E+01-1.93177E-03-6.46444E-03-3.16020E+00 1.84015E-02-2.31114E-02 3.65531E-03 4.79443E+01-2.20628E+01-6.77982E+00



 n o d a l   p r i n t   o u t   f o r   t i m e  s t e p    9001                              ( at time 4.4995497E+00 )

 nodal point  x-rot      y-rot       z-rot       x-rot vel   y-rot vel   z-rot vel   x-rot acc   y-rot acc   z-rot acc
    22626 -4.33631E-06-4.70529E-05-7.76506E-05-4.82874E-06 4.53140E-05 8.11833E-05 1.84327E-05 2.22068E-04 3.71536E-04



 n o d a l   p r i n t   o u t   f o r   t i m e  s t e p    9201                              ( at time 4.5995397E+00 )

 nodal point  x-disp     y-disp      z-disp      x-vel       y-vel       z-vel      x-accl      y-accl      z-accl      x-coor      y-coor      z-coor
    22626 -1.99592E-02-3.38158E-02-1.44343E+01 2.12888E-05-9.37249E-03-3.15958E+00 1.95325E-02-2.90835E-02 6.22097E-03 4.79442E+01-2.20636E+01-7.09577E+00



 n o d a l   p r i n t   o u t   f o r   t i m e  s t e p    9201                              ( at time 4.5995397E+00 )

 nodal point  x-rot      y-rot       z-rot       x-rot vel   y-rot vel   z-rot vel   x-rot acc   y-rot acc   z-rot acc
    22626 -4.90449E-06-4.17369E-05-6.81480E-05-4.34474E-06 6.10386E-05 1.06942E-04 4.84048E-06 1.57261E-04 2.57614E-04



 n o d a l   p r i n t   o u t   f o r   t i m e  s t e p    9401                              ( at time 4.6995297E+00 )

 nodal point  x-disp     y-disp      z-disp      x-vel       y-vel       z-vel      x-accl      y-accl      z-accl      x-coor      y-coor      z-coor
    22626 -1.98358E-02-3.48364E-02-1.47502E+01 2.53271E-03-1.12767E-02-3.15889E+00 2.51167E-02-1.90439E-02 6.92438E-03 4.79443E+01-2.20646E+01-7.41168E+00



 n o d a l   p r i n t   o u t   f o r   t i m e  s t e p    9401                              ( at time 4.6995297E+00 )

 nodal point  x-rot      y-rot       z-rot       x-rot vel   y-rot vel   z-rot vel   x-rot acc   y-rot acc   z-rot acc
    22626 -5.54632E-06-3.43812E-05-5.50690E-05-1.38966E-05 9.17224E-05 1.60902E-04-9.55284E-05 3.06869E-04 5.39655E-04



 n o d a l   p r i n t   o u t   f o r   t i m e  s t e p    9601                              ( at time 4.7995197E+00 )

 nodal point  x-disp     y-disp      z-disp      x-vel       y-vel       z-vel      x-accl      y-accl      z-accl      x-coor      y-coor      z-coor
    22626 -1.95005E-02-3.60097E-02-1.50659E+01 4.17336E-03-1.18481E-02-3.15690E+00 1.64082E-02-5.71497E-03 1.98408E-02 4.79447E+01-2.20658E+01-7.72744E+00



 n o d a l   p r i n t   o u t   f o r   t i m e  s t e p    9601                              ( at time 4.7995197E+00 )

 nodal point  x-rot      y-rot       z-rot       x-rot vel   y-rot vel   z-rot vel   x-rot acc   y-rot acc   z-rot acc
    22626 -6.44307E-06-2.31460E-05-3.79027E-05-2.04606E-06 1.36664E-04 1.93478E-04 1.18518E-04 4.49464E-04 3.25786E-04



 n o d a l   p r i n t   o u t   f o r   t i m e  s t e p    9801                              ( at time 4.8995097E+00 )

 nodal point  x-disp     y-disp      z-disp      x-vel       y-vel       z-vel      x-accl      y-accl      z-accl      x-coor      y-coor      z-coor
    22626 -1.89838E-02-3.72375E-02-1.53814E+01 5.73485E-03-1.21481E-02-3.15157E+00 1.56165E-02-3.00016E-03 5.33229E-02 4.79452E+01-2.20670E+01-8.04288E+00



 n o d a l   p r i n t   o u t   f o r   t i m e  s t e p    9801                              ( at time 4.8995097E+00 )

 nodal point  x-rot      y-rot       z-rot       x-rot vel   y-rot vel   z-rot vel   x-rot acc   y-rot acc   z-rot acc
    22626 -6.29041E-06-5.74332E-06-1.72367E-05 1.17544E-05 2.07956E-04 2.06521E-04 1.38019E-04 7.12989E-04 1.30449E-04



 n o d a l   p r i n t   o u t   f o r   t i m e  s t e p   10001                              ( at time 4.9994997E+00 )

 nodal point  x-disp     y-disp      z-disp      x-vel       y-vel       z-vel      x-accl      y-accl      z-accl      x-coor      y-coor      z-coor
    22626 -1.82114E-02-3.85659E-02-1.56960E+01 8.75862E-03-1.34130E-02-3.14071E+00 3.02406E-02-1.26505E-02 1.08601E-01 4.79460E+01-2.20684E+01-8.35754E+00



 n o d a l   p r i n t   o u t   f o r   t i m e  s t e p   10001                              ( at time 4.9994997E+00 )

 nodal point  x-rot      y-rot       z-rot       x-rot vel   y-rot vel   z-rot vel   x-rot acc   y-rot acc   z-rot acc
    22626 -4.47634E-06 2.07147E-05 5.24325E-06 4.34836E-05 3.32691E-04 2.18540E-04 3.17322E-04 1.24747E-03 1.20196E-04



 n o d a l   p r i n t   o u t   f o r   t i m e  s t e p   10202                              ( at time 5.0999896E+00 )

 nodal point  x-disp     y-disp      z-disp      x-vel       y-vel       z-vel      x-accl      y-accl      z-accl      x-coor      y-coor      z-coor
    22626 -1.71616E-02-3.98775E-02-1.60109E+01 1.21781E-02-1.23061E-02-3.12420E+00 3.40285E-02 1.10150E-02 1.64291E-01 4.79470E+01-2.20697E+01-8.67239E+00



 n o d a l   p r i n t   o u t   f o r   t i m e  s t e p   10202                              ( at time 5.0999896E+00 )

 nodal point  x-rot      y-rot       z-rot       x-rot vel   y-rot vel   z-rot vel   x-rot acc   y-rot acc   z-rot acc
    22626  3.87818E-06 6.12440E-05 2.83389E-05 1.13267E-04 4.91498E-04 2.32948E-04 6.94436E-04 1.58034E-03 1.43385E-04



 n o d a l   p r i n t   o u t   f o r   t i m e  s t e p   10402                              ( at time 5.1999796E+00 )

 nodal point  x-disp     y-disp      z-disp      x-vel       y-vel       z-vel      x-accl      y-accl      z-accl      x-coor      y-coor      z-coor
    22626 -1.58202E-02-4.09270E-02-1.63222E+01 1.48253E-02-8.84653E-03-3.10225E+00 2.64738E-02 3.45995E-02 2.19581E-01 4.79484E+01-2.20707E+01-8.98368E+00



 n o d a l   p r i n t   o u t   f o r   t i m e  s t e p   10402                              ( at time 5.1999796E+00 )

 nodal point  x-rot      y-rot       z-rot       x-rot vel   y-rot vel   z-rot vel   x-rot acc   y-rot acc   z-rot acc
    22626  2.06429E-05 1.20721E-04 5.03935E-05 2.20123E-04 7.01482E-04 2.16624E-04 1.06867E-03 2.10004E-03-1.63256E-04



 n o d a l   p r i n t   o u t   f o r   t i m e  s t e p   10602                              ( at time 5.2999696E+00 )

 nodal point  x-disp     y-disp      z-disp      x-vel       y-vel       z-vel      x-accl      y-accl      z-accl      x-coor      y-coor      z-coor
    22626 -1.41687E-02-4.15682E-02-1.66311E+01 1.79391E-02-4.36648E-03-3.07604E+00 3.11419E-02 4.48050E-02 2.62115E-01 4.79500E+01-2.20714E+01-9.29258E+00



 n o d a l   p r i n t   o u t   f o r   t i m e  s t e p   10602                              ( at time 5.2999696E+00 )

 nodal point  x-rot      y-rot       z-rot       x-rot vel   y-rot vel   z-rot vel   x-rot acc   y-rot acc   z-rot acc
    22626  4.85689E-05 2.03209E-04 6.98297E-05 3.43135E-04 9.46237E-04 1.82166E-04 1.23024E-03 2.44780E-03-3.44620E-04



 n o d a l   p r i n t   o u t   f o r   t i m e  s t e p   10802                              ( at time 5.3999596E+00 )

 nodal point  x-disp     y-disp      z-disp      x-vel       y-vel       z-vel      x-accl      y-accl      z-accl      x-coor      y-coor      z-coor
    22626 -1.21518E-02-4.17155E-02-1.69371E+01 2.21476E-02 1.10128E-03-3.04533E+00 4.20885E-02 5.46831E-02 3.07159E-01 4.79520E+01-2.20715E+01-9.59863E+00



 n o d a l   p r i n t   o u t   f o r   t i m e  s t e p   10802                              ( at time 5.3999596E+00 )

 nodal point  x-rot      y-rot       z-rot       x-rot vel   y-rot vel   z-rot vel   x-rot acc   y-rot acc   z-rot acc
    22626  9.12926E-05 3.10513E-04 8.51557E-05 5.02945E-04 1.21426E-03 1.28492E-04 1.59825E-03 2.68055E-03-5.36790E-04



 n o d a l   p r i n t   o u t   f o r   t i m e  s t e p   11002                              ( at time 5.4999496E+00 )

 nodal point  x-disp     y-disp      z-disp      x-vel       y-vel       z-vel      x-accl      y-accl      z-accl      x-coor      y-coor      z-coor
    22626 -9.74707E-03-4.12640E-02-1.72400E+01 2.59613E-02 7.83788E-03-3.01202E+00 3.81410E-02 6.73729E-02 3.33069E-01 4.79544E+01-2.20711E+01-9.90148E+00



 n o d a l   p r i n t   o u t   f o r   t i m e  s t e p   11002                              ( at time 5.4999496E+00 )

 nodal point  x-rot      y-rot       z-rot       x-rot vel   y-rot vel   z-rot vel   x-rot acc   y-rot acc   z-rot acc
    22626  1.50045E-04 4.47002E-04 9.50608E-05 6.70562E-04 1.52250E-03 7.64300E-05 1.67635E-03 3.08270E-03-5.20675E-04



 n o d a l   p r i n t   o u t   f o r   t i m e  s t e p   11202                              ( at time 5.5999396E+00 )

 nodal point  x-disp     y-disp      z-disp      x-vel       y-vel       z-vel      x-accl      y-accl      z-accl      x-coor      y-coor      z-coor
    22626 -6.94988E-03-4.01429E-02-1.75394E+01 3.01416E-02 1.49490E-02-2.97629E+00 4.18073E-02 7.11180E-02 3.57366E-01 4.79572E+01-2.20699E+01-1.02009E+01



 n o d a l   p r i n t   o u t   f o r   t i m e  s t e p   11202                              ( at time 5.5999396E+00 )

 nodal point  x-rot      y-rot       z-rot       x-rot vel   y-rot vel   z-rot vel   x-rot acc   y-rot acc   z-rot acc
    22626  2.26000E-04 6.14234E-04 9.94237E-05 8.43888E-04 1.84092E-03 9.81714E-06 1.73343E-03 3.18451E-03-6.66196E-04



 n o d a l   p r i n t   o u t   f o r   t i m e  s t e p   11402                              ( at time 5.6999296E+00 )

 nodal point  x-disp     y-disp      z-disp      x-vel       y-vel       z-vel      x-accl      y-accl      z-accl      x-coor      y-coor      z-coor
    22626 -3.69273E-03-3.81856E-02-1.78351E+01 3.46186E-02 2.38424E-02-2.93855E+00 4.47743E-02 8.89431E-02 3.77381E-01 4.79605E+01-2.20680E+01-1.04966E+01



 n o d a l   p r i n t   o u t   f o r   t i m e  s t e p   11402                              ( at time 5.6999296E+00 )

 nodal point  x-rot      y-rot       z-rot       x-rot vel   y-rot vel   z-rot vel   x-rot acc   y-rot acc   z-rot acc
    22626  3.18892E-04 8.14429E-04 9.62180E-05 1.01336E-03 2.16738E-03-6.76449E-05 1.69489E-03 3.26492E-03-7.74695E-04



 n o d a l   p r i n t   o u t   f o r   t i m e  s t e p   11602                              ( at time 5.7999195E+00 )

 nodal point  x-disp     y-disp      z-disp      x-vel       y-vel       z-vel      x-accl      y-accl      z-accl      x-coor      y-coor      z-coor
    22626  4.20391E-05-3.53815E-02-1.81270E+01 3.99564E-02 3.21267E-02-2.89851E+00 5.33837E-02 8.28516E-02 4.00457E-01 4.79642E+01-2.20652E+01-1.07885E+01



 n o d a l   p r i n t   o u t   f o r   t i m e  s t e p   11602                              ( at time 5.7999195E+00 )

 nodal point  x-rot      y-rot       z-rot       x-rot vel   y-rot vel   z-rot vel   x-rot acc   y-rot acc   z-rot acc
    22626  4.29013E-04 1.04806E-03 8.57266E-05 1.18830E-03 2.50479E-03-1.46399E-04 1.74957E-03 3.37447E-03-7.87623E-04



 n o d a l   p r i n t   o u t   f o r   t i m e  s t e p   11802                              ( at time 5.8999095E+00 )

 nodal point  x-disp     y-disp      z-disp      x-vel       y-vel       z-vel      x-accl      y-accl      z-accl      x-coor      y-coor      z-coor
    22626  4.32620E-03-3.18199E-02-1.84147E+01 4.62256E-02 3.93765E-02-2.85660E+00 6.26985E-02 7.25051E-02 4.19208E-01 4.79685E+01-2.20616E+01-1.10762E+01



 n o d a l   p r i n t   o u t   f o r   t i m e  s t e p   11802                              ( at time 5.8999095E+00 )

 nodal point  x-rot      y-rot       z-rot       x-rot vel   y-rot vel   z-rot vel   x-rot acc   y-rot acc   z-rot acc
    22626  5.55795E-04 1.31491E-03 6.69310E-05 1.35370E-03 2.83742E-03-2.28525E-04 1.65419E-03 3.32663E-03-8.21343E-04



 n o d a l   p r i n t   o u t   f o r   t i m e  s t e p   12002                              ( at time 5.9998995E+00 )

 nodal point  x-disp     y-disp      z-disp      x-vel       y-vel       z-vel      x-accl      y-accl      z-accl      x-coor      y-coor      z-coor
    22626  9.21346E-03-2.75035E-02-1.86982E+01 5.19858E-02 4.66195E-02-2.81510E+00 5.76071E-02 7.24376E-02 4.15050E-01 4.79734E+01-2.20573E+01-1.13597E+01



 n o d a l   p r i n t   o u t   f o r   t i m e  s t e p   12002                              ( at time 5.9998995E+00 )

 nodal point  x-rot      y-rot       z-rot       x-rot vel   y-rot vel   z-rot vel   x-rot acc   y-rot acc   z-rot acc
    22626  7.00470E-04 1.61594E-03 3.88180E-05 1.53845E-03 3.16531E-03-3.24575E-04 1.84766E-03 3.27918E-03-9.60595E-04



 n o d a l   p r i n t   o u t   f o r   t i m e  s t e p   12202                              ( at time 6.0998895E+00 )

 nodal point  x-disp     y-disp      z-disp      x-vel       y-vel       z-vel      x-accl      y-accl      z-accl      x-coor      y-coor      z-coor
    22626  1.46997E-02-2.23626E-02-1.89774E+01 5.79761E-02 5.58830E-02-2.77076E+00 5.99096E-02 9.26431E-02 4.43408E-01 4.79789E+01-2.20522E+01-1.16389E+01



 n o d a l   p r i n t   o u t   f o r   t i m e  s t e p   12202                              ( at time 6.0998895E+00 )

 nodal point  x-rot      y-rot       z-rot       x-rot vel   y-rot vel   z-rot vel   x-rot acc   y-rot acc   z-rot acc
    22626  8.62412E-04 1.95036E-03 1.72010E-08 1.71527E-03 3.51942E-03-4.33327E-04 1.76838E-03 3.54144E-03-1.08762E-03



 n o d a l   p r i n t   o u t   f o r   t i m e  s t e p   12402                              ( at time 6.1998795E+00 )

 nodal point  x-disp     y-disp      z-disp      x-vel       y-vel       z-vel      x-accl      y-accl      z-accl      x-coor      y-coor      z-coor
    22626  2.08373E-02-1.64131E-02-1.92524E+01 6.53182E-02 6.35387E-02-2.72653E+00 7.34277E-02 7.65654E-02 4.42297E-01 4.79850E+01-2.20462E+01-1.19139E+01



 n o d a l   p r i n t   o u t   f o r   t i m e  s t e p   12402                              ( at time 6.1998795E+00 )

 nodal point  x-rot      y-rot       z-rot       x-rot vel   y-rot vel   z-rot vel   x-rot acc   y-rot acc   z-rot acc
    22626  1.04358E-03 2.31758E-03-4.81304E-05 1.90308E-03 3.83708E-03-5.24224E-04 1.87826E-03 3.17696E-03-9.09067E-04



 n o d a l   p r i n t   o u t   f o r   t i m e  s t e p   12602                              ( at time 6.2998695E+00 )

 nodal point  x-disp     y-disp      z-disp      x-vel       y-vel       z-vel      x-accl      y-accl      z-accl      x-coor      y-coor      z-coor
    22626  2.77197E-02-9.70721E-03-1.95227E+01 7.27092E-02 6.99381E-02-2.68153E+00 7.39182E-02 6.40000E-02 4.50046E-01 4.79919E+01-2.20395E+01-1.21842E+01



 n o d a l   p r i n t   o u t   f o r   t i m e  s t e p   12602                              ( at time 6.2998695E+00 )

 nodal point  x-rot      y-rot       z-rot       x-rot vel   y-rot vel   z-rot vel   x-rot acc   y-rot acc   z-rot acc
    22626  1.24248E-03 2.71700E-03-1.06411E-04 2.07782E-03 4.15688E-03-6.31093E-04 1.74764E-03 3.19829E-03-1.06879E-03



 n o d a l   p r i n t   o u t   f o r   t i m e  s t e p   12802                              ( at time 6.3998595E+00 )

 nodal point  x-disp     y-disp      z-disp      x-vel       y-vel       z-vel      x-accl      y-accl      z-accl      x-coor      y-coor      z-coor
    22626  3.53731E-02-2.28372E-03-1.97885E+01 8.03812E-02 7.90000E-02-2.63539E+00 7.67277E-02 9.06286E-02 4.61449E-01 4.79996E+01-2.20321E+01-1.24500E+01



 n o d a l   p r i n t   o u t   f o r   t i m e  s t e p   12802                              ( at time 6.3998595E+00 )

 nodal point  x-rot      y-rot       z-rot       x-rot vel   y-rot vel   z-rot vel   x-rot acc   y-rot acc   z-rot acc
    22626  1.46000E-03 3.14790E-03-1.75371E-04 2.26942E-03 4.46391E-03-7.40077E-04 1.91616E-03 3.07065E-03-1.08995E-03



 n o d a l   p r i n t   o u t   f o r   t i m e  s t e p   13002                              ( at time 6.4998495E+00 )

 nodal point  x-disp     y-disp      z-disp      x-vel       y-vel       z-vel      x-accl      y-accl      z-accl      x-coor      y-coor      z-coor
    22626  4.38208E-02 6.01540E-03-2.00496E+01 8.83885E-02 8.71795E-02-2.58769E+00 8.00812E-02 8.18026E-02 4.77067E-01 4.80080E+01-2.20238E+01-1.27111E+01



 n o d a l   p r i n t   o u t   f o r   t i m e  s t e p   13002                              ( at time 6.4998495E+00 )

 nodal point  x-rot      y-rot       z-rot       x-rot vel   y-rot vel   z-rot vel   x-rot acc   y-rot acc   z-rot acc
    22626  1.69560E-03 3.60907E-03-2.54049E-04 2.45117E-03 4.76037E-03-8.38185E-04 1.81770E-03 2.96486E-03-9.81184E-04



 n o d a l   p r i n t   o u t   f o r   t i m e  s t e p   13202                              ( at time 6.5998395E+00 )

 nodal point  x-disp     y-disp      z-disp      x-vel       y-vel       z-vel      x-accl      y-accl      z-accl      x-coor      y-coor      z-coor
    22626  5.31568E-02 1.51061E-02-2.03059E+01 9.76931E-02 9.56329E-02-2.53763E+00 9.30546E-02 8.45422E-02 5.00680E-01 4.80173E+01-2.20147E+01-1.29674E+01



 n o d a l   p r i n t   o u t   f o r   t i m e  s t e p   13202                              ( at time 6.5998395E+00 )

 nodal point  x-rot      y-rot       z-rot       x-rot vel   y-rot vel   z-rot vel   x-rot acc   y-rot acc   z-rot acc
    22626  1.94913E-03 4.10011E-03-3.43043E-04 2.62317E-03 5.05556E-03-9.52793E-04 1.72015E-03 2.95220E-03-1.14619E-03



 n o d a l   p r i n t   o u t   f o r   t i m e  s t e p   13402                              ( at time 6.6998295E+00 )

 nodal point  x-disp     y-disp      z-disp      x-vel       y-vel       z-vel      x-accl      y-accl      z-accl      x-coor      y-coor      z-coor
    22626  6.33668E-02 2.50476E-02-2.05572E+01 1.07065E-01 1.02931E-01-2.48714E+00 9.37306E-02 7.29861E-02 5.04938E-01 4.80275E+01-2.20047E+01-1.32187E+01



 n o d a l   p r i n t   o u t   f o r   t i m e  s t e p   13402                              ( at time 6.6998295E+00 )

 nodal point  x-rot      y-rot       z-rot       x-rot vel   y-rot vel   z-rot vel   x-rot acc   y-rot acc   z-rot acc
    22626  2.22209E-03 4.61943E-03-4.43880E-04 2.82857E-03 5.34219E-03-1.05469E-03 2.05422E-03 2.86662E-03-1.01909E-03



 n o d a l   p r i n t   o u t   f o r   t i m e  s t e p   13602                              ( at time 6.7998195E+00 )

 nodal point  x-disp     y-disp      z-disp      x-vel       y-vel       z-vel      x-accl      y-accl      z-accl      x-coor      y-coor      z-coor
    22626  7.45485E-02 3.57266E-02-2.08033E+01 1.16282E-01 1.10061E-01-2.43492E+00 9.21771E-02 7.13069E-02 5.22285E-01 4.80387E+01-2.19941E+01-1.34648E+01



 n o d a l   p r i n t   o u t   f o r   t i m e  s t e p   13602                              ( at time 6.7998195E+00 )

 nodal point  x-rot      y-rot       z-rot       x-rot vel   y-rot vel   z-rot vel   x-rot acc   y-rot acc   z-rot acc
    22626  2.51546E-03 5.16736E-03-5.55372E-04 3.03132E-03 5.63164E-03-1.16303E-03 2.02767E-03 2.89476E-03-1.08350E-03



 n o d a l   p r i n t   o u t   f o r   t i m e  s t e p   13802                              ( at time 6.8998095E+00 )

 nodal point  x-disp     y-disp      z-disp      x-vel       y-vel       z-vel      x-accl      y-accl      z-accl      x-coor      y-coor      z-coor
    22626  8.65670E-02 4.71549E-02-2.10441E+01 1.24577E-01 1.18183E-01-2.38270E+00 8.29569E-02 8.12269E-02 5.22180E-01 4.80507E+01-2.19826E+01-1.37056E+01



 n o d a l   p r i n t   o u t   f o r   t i m e  s t e p   13802                              ( at time 6.8998095E+00 )

 nodal point  x-rot      y-rot       z-rot       x-rot vel   y-rot vel   z-rot vel   x-rot acc   y-rot acc   z-rot acc
    22626  2.82977E-03 5.74562E-03-6.79136E-04 3.26462E-03 5.93757E-03-1.30325E-03 2.33325E-03 3.05961E-03-1.40231E-03



 n o d a l   p r i n t   o u t   f o r   t i m e  s t e p   14002                              ( at time 6.9997995E+00 )

 nodal point  x-disp     y-disp      z-disp      x-vel       y-vel       z-vel      x-accl      y-accl      z-accl      x-coor      y-coor      z-coor
    22626  9.94298E-02 5.94210E-02-2.12796E+01 1.33098E-01 1.26126E-01-2.32803E+00 8.52211E-02 7.94430E-02 5.46749E-01 4.80636E+01-2.19704E+01-1.39411E+01



 n o d a l   p r i n t   o u t   f o r   t i m e  s t e p   14002                              ( at time 6.9997995E+00 )

 nodal point  x-rot      y-rot       z-rot       x-rot vel   y-rot vel   z-rot vel   x-rot acc   y-rot acc   z-rot acc
    22626  3.16686E-03 6.35288E-03-8.14722E-04 3.47989E-03 6.21986E-03-1.40912E-03 2.15295E-03 2.82317E-03-1.05878E-03



 n o d a l   p r i n t   o u t   f o r   t i m e  s t e p   14202                              ( at time 7.0997895E+00 )

 nodal point  x-disp     y-disp      z-disp      x-vel       y-vel       z-vel      x-accl      y-accl      z-accl      x-coor      y-coor      z-coor
    22626  1.13095E-01 7.24272E-02-2.15096E+01 1.40386E-01 1.33657E-01-2.27267E+00 7.28879E-02 7.53164E-02 5.53652E-01 4.80773E+01-2.19574E+01-1.41711E+01



 n o d a l   p r i n t   o u t   f o r   t i m e  s t e p   14202                              ( at time 7.0997895E+00 )

 nodal point  x-rot      y-rot       z-rot       x-rot vel   y-rot vel   z-rot vel   x-rot acc   y-rot acc   z-rot acc
    22626  3.52704E-03 6.99025E-03-9.61362E-04 3.71710E-03 6.52466E-03-1.52599E-03 2.37230E-03 3.04834E-03-1.16884E-03



 n o d a l   p r i n t   o u t   f o r   t i m e  s t e p   14402                              ( at time 7.1997794E+00 )

 nodal point  x-disp     y-disp      z-disp      x-vel       y-vel       z-vel      x-accl      y-accl      z-accl      x-coor      y-coor      z-coor
    22626  1.27537E-01 8.61037E-02-2.17339E+01 1.47918E-01 1.39952E-01-2.21512E+00 7.53251E-02 6.29593E-02 5.75603E-01 4.80917E+01-2.19437E+01-1.43954E+01



 n o d a l   p r i n t   o u t   f o r   t i m e  s t e p   14402                              ( at time 7.1997794E+00 )

 nodal point  x-rot      y-rot       z-rot       x-rot vel   y-rot vel   z-rot vel   x-rot acc   y-rot acc   z-rot acc
    22626  3.91018E-03 7.65790E-03-1.11876E-03 3.94128E-03 6.82505E-03-1.63459E-03 2.24205E-03 3.00421E-03-1.08612E-03



 n o d a l   p r i n t   o u t   f o r   t i m e  s t e p   14602                              ( at time 7.2997694E+00 )

 nodal point  x-disp     y-disp      z-disp      x-vel       y-vel       z-vel      x-accl      y-accl      z-accl      x-coor      y-coor      z-coor
    22626  1.42708E-01 1.00417E-01-2.19525E+01 1.54634E-01 1.46893E-01-2.15675E+00 6.71633E-02 6.94117E-02 5.83741E-01 4.81069E+01-2.19294E+01-1.46140E+01



 n o d a l   p r i n t   o u t   f o r   t i m e  s t e p   14602                              ( at time 7.2997694E+00 )

 nodal point  x-rot      y-rot       z-rot       x-rot vel   y-rot vel   z-rot vel   x-rot acc   y-rot acc   z-rot acc
    22626  4.31763E-03 8.35651E-03-1.28682E-03 4.20347E-03 7.14760E-03-1.72672E-03 2.62210E-03 3.22580E-03-9.21438E-04



 n o d a l   p r i n t   o u t   f o r   t i m e  s t e p   14802                              ( at time 7.3997594E+00 )

 nodal point  x-disp     y-disp      z-disp      x-vel       y-vel       z-vel      x-accl      y-accl      z-accl      x-coor      y-coor      z-coor
    22626  1.58577E-01 1.15395E-01-2.21652E+01 1.61496E-01 1.52497E-01-2.09559E+00 6.86265E-02 5.60503E-02 6.11694E-01 4.81228E+01-2.19144E+01-1.48267E+01



 n o d a l   p r i n t   o u t   f o r   t i m e  s t e p   14802                              ( at time 7.3997594E+00 )

 nodal point  x-rot      y-rot       z-rot       x-rot vel   y-rot vel   z-rot vel   x-rot acc   y-rot acc   z-rot acc
    22626  4.74938E-03 9.08710E-03-1.46462E-03 4.43560E-03 7.47330E-03-1.82692E-03 2.32161E-03 3.25731E-03-1.00206E-03



 n o d a l   p r i n t   o u t   f o r   t i m e  s t e p   15002                              ( at time 7.4997494E+00 )

 nodal point  x-disp     y-disp      z-disp      x-vel       y-vel       z-vel      x-accl      y-accl      z-accl      x-coor      y-coor      z-coor
    22626  1.74999E-01 1.30848E-01-2.23717E+01 1.66760E-01 1.56626E-01-2.03382E+00 5.26521E-02 4.12903E-02 6.17730E-01 4.81392E+01-2.18989E+01-1.50332E+01



 n o d a l   p r i n t   o u t   f o r   t i m e  s t e p   15002                              ( at time 7.4997494E+00 )

 nodal point  x-rot      y-rot       z-rot       x-rot vel   y-rot vel   z-rot vel   x-rot acc   y-rot acc   z-rot acc
    22626  5.20579E-03 9.85018E-03-1.65121E-03 4.69998E-03 7.78660E-03-1.89701E-03 2.64399E-03 3.13335E-03-7.00983E-04



 n o d a l   p r i n t   o u t   f o r   t i m e  s t e p   15202                              ( at time 7.5997394E+00 )

 nodal point  x-disp     y-disp      z-disp      x-vel       y-vel       z-vel      x-accl      y-accl      z-accl      x-coor      y-coor      z-coor
    22626  1.91977E-01 1.46689E-01-2.25717E+01 1.72923E-01 1.59929E-01-1.96777E+00 6.16367E-02 3.30392E-02 6.60628E-01 4.81562E+01-2.18831E+01-1.52332E+01



 n o d a l   p r i n t   o u t   f o r   t i m e  s t e p   15202                              ( at time 7.5997394E+00 )

 nodal point  x-rot      y-rot       z-rot       x-rot vel   y-rot vel   z-rot vel   x-rot acc   y-rot acc   z-rot acc
    22626  5.68819E-03 1.06440E-02-1.84566E-03 4.95792E-03 8.08489E-03-1.99607E-03 2.57971E-03 2.98313E-03-9.90715E-04



 n o d a l   p r i n t   o u t   f o r   t i m e  s t e p   15402                              ( at time 7.6997294E+00 )

 nodal point  x-disp     y-disp      z-disp      x-vel       y-vel       z-vel      x-accl      y-accl      z-accl      x-coor      y-coor      z-coor
    22626  2.09588E-01 1.62748E-01-2.27651E+01 1.79247E-01 1.60660E-01-1.90233E+00 6.32416E-02 7.30588E-03 6.54467E-01 4.81738E+01-2.18670E+01-1.54266E+01



 n o d a l   p r i n t   o u t   f o r   t i m e  s t e p   15402                              ( at time 7.6997294E+00 )

 nodal point  x-rot      y-rot       z-rot       x-rot vel   y-rot vel   z-rot vel   x-rot acc   y-rot acc   z-rot acc
    22626  6.19865E-03 1.14672E-02-2.04886E-03 5.23222E-03 8.37416E-03-2.06000E-03 2.74331E-03 2.89304E-03-6.39303E-04



 n o d a l   p r i n t   o u t   f o r   t i m e  s t e p   15602                              ( at time 7.7997194E+00 )

 nodal point  x-disp     y-disp      z-disp      x-vel       y-vel       z-vel      x-accl      y-accl      z-accl      x-coor      y-coor      z-coor
    22626  2.27841E-01 1.78975E-01-2.29519E+01 1.84907E-01 1.63896E-01-1.83332E+00 5.66109E-02 3.23614E-02 6.90119E-01 4.81920E+01-2.18508E+01-1.56134E+01



 n o d a l   p r i n t   o u t   f o r   t i m e  s t e p   15602                              ( at time 7.7997194E+00 )

 nodal point  x-rot      y-rot       z-rot       x-rot vel   y-rot vel   z-rot vel   x-rot acc   y-rot acc   z-rot acc
    22626  6.73634E-03 1.23173E-02-2.25939E-03 5.53179E-03 8.63538E-03-2.14893E-03 2.99592E-03 2.61247E-03-8.89400E-04



 n o d a l   p r i n t   o u t   f o r   t i m e  s t e p   15802                              ( at time 7.8997094E+00 )

 nodal point  x-disp     y-disp      z-disp      x-vel       y-vel       z-vel      x-accl      y-accl      z-accl      x-coor      y-coor      z-coor
    22626  2.46541E-01 1.95245E-01-2.31318E+01 1.89929E-01 1.63111E-01-1.76492E+00 5.02180E-02-7.84715E-03 6.84100E-01 4.82107E+01-2.18345E+01-1.57933E+01



 n o d a l   p r i n t   o u t   f o r   t i m e  s t e p   15802                              ( at time 7.8997094E+00 )

 nodal point  x-rot      y-rot       z-rot       x-rot vel   y-rot vel   z-rot vel   x-rot acc   y-rot acc   z-rot acc
    22626  7.30427E-03 1.31940E-02-2.47579E-03 5.83441E-03 8.88841E-03-2.21523E-03 3.02656E-03 2.53050E-03-6.63076E-04



 n o d a l   p r i n t   o u t   f o r   t i m e  s t e p   16002                              ( at time 7.9996994E+00 )

 nodal point  x-disp     y-disp      z-disp      x-vel       y-vel       z-vel      x-accl      y-accl      z-accl      x-coor      y-coor      z-coor
    22626  2.65763E-01 2.11505E-01-2.33048E+01 1.94658E-01 1.62295E-01-1.69449E+00 4.72999E-02-8.15992E-03 7.04358E-01 4.82299E+01-2.18183E+01-1.59663E+01



 n o d a l   p r i n t   o u t   f o r   t i m e  s t e p   16002                              ( at time 7.9996994E+00 )

 nodal point  x-rot      y-rot       z-rot       x-rot vel   y-rot vel   z-rot vel   x-rot acc   y-rot acc   z-rot acc
    22626  7.90259E-03 1.40969E-02-2.70052E-03 6.15117E-03 9.16127E-03-2.29250E-03 3.16791E-03 2.72886E-03-7.72788E-04



 n o d a l   p r i n t   o u t   f o r   t i m e  s t e p   16202                              ( at time 8.0996894E+00 )

 nodal point  x-disp     y-disp      z-disp      x-vel       y-vel       z-vel      x-accl      y-accl      z-accl      x-coor      y-coor      z-coor
    22626  2.85498E-01 2.27593E-01-2.34707E+01 2.00032E-01 1.60568E-01-1.62315E+00 5.37447E-02-1.72759E-02 7.13422E-01 4.82497E+01-2.18022E+01-1.61322E+01



 n o d a l   p r i n t   o u t   f o r   t i m e  s t e p   16202                              ( at time 8.0996894E+00 )

 nodal point  x-rot      y-rot       z-rot       x-rot vel   y-rot vel   z-rot vel   x-rot acc   y-rot acc   z-rot acc
    22626  8.53332E-03 1.50241E-02-2.93131E-03 6.45658E-03 9.36478E-03-2.34563E-03 3.05436E-03 2.03531E-03-5.31359E-04



 n o d a l   p r i n t   o u t   f o r   t i m e  s t e p   16402                              ( at time 8.1996794E+00 )

 nodal point  x-disp     y-disp      z-disp      x-vel       y-vel       z-vel      x-accl      y-accl      z-accl      x-coor      y-coor      z-coor
    22626  3.05815E-01 2.43409E-01-2.36294E+01 2.04350E-01 1.56347E-01-1.55111E+00 4.31836E-02-4.22111E-02 7.20493E-01 4.82700E+01-2.17864E+01-1.62909E+01



 n o d a l   p r i n t   o u t   f o r   t i m e  s t e p   16402                              ( at time 8.1996794E+00 )

 nodal point  x-rot      y-rot       z-rot       x-rot vel   y-rot vel   z-rot vel   x-rot acc   y-rot acc   z-rot acc
    22626  9.19683E-03 1.59706E-02-3.16740E-03 6.81759E-03 9.58220E-03-2.39630E-03 3.61052E-03 2.17444E-03-5.06707E-04



 n o d a l   p r i n t   o u t   f o r   t i m e  s t e p   16602                              ( at time 8.2996694E+00 )

 nodal point  x-disp     y-disp      z-disp      x-vel       y-vel       z-vel      x-accl      y-accl      z-accl      x-coor      y-coor      z-coor
    22626  3.26541E-01 2.58796E-01-2.37809E+01 2.09970E-01 1.50945E-01-1.48079E+00 5.62030E-02-5.40316E-02 7.03272E-01 4.82907E+01-2.17710E+01-1.64424E+01



 n o d a l   p r i n t   o u t   f o r   t i m e  s t e p   16602                              ( at time 8.2996694E+00 )

 nodal point  x-rot      y-rot       z-rot       x-rot vel   y-rot vel   z-rot vel   x-rot acc   y-rot acc   z-rot acc
    22626  9.89438E-03 1.69382E-02-3.40997E-03 7.12915E-03 9.74924E-03-2.46407E-03 3.11590E-03 1.67056E-03-6.77850E-04



 n o d a l   p r i n t   o u t   f o r   t i m e  s t e p   16802                              ( at time 8.3996594E+00 )

 nodal point  x-disp     y-disp      z-disp      x-vel       y-vel       z-vel      x-accl      y-accl      z-accl      x-coor      y-coor      z-coor
    22626  3.47694E-01 2.73533E-01-2.39252E+01 2.13590E-01 1.42991E-01-1.40654E+00 3.62039E-02-7.95399E-02 7.42603E-01 4.83119E+01-2.17563E+01-1.65867E+01



 n o d a l   p r i n t   o u t   f o r   t i m e  s t e p   16802                              ( at time 8.3996594E+00 )

 nodal point  x-rot      y-rot       z-rot       x-rot vel   y-rot vel   z-rot vel   x-rot acc   y-rot acc   z-rot acc
    22626  1.06257E-02 1.79235E-02-3.65895E-03 7.50434E-03 9.92921E-03-2.51901E-03 3.75228E-03 1.79993E-03-5.49450E-04



 n o d a l   p r i n t   o u t   f o r   t i m e  s t e p   17002                              ( at time 8.4996494E+00 )

 nodal point  x-disp     y-disp      z-disp      x-vel       y-vel       z-vel      x-accl      y-accl      z-accl      x-coor      y-coor      z-coor
    22626  3.69384E-01 2.87638E-01-2.40621E+01 2.20252E-01 1.39078E-01-1.33132E+00 6.66270E-02-3.91402E-02 7.52271E-01 4.83336E+01-2.17422E+01-1.67236E+01



 n o d a l   p r i n t   o u t   f o r   t i m e  s t e p   17002                              ( at time 8.4996494E+00 )

 nodal point  x-rot      y-rot       z-rot       x-rot vel   y-rot vel   z-rot vel   x-rot acc   y-rot acc   z-rot acc
    22626  1.13957E-02 1.89208E-02-3.91425E-03 7.87546E-03 1.00281E-02-2.57771E-03 3.71158E-03 9.88988E-04-5.87042E-04



 n o d a l   p r i n t   o u t   f o r   t i m e  s t e p   17202                              ( at time 8.5996394E+00 )

 nodal point  x-disp     y-disp      z-disp      x-vel       y-vel       z-vel      x-accl      y-accl      z-accl      x-coor      y-coor      z-coor
    22626  3.91648E-01 3.01098E-01-2.41916E+01 2.24932E-01 1.31100E-01-1.25735E+00 4.68088E-02-7.97875E-02 7.39802E-01 4.83558E+01-2.17287E+01-1.68531E+01



 n o d a l   p r i n t   o u t   f o r   t i m e  s t e p   17202                              ( at time 8.5996394E+00 )

 nodal point  x-rot      y-rot       z-rot       x-rot vel   y-rot vel   z-rot vel   x-rot acc   y-rot acc   z-rot acc
    22626  1.22047E-02 1.99284E-02-4.17449E-03 8.29125E-03 1.01405E-02-2.63512E-03 4.15827E-03 1.12388E-03-5.74102E-04



 n o d a l   p r i n t   o u t   f o r   t i m e  s t e p   17402                              ( at time 8.6996293E+00 )

 nodal point  x-disp     y-disp      z-disp      x-vel       y-vel       z-vel      x-accl      y-accl      z-accl      x-coor      y-coor      z-coor
    22626  4.14582E-01 3.13932E-01-2.43135E+01 2.33544E-01 1.26203E-01-1.18444E+00 8.61235E-02-4.89728E-02 7.29158E-01 4.83788E+01-2.17159E+01-1.69750E+01



 n o d a l   p r i n t   o u t   f o r   t i m e  s t e p   17402                              ( at time 8.6996293E+00 )

 nodal point  x-rot      y-rot       z-rot       x-rot vel   y-rot vel   z-rot vel   x-rot acc   y-rot acc   z-rot acc
    22626  1.30539E-02 2.09491E-02-4.44060E-03 8.71618E-03 1.02382E-02-2.69378E-03 4.24969E-03 9.77699E-04-5.86652E-04



 n o d a l   p r i n t   o u t   f o r   t i m e  s t e p   17602                              ( at time 8.7996193E+00 )

 nodal point  x-disp     y-disp      z-disp      x-vel       y-vel       z-vel      x-accl      y-accl      z-accl      x-coor      y-coor      z-coor
    22626  4.38184E-01 3.26223E-01-2.44284E+01 2.39020E-01 1.20452E-01-1.11302E+00 5.47703E-02-5.75106E-02 7.14217E-01 4.84024E+01-2.17036E+01-1.70899E+01



 n o d a l   p r i n t   o u t   f o r   t i m e  s t e p   17602                              ( at time 8.7996193E+00 )

 nodal point  x-rot      y-rot       z-rot       x-rot vel   y-rot vel   z-rot vel   x-rot acc   y-rot acc   z-rot acc
    22626  1.39432E-02 2.19776E-02-4.71123E-03 9.08532E-03 1.03240E-02-2.72417E-03 3.69177E-03 8.58170E-04-3.03931E-04



 n o d a l   p r i n t   o u t   f o r   t i m e  s t e p   17802                              ( at time 8.8996093E+00 )

 nodal point  x-disp     y-disp      z-disp      x-vel       y-vel       z-vel      x-accl      y-accl      z-accl      x-coor      y-coor      z-coor
    22626  4.62463E-01 3.38106E-01-2.45360E+01 2.47196E-01 1.15964E-01-1.04060E+00 8.17685E-02-4.48929E-02 7.24313E-01 4.84266E+01-2.16917E+01-1.71975E+01



 n o d a l   p r i n t   o u t   f o r   t i m e  s t e p   17802                              ( at time 8.8996093E+00 )

 nodal point  x-rot      y-rot       z-rot       x-rot vel   y-rot vel   z-rot vel   x-rot acc   y-rot acc   z-rot acc
    22626  1.48704E-02 2.30141E-02-4.98656E-03 9.48147E-03 1.04166E-02-2.76188E-03 3.96197E-03 9.25865E-04-3.77168E-04



 n o d a l   p r i n t   o u t   f o r   t i m e  s t e p   18002                              ( at time 8.9995993E+00 )

 nodal point  x-disp     y-disp      z-disp      x-vel       y-vel       z-vel      x-accl      y-accl      z-accl      x-coor      y-coor      z-coor
    22626  4.87523E-01 3.49453E-01-2.46365E+01 2.55659E-01 1.12259E-01-9.70793E-01 8.46394E-02-3.70451E-02 6.98132E-01 4.84517E+01-2.16803E+01-1.72980E+01



 n o d a l   p r i n t   o u t   f o r   t i m e  s t e p   18002                              ( at time 8.9995993E+00 )

 nodal point  x-rot      y-rot       z-rot       x-rot vel   y-rot vel   z-rot vel   x-rot acc   y-rot acc   z-rot acc
    22626  1.58404E-02 2.40596E-02-5.26492E-03 9.90465E-03 1.04816E-02-2.80137E-03 4.23222E-03 6.49952E-04-3.94953E-04



 n o d a l   p r i n t   o u t   f o r   t i m e  s t e p   18202                              ( at time 9.0995893E+00 )

 nodal point  x-disp     y-disp      z-disp      x-vel       y-vel       z-vel      x-accl      y-accl      z-accl      x-coor      y-coor      z-coor
    22626  5.13473E-01 3.60523E-01-2.47303E+01 2.62457E-01 1.07748E-01-9.04984E-01 6.79788E-02-4.51179E-02 6.58157E-01 4.84777E+01-2.16693E+01-1.73918E+01



 n o d a l   p r i n t   o u t   f o r   t i m e  s t e p   18202                              ( at time 9.0995893E+00 )

 nodal point  x-rot      y-rot       z-rot       x-rot vel   y-rot vel   z-rot vel   x-rot acc   y-rot acc   z-rot acc
    22626  1.68494E-02 2.51123E-02-5.54862E-03 1.02845E-02 1.05714E-02-2.84572E-03 3.79914E-03 8.98398E-04-4.43576E-04



 n o d a l   p r i n t   o u t   f o r   t i m e  s t e p   18402                              ( at time 9.1995793E+00 )

 nodal point  x-disp     y-disp      z-disp      x-vel       y-vel       z-vel      x-accl      y-accl      z-accl      x-coor      y-coor      z-coor
    22626  5.40063E-01 3.71176E-01-2.48173E+01 2.70390E-01 1.06458E-01-8.36644E-01 7.93475E-02-1.29012E-02 6.83468E-01 4.85042E+01-2.16586E+01-1.74788E+01



 n o d a l   p r i n t   o u t   f o r   t i m e  s t e p   18402                              ( at time 9.1995793E+00 )

 nodal point  x-rot      y-rot       z-rot       x-rot vel   y-rot vel   z-rot vel   x-rot acc   y-rot acc   z-rot acc
    22626  1.78997E-02 2.61738E-02-5.83541E-03 1.07142E-02 1.06308E-02-2.86755E-03 4.29756E-03 5.93527E-04-2.18259E-04



 n o d a l   p r i n t   o u t   f o r   t i m e  s t e p   18602                              ( at time 9.2995693E+00 )

 nodal point  x-disp     y-disp      z-disp      x-vel       y-vel       z-vel      x-accl      y-accl      z-accl      x-coor      y-coor      z-coor
    22626  5.67527E-01 3.81718E-01-2.48976E+01 2.78374E-01 1.04885E-01-7.67706E-01 7.98458E-02-1.57303E-02 6.89446E-01 4.85317E+01-2.16481E+01-1.75591E+01



 n o d a l   p r i n t   o u t   f o r   t i m e  s t e p   18602                              ( at time 9.2995693E+00 )

 nodal point  x-rot      y-rot       z-rot       x-rot vel   y-rot vel   z-rot vel   x-rot acc   y-rot acc   z-rot acc
    22626  1.89907E-02 2.72399E-02-6.12514E-03 1.11318E-02 1.06896E-02-2.93870E-03 4.17632E-03 5.88525E-04-7.11619E-04



 n o d a l   p r i n t   o u t   f o r   t i m e  s t e p   18802                              ( at time 9.3995593E+00 )

 nodal point  x-disp     y-disp      z-disp      x-vel       y-vel       z-vel      x-accl      y-accl      z-accl      x-coor      y-coor      z-coor
    22626  5.95791E-01 3.92007E-01-2.49711E+01 2.86937E-01 1.02077E-01-7.02572E-01 8.56373E-02-2.80878E-02 6.51406E-01 4.85600E+01-2.16378E+01-1.76326E+01



 n o d a l   p r i n t   o u t   f o r   t i m e  s t e p   18802                              ( at time 9.3995593E+00 )

 nodal point  x-rot      y-rot       z-rot       x-rot vel   y-rot vel   z-rot vel   x-rot acc   y-rot acc   z-rot acc
    22626  2.01233E-02 2.83091E-02-6.42119E-03 1.15214E-02 1.07138E-02-2.98588E-03 3.89649E-03 2.41321E-04-4.71811E-04



 n o d a l   p r i n t   o u t   f o r   t i m e  s t e p   19002                              ( at time 9.4995493E+00 )

 nodal point  x-disp     y-disp      z-disp      x-vel       y-vel       z-vel      x-accl      y-accl      z-accl      x-coor      y-coor      z-coor
    22626  6.24876E-01 4.02163E-01-2.50381E+01 2.95112E-01 9.92623E-02-6.36973E-01 8.17536E-02-2.81479E-02 6.56058E-01 4.85891E+01-2.16276E+01-1.76996E+01



 n o d a l   p r i n t   o u t   f o r   t i m e  s t e p   19002                              ( at time 9.4995493E+00 )

 nodal point  x-rot      y-rot       z-rot       x-rot vel   y-rot vel   z-rot vel   x-rot acc   y-rot acc   z-rot acc
    22626  2.12932E-02 2.93850E-02-6.71841E-03 1.18766E-02 1.07938E-02-2.99805E-03 3.55205E-03 8.00236E-04-1.21706E-04



 n o d a l   p r i n t   o u t   f o r   t i m e  s t e p   19202                              ( at time 9.5995393E+00 )

 nodal point  x-disp     y-disp      z-disp      x-vel       y-vel       z-vel      x-accl      y-accl      z-accl      x-coor      y-coor      z-coor
    22626  6.54738E-01 4.12231E-01-2.50983E+01 3.03587E-01 1.01444E-01-5.69892E-01 8.47569E-02 2.18201E-02 6.70872E-01 4.86189E+01-2.16176E+01-1.77598E+01



 n o d a l   p r i n t   o u t   f o r   t i m e  s t e p   19202                              ( at time 9.5995393E+00 )

 nodal point  x-rot      y-rot       z-rot       x-rot vel   y-rot vel   z-rot vel   x-rot acc   y-rot acc   z-rot acc
    22626  2.25047E-02 3.04654E-02-7.02148E-03 1.23356E-02 1.08043E-02-3.06401E-03 4.58989E-03 1.05007E-04-6.59637E-04



 n o d a l   p r i n t   o u t   f o r   t i m e  s t e p   19402                              ( at time 9.6995293E+00 )

 nodal point  x-disp     y-disp      z-disp      x-vel       y-vel       z-vel      x-accl      y-accl      z-accl      x-coor      y-coor      z-coor
    22626  6.85480E-01 4.22243E-01-2.51519E+01 3.10898E-01 1.00049E-01-5.02437E-01 7.31262E-02-1.39550E-02 6.74618E-01 4.86497E+01-2.16075E+01-1.78134E+01



 n o d a l   p r i n t   o u t   f o r   t i m e  s t e p   19402                              ( at time 9.6995293E+00 )

 nodal point  x-rot      y-rot       z-rot       x-rot vel   y-rot vel   z-rot vel   x-rot acc   y-rot acc   z-rot acc
    22626  2.37566E-02 3.15446E-02-7.32688E-03 1.26920E-02 1.08088E-02-3.10719E-03 3.56521E-03 4.56208E-05-4.31882E-04



 n o d a l   p r i n t   o u t   f o r   t i m e  s t e p   19602                              ( at time 9.7995193E+00 )

 nodal point  x-disp     y-disp      z-disp      x-vel       y-vel       z-vel      x-accl      y-accl      z-accl      x-coor      y-coor      z-coor
    22626  7.16911E-01 4.32203E-01-2.51991E+01 3.17231E-01 9.84659E-02-4.44207E-01 6.33331E-02-1.58303E-02 5.82361E-01 4.86811E+01-2.15976E+01-1.78606E+01



 n o d a l   p r i n t   o u t   f o r   t i m e  s t e p   19602                              ( at time 9.7995193E+00 )

 nodal point  x-rot      y-rot       z-rot       x-rot vel   y-rot vel   z-rot vel   x-rot acc   y-rot acc   z-rot acc
    22626  2.50464E-02 3.26289E-02-7.63759E-03 1.30955E-02 1.08535E-02-3.13222E-03 4.03458E-03 4.46381E-04-2.50286E-04



 n o d a l   p r i n t   o u t   f o r   t i m e  s t e p   19802                              ( at time 9.8995093E+00 )

 nodal point  x-disp     y-disp      z-disp      x-vel       y-vel       z-vel      x-accl      y-accl      z-accl      x-coor      y-coor      z-coor
    22626  7.48874E-01 4.42238E-01-2.52402E+01 3.24132E-01 1.02164E-01-3.79916E-01 6.90181E-02 3.69883E-02 6.42976E-01 4.87131E+01-2.15876E+01-1.79017E+01



 n o d a l   p r i n t   o u t   f o r   t i m e  s t e p   19802                              ( at time 9.8995093E+00 )

 nodal point  x-rot      y-rot       z-rot       x-rot vel   y-rot vel   z-rot vel   x-rot acc   y-rot acc   z-rot acc
    22626  2.63767E-02 3.37159E-02-7.95162E-03 1.35128E-02 1.08587E-02-3.16947E-03 4.17423E-03 5.24388E-05-3.72590E-04



 n o d a l   p r i n t   o u t   f o r   t i m e  s t e p   20003                              ( at time 9.9999992E+00 )

 nodal point  x-disp     y-disp      z-disp      x-vel       y-vel       z-vel      x-accl      y-accl      z-accl      x-coor      y-coor      z-coor
[...]
    22626  2.55983E-01 1.57071E-01-6.92211E-02 1.82980E-02 8.81804E-03-6.06464E-03-6.00572E-05 1.72851E-04 3.13414E-04



 n o d a l   p r i n t   o u t   f o r   t i m e  s t e p   45205                              ( at time 2.2599738E+01 )

 nodal point  x-disp     y-disp      z-disp      x-vel       y-vel       z-vel      x-accl      y-accl      z-accl      x-coor      y-coor      z-coor
    22626  4.49421E+00 1.14235E+00-1.98064E+01 2.33335E-01-2.20579E-03 5.29490E-01 1.43966E-02-1.91751E-02-4.46778E-03 5.24584E+01-2.08874E+01-1.24679E+01



 n o d a l   p r i n t   o u t   f o r   t i m e  s t e p   45205                              ( at time 2.2599738E+01 )

 nodal point  x-rot      y-rot       z-rot       x-rot vel   y-rot vel   z-rot vel   x-rot acc   y-rot acc   z-rot acc
    22626  2.57814E-01 1.57953E-01-6.98254E-02 1.83054E-02 8.81971E-03-6.01901E-03 7.43077E-05 1.66722E-05 4.56339E-04



 n o d a l   p r i n t   o u t   f o r   t i m e  s t e p   45405                              ( at time 2.2699728E+01 )

 nodal point  x-disp     y-disp      z-disp      x-vel       y-vel       z-vel      x-accl      y-accl      z-accl      x-coor      y-coor      z-coor
    22626  4.51760E+00 1.14199E+00-1.97535E+01 2.34620E-01-5.31290E-03 5.28317E-01 1.28599E-02-3.10746E-02-1.17297E-02 5.24818E+01-2.08878E+01-1.24150E+01



 n o d a l   p r i n t   o u t   f o r   t i m e  s t e p   45405                              ( at time 2.2699728E+01 )

 nodal point  x-rot      y-rot       z-rot       x-rot vel   y-rot vel   z-rot vel   x-rot acc   y-rot acc   z-rot acc
    22626  2.59644E-01 1.58835E-01-7.04256E-02 1.82998E-02 8.81677E-03-5.98435E-03-5.60159E-05-2.93678E-05 3.46653E-04



 n o d a l   p r i n t   o u t   f o r   t i m e  s t e p   45605                              ( at time 2.2799718E+01 )

 nodal point  x-disp     y-disp      z-disp      x-vel       y-vel       z-vel      x-accl      y-accl      z-accl      x-coor      y-coor      z-coor
    22626  4.54115E+00 1.14130E+00-1.97008E+01 2.36985E-01-8.50841E-03 5.25941E-01 2.36435E-02-3.19581E-02-2.37600E-02 5.25053E+01-2.08885E+01-1.23623E+01



 n o d a l   p r i n t   o u t   f o r   t i m e  s t e p   45605                              ( at time 2.2799718E+01 )

 nodal point  x-rot      y-rot       z-rot       x-rot vel   y-rot vel   z-rot vel   x-rot acc   y-rot acc   z-rot acc
    22626  2.61473E-01 1.59716E-01-7.10216E-02 1.82967E-02 8.81645E-03-5.93617E-03-3.07178E-05-3.15747E-06 4.81813E-04



 n o d a l   p r i n t   o u t   f o r   t i m e  s t e p   45805                              ( at time 2.2899708E+01 )

 nodal point  x-disp     y-disp      z-disp      x-vel       y-vel       z-vel      x-accl      y-accl      z-accl      x-coor      y-coor      z-coor
    22626  4.56492E+00 1.14026E+00-1.96484E+01 2.38592E-01-1.24151E-02 5.21730E-01 1.60733E-02-3.90708E-02-4.21183E-02 5.25291E+01-2.08895E+01-1.23099E+01



 n o d a l   p r i n t   o u t   f o r   t i m e  s t e p   45805                              ( at time 2.2899708E+01 )

 nodal point  x-rot      y-rot       z-rot       x-rot vel   y-rot vel   z-rot vel   x-rot acc   y-rot acc   z-rot acc
    22626  2.63301E-01 1.60596E-01-7.16126E-02 1.82537E-02 8.78848E-03-5.89111E-03-4.30058E-04-2.79772E-04 4.50675E-04



 n o d a l   p r i n t   o u t   f o r   t i m e  s t e p   46005                              ( at time 2.2999698E+01 )

 nodal point  x-disp     y-disp      z-disp      x-vel       y-vel       z-vel      x-accl      y-accl      z-accl      x-coor      y-coor      z-coor
    22626  4.58884E+00 1.13876E+00-1.95965E+01 2.39980E-01-1.76031E-02 5.16469E-01 1.38856E-02-5.18850E-02-5.26071E-02 5.25530E+01-2.08910E+01-1.22580E+01



 n o d a l   p r i n t   o u t   f o r   t i m e  s t e p   46005                              ( at time 2.2999698E+01 )

 nodal point  x-rot      y-rot       z-rot       x-rot vel   y-rot vel   z-rot vel   x-rot acc   y-rot acc   z-rot acc
    22626  2.65126E-01 1.61474E-01-7.21991E-02 1.82314E-02 8.75783E-03-5.84568E-03-2.23426E-04-3.06554E-04 4.54331E-04



 n o d a l   p r i n t   o u t   f o r   t i m e  s t e p   46205                              ( at time 2.3099688E+01 )

 nodal point  x-disp     y-disp      z-disp      x-vel       y-vel       z-vel      x-accl      y-accl      z-accl      x-coor      y-coor      z-coor
    22626  4.61297E+00 1.13673E+00-1.95451E+01 2.42409E-01-2.31742E-02 5.09791E-01 2.42919E-02-5.57170E-02-6.67866E-02 5.25772E+01-2.08931E+01-1.22066E+01



 n o d a l   p r i n t   o u t   f o r   t i m e  s t e p   46205                              ( at time 2.3099688E+01 )

 nodal point  x-rot      y-rot       z-rot       x-rot vel   y-rot vel   z-rot vel   x-rot acc   y-rot acc   z-rot acc
    22626  2.66945E-01 1.62348E-01-7.27805E-02 1.81677E-02 8.71673E-03-5.78547E-03-6.36685E-04-4.11038E-04 6.02171E-04



 n o d a l   p r i n t   o u t   f o r   t i m e  s t e p   46405                              ( at time 2.3199678E+01 )

 nodal point  x-disp     y-disp      z-disp      x-vel       y-vel       z-vel      x-accl      y-accl      z-accl      x-coor      y-coor      z-coor
    22626  4.63734E+00 1.13413E+00-1.94946E+01 2.44944E-01-2.91917E-02 5.01297E-01 2.53474E-02-6.01805E-02-8.49486E-02 5.26015E+01-2.08957E+01-1.21561E+01



 n o d a l   p r i n t   o u t   f o r   t i m e  s t e p   46405                              ( at time 2.3199678E+01 )

 nodal point  x-rot      y-rot       z-rot       x-rot vel   y-rot vel   z-rot vel   x-rot acc   y-rot acc   z-rot acc
    22626  2.68758E-01 1.63217E-01-7.33567E-02 1.80940E-02 8.65727E-03-5.73705E-03-7.37098E-04-5.94611E-04 4.84258E-04



 n o d a l   p r i n t   o u t   f o r   t i m e  s t e p   46605                              ( at time 2.3299668E+01 )

 nodal point  x-disp     y-disp      z-disp      x-vel       y-vel       z-vel      x-accl      y-accl      z-accl      x-coor      y-coor      z-coor
    22626  4.66195E+00 1.13090E+00-1.94449E+01 2.47358E-01-3.55075E-02 4.92045E-01 2.41491E-02-6.31657E-02-9.25378E-02 5.26261E+01-2.08989E+01-1.21064E+01



 n o d a l   p r i n t   o u t   f o r   t i m e  s t e p   46605                              ( at time 2.3299668E+01 )

 nodal point  x-rot      y-rot       z-rot       x-rot vel   y-rot vel   z-rot vel   x-rot acc   y-rot acc   z-rot acc
    22626  2.70563E-01 1.64080E-01-7.39272E-02 1.79990E-02 8.59772E-03-5.67638E-03-9.50240E-04-5.95563E-04 6.06717E-04



 n o d a l   p r i n t   o u t   f o r   t i m e  s t e p   46805                              ( at time 2.3399658E+01 )

 nodal point  x-disp     y-disp      z-disp      x-vel       y-vel       z-vel      x-accl      y-accl      z-accl      x-coor      y-coor      z-coor
    22626  4.68685E+00 1.12699E+00-1.93962E+01 2.50738E-01-4.24564E-02 4.82605E-01 3.37986E-02-6.94954E-02-9.44018E-02 5.26510E+01-2.09028E+01-1.20577E+01



 n o d a l   p r i n t   o u t   f o r   t i m e  s t e p   46805                              ( at time 2.3399658E+01 )

 nodal point  x-rot      y-rot       z-rot       x-rot vel   y-rot vel   z-rot vel   x-rot acc   y-rot acc   z-rot acc
    22626  2.72357E-01 1.64936E-01-7.44912E-02 1.78895E-02 8.52291E-03-5.61301E-03-1.09547E-03-7.48209E-04 6.33800E-04



 n o d a l   p r i n t   o u t   f o r   t i m e  s t e p   47005                              ( at time 2.3499648E+01 )

 nodal point  x-disp     y-disp      z-disp      x-vel       y-vel       z-vel      x-accl      y-accl      z-accl      x-coor      y-coor      z-coor
    22626  4.71208E+00 1.12244E+00-1.93485E+01 2.53589E-01-4.85605E-02 4.71218E-01 2.85190E-02-6.10460E-02-1.13881E-01 5.26763E+01-2.09074E+01-1.20100E+01



 n o d a l   p r i n t   o u t   f o r   t i m e  s t e p   47005                              ( at time 2.3499648E+01 )

 nodal point  x-rot      y-rot       z-rot       x-rot vel   y-rot vel   z-rot vel   x-rot acc   y-rot acc   z-rot acc
    22626  2.74140E-01 1.65783E-01-7.50492E-02 1.77761E-02 8.43978E-03-5.55181E-03-1.13416E-03-8.31319E-04 6.12033E-04



 n o d a l   p r i n t   o u t   f o r   t i m e  s t e p   47205                              ( at time 2.3599638E+01 )

 nodal point  x-disp     y-disp      z-disp      x-vel       y-vel       z-vel      x-accl      y-accl      z-accl      x-coor      y-coor      z-coor
    22626  4.73757E+00 1.11726E+00-1.93019E+01 2.56384E-01-5.49379E-02 4.60362E-01 2.79526E-02-6.37814E-02-1.08571E-01 5.27017E+01-2.09125E+01-1.19634E+01



 n o d a l   p r i n t   o u t   f o r   t i m e  s t e p   47205                              ( at time 2.3599638E+01 )

 nodal point  x-rot      y-rot       z-rot       x-rot vel   y-rot vel   z-rot vel   x-rot acc   y-rot acc   z-rot acc
    22626  2.75912E-01 1.66623E-01-7.56010E-02 1.76548E-02 8.34443E-03-5.49324E-03-1.21283E-03-9.53640E-04 5.85815E-04



 n o d a l   p r i n t   o u t   f o r   t i m e  s t e p   47405                              ( at time 2.3699628E+01 )

 nodal point  x-disp     y-disp      z-disp      x-vel       y-vel       z-vel      x-accl      y-accl      z-accl      x-coor      y-coor      z-coor
    22626  4.76332E+00 1.11147E+00-1.92564E+01 2.59000E-01-6.07590E-02 4.49240E-01 2.61614E-02-5.82159E-02-1.11232E-01 5.27275E+01-2.09183E+01-1.19179E+01



 n o d a l   p r i n t   o u t   f o r   t i m e  s t e p   47405                              ( at time 2.3699628E+01 )

 nodal point  x-rot      y-rot       z-rot       x-rot vel   y-rot vel   z-rot vel   x-rot acc   y-rot acc   z-rot acc
    22626  2.77670E-01 1.67453E-01-7.61469E-02 1.75257E-02 8.26098E-03-5.42870E-03-1.29073E-03-8.34588E-04 6.45405E-04



 n o d a l   p r i n t   o u t   f o r   t i m e  s t e p   47605                              ( at time 2.3799618E+01 )

 nodal point  x-disp     y-disp      z-disp      x-vel       y-vel       z-vel      x-accl      y-accl      z-accl      x-coor      y-coor      z-coor
    22626  4.78936E+00 1.10518E+00-1.92121E+01 2.61873E-01-6.51884E-02 4.38228E-01 2.87270E-02-4.42990E-02-1.10132E-01 5.27535E+01-2.09246E+01-1.18736E+01



 n o d a l   p r i n t   o u t   f o r   t i m e  s t e p   47605                              ( at time 2.3799618E+01 )

 nodal point  x-rot      y-rot       z-rot       x-rot vel   y-rot vel   z-rot vel   x-rot acc   y-rot acc   z-rot acc
    22626  2.79416E-01 1.68274E-01-7.66864E-02 1.73936E-02 8.16576E-03-5.36467E-03-1.32173E-03-9.52280E-04 6.40411E-04



 n o d a l   p r i n t   o u t   f o r   t i m e  s t e p   47805                              ( at time 2.3899608E+01 )

 nodal point  x-disp     y-disp      z-disp      x-vel       y-vel       z-vel      x-accl      y-accl      z-accl      x-coor      y-coor      z-coor
    22626  4.81564E+00 1.09844E+00-1.91688E+01 2.63726E-01-6.91686E-02 4.27687E-01 1.85313E-02-3.98055E-02-1.05421E-01 5.27798E+01-2.09313E+01-1.18303E+01



 n o d a l   p r i n t   o u t   f o r   t i m e  s t e p   47805                              ( at time 2.3899608E+01 )

 nodal point  x-rot      y-rot       z-rot       x-rot vel   y-rot vel   z-rot vel   x-rot acc   y-rot acc   z-rot acc
    22626  2.81149E-01 1.69086E-01-7.72196E-02 1.72627E-02 8.07703E-03-5.29869E-03-1.30902E-03-8.87380E-04 6.59865E-04



 n o d a l   p r i n t   o u t   f o r   t i m e  s t e p   48005                              ( at time 2.3999598E+01 )

 nodal point  x-disp     y-disp      z-disp      x-vel       y-vel       z-vel      x-accl      y-accl      z-accl      x-coor      y-coor      z-coor
    22626  4.84216E+00 1.09143E+00-1.91265E+01 2.66623E-01-7.12828E-02 4.18106E-01 2.89770E-02-2.11449E-02-9.58188E-02 5.28063E+01-2.09384E+01-1.17880E+01



 n o d a l   p r i n t   o u t   f o r   t i m e  s t e p   48005                              ( at time 2.3999598E+01 )

 nodal point  x-rot      y-rot       z-rot       x-rot vel   y-rot vel   z-rot vel   x-rot acc   y-rot acc   z-rot acc
    22626  2.82868E-01 1.69890E-01-7.77459E-02 1.71287E-02 7.99121E-03-5.23644E-03-1.33999E-03-8.58346E-04 6.22570E-04



 n o d a l   p r i n t   o u t   f o r   t i m e  s t e p   48205                              ( at time 2.4099588E+01 )

 nodal point  x-disp     y-disp      z-disp      x-vel       y-vel       z-vel      x-accl      y-accl      z-accl      x-coor      y-coor      z-coor
    22626  4.86891E+00 1.08418E+00-1.90852E+01 2.68394E-01-7.28124E-02 4.08598E-01 1.77099E-02-1.52968E-02-9.50882E-02 5.28331E+01-2.09456E+01-1.17467E+01



 n o d a l   p r i n t   o u t   f o r   t i m e  s t e p   48205                              ( at time 2.4099588E+01 )

 nodal point  x-rot      y-rot       z-rot       x-rot vel   y-rot vel   z-rot vel   x-rot acc   y-rot acc   z-rot acc
    22626  2.84574E-01 1.70685E-01-7.82661E-02 1.70015E-02 7.90648E-03-5.17189E-03-1.27230E-03-8.47339E-04 6.45526E-04



 n o d a l   p r i n t   o u t   f o r   t i m e  s t e p   48405                              ( at time 2.4199578E+01 )

 nodal point  x-disp     y-disp      z-disp      x-vel       y-vel       z-vel      x-accl      y-accl      z-accl      x-coor      y-coor      z-coor
    22626  4.89584E+00 1.07687E+00-1.90447E+01 2.69875E-01-7.34018E-02 4.00517E-01 1.48179E-02-5.89488E-03-8.08203E-02 5.28600E+01-2.09529E+01-1.17062E+01



 n o d a l   p r i n t   o u t   f o r   t i m e  s t e p   48405                              ( at time 2.4199578E+01 )

 nodal point  x-rot      y-rot       z-rot       x-rot vel   y-rot vel   z-rot vel   x-rot acc   y-rot acc   z-rot acc
    22626  2.86267E-01 1.71471E-01-7.87795E-02 1.68595E-02 7.82996E-03-5.10083E-03-1.42031E-03-7.65278E-04 7.10640E-04



 n o d a l   p r i n t   o u t   f o r   t i m e  s t e p   48605                              ( at time 2.4299568E+01 )

 nodal point  x-disp     y-disp      z-disp      x-vel       y-vel       z-vel      x-accl      y-accl      z-accl      x-coor      y-coor      z-coor
    22626  4.92292E+00 1.06955E+00-1.90051E+01 2.71762E-01-7.31501E-02 3.93599E-01 1.88651E-02 2.51726E-03-6.91918E-02 5.28871E+01-2.09602E+01-1.16666E+01



 n o d a l   p r i n t   o u t   f o r   t i m e  s t e p   48605                              ( at time 2.4299568E+01 )

 nodal point  x-rot      y-rot       z-rot       x-rot vel   y-rot vel   z-rot vel   x-rot acc   y-rot acc   z-rot acc
    22626  2.87946E-01 1.72250E-01-7.92864E-02 1.67249E-02 7.74956E-03-5.02768E-03-1.34609E-03-8.04084E-04 7.31663E-04



 n o d a l   p r i n t   o u t   f o r   t i m e  s t e p   48805                              ( at time 2.4399558E+01 )

 nodal point  x-disp     y-disp      z-disp      x-vel       y-vel       z-vel      x-accl      y-accl      z-accl      x-coor      y-coor      z-coor
    22626  4.95015E+00 1.06237E+00-1.89661E+01 2.73151E-01-7.11212E-02 3.86431E-01 1.38897E-02 2.02903E-02-7.16788E-02 5.29143E+01-2.09674E+01-1.16276E+01



 n o d a l   p r i n t   o u t   f o r   t i m e  s t e p   48805                              ( at time 2.4399558E+01 )

 nodal point  x-rot      y-rot       z-rot       x-rot vel   y-rot vel   z-rot vel   x-rot acc   y-rot acc   z-rot acc
    22626  2.89612E-01 1.73021E-01-7.97868E-02 1.65933E-02 7.67190E-03-4.96785E-03-1.31560E-03-7.76715E-04 5.98341E-04



 n o d a l   p r i n t   o u t   f o r   t i m e  s t e p   49006                              ( at time 2.4500048E+01 )

 nodal point  x-disp     y-disp      z-disp      x-vel       y-vel       z-vel      x-accl      y-accl      z-accl      x-coor      y-coor      z-coor
    22626  4.97764E+00 1.05535E+00-1.89275E+01 2.73992E-01-6.83331E-02 3.81534E-01 8.37792E-03 2.77461E-02-4.87360E-02 5.29418E+01-2.09744E+01-1.15890E+01



 n o d a l   p r i n t   o u t   f o r   t i m e  s t e p   49006                              ( at time 2.4500048E+01 )

 nodal point  x-rot      y-rot       z-rot       x-rot vel   y-rot vel   z-rot vel   x-rot acc   y-rot acc   z-rot acc
    22626  2.91271E-01 1.73789E-01-8.02823E-02 1.64434E-02 7.60216E-03-4.89542E-03-1.49227E-03-6.93932E-04 7.20740E-04



 n o d a l   p r i n t   o u t   f o r   t i m e  s t e p   49206                              ( at time 2.4600038E+01 )

 nodal point  x-disp     y-disp      z-disp      x-vel       y-vel       z-vel      x-accl      y-accl      z-accl      x-coor      y-coor      z-coor
    22626  5.00506E+00 1.04866E+00-1.88896E+01 2.75241E-01-6.58710E-02 3.77547E-01 1.24856E-02 2.46233E-02-3.98726E-02 5.29692E+01-2.09811E+01-1.15511E+01



 n o d a l   p r i n t   o u t   f o r   t i m e  s t e p   49206                              ( at time 2.4600038E+01 )

 nodal point  x-rot      y-rot       z-rot       x-rot vel   y-rot vel   z-rot vel   x-rot acc   y-rot acc   z-rot acc
    22626  2.92909E-01 1.74544E-01-8.07692E-02 1.63114E-02 7.52442E-03-4.82561E-03-1.32023E-03-7.77521E-04 6.98151E-04



 n o d a l   p r i n t   o u t   f o r   t i m e  s t e p   49406                              ( at time 2.4700028E+01 )

 nodal point  x-disp     y-disp      z-disp      x-vel       y-vel       z-vel      x-accl      y-accl      z-accl      x-coor      y-coor      z-coor
    22626  5.03259E+00 1.04225E+00-1.88520E+01 2.75414E-01-6.24913E-02 3.72825E-01 1.73141E-03 3.38004E-02-4.72291E-02 5.29968E+01-2.09875E+01-1.15135E+01



 n o d a l   p r i n t   o u t   f o r   t i m e  s t e p   49406                              ( at time 2.4700028E+01 )

 nodal point  x-rot      y-rot       z-rot       x-rot vel   y-rot vel   z-rot vel   x-rot acc   y-rot acc   z-rot acc
    22626  2.94533E-01 1.75293E-01-8.12494E-02 1.61806E-02 7.45324E-03-4.77474E-03-1.30752E-03-7.11903E-04 5.08801E-04



 n o d a l   p r i n t   o u t   f o r   t i m e  s t e p   49606                              ( at time 2.4800018E+01 )

 nodal point  x-disp     y-disp      z-disp      x-vel       y-vel       z-vel      x-accl      y-accl      z-accl      x-coor      y-coor      z-coor
    22626  5.06018E+00 1.03616E+00-1.88148E+01 2.76658E-01-5.91580E-02 3.71437E-01 1.24382E-02 3.33359E-02-1.38829E-02 5.30244E+01-2.09936E+01-1.14763E+01



 n o d a l   p r i n t   o u t   f o r   t i m e  s t e p   49606                              ( at time 2.4800018E+01 )

 nodal point  x-rot      y-rot       z-rot       x-rot vel   y-rot vel   z-rot vel   x-rot acc   y-rot acc   z-rot acc
    22626  2.96145E-01 1.76036E-01-8.17228E-02 1.60567E-02 7.41054E-03-4.70589E-03-1.23883E-03-4.26976E-04 6.88529E-04



 n o d a l   p r i n t   o u t   f o r   t i m e  s t e p   49806                              ( at time 2.4900008E+01 )

 nodal point  x-disp     y-disp      z-disp      x-vel       y-vel       z-vel      x-accl      y-accl      z-accl      x-coor      y-coor      z-coor
    22626  5.08785E+00 1.03042E+00-1.87779E+01 2.77024E-01-5.56761E-02 3.66867E-01 3.66520E-03 3.48227E-02-4.57051E-02 5.30520E+01-2.09994E+01-1.14394E+01



 n o d a l   p r i n t   o u t   f o r   t i m e  s t e p   49806                              ( at time 2.4900008E+01 )

 nodal point  x-rot      y-rot       z-rot       x-rot vel   y-rot vel   z-rot vel   x-rot acc   y-rot acc   z-rot acc
    22626  2.97746E-01 1.76773E-01-8.21903E-02 1.59551E-02 7.34334E-03-4.64454E-03-1.01626E-03-6.72145E-04 6.13558E-04



 n o d a l   p r i n t   o u t   f o r   t i m e  s t e p   50006                              ( at time 2.4999998E+01 )

 nodal point  x-disp     y-disp      z-disp      x-vel       y-vel       z-vel      x-accl      y-accl      z-accl      x-coor      y-coor      z-coor
    22626  5.11563E+00 1.02496E+00-1.87414E+01 2.78392E-01-5.33112E-02 3.64573E-01 1.36832E-02 2.36520E-02-2.29356E-02 5.30798E+01-2.10048E+01-1.14029E+01



 n o d a l   p r i n t   o u t   f o r   t i m e  s t e p   50006                              ( at time 2.4999998E+01 )

 nodal point  x-rot      y-rot       z-rot       x-rot vel   y-rot vel   z-rot vel   x-rot acc   y-rot acc   z-rot acc
    22626  2.99336E-01 1.77505E-01-8.26508E-02 1.58638E-02 7.29897E-03-4.58493E-03-9.13189E-04-4.43709E-04 5.96213E-04
