 LSTC 50th% Full_FE H-III Dummy (Beta Version, February 17, 2019)        
                    ls-dyna smp s R16 R16.0_619_d222963 date 03/18/2025

{BEGIN LEGEND}
 Entity #        Title
    22626                                                                                     
{END LEGEND}




 n o d a l   p r i n t   o u t   f o r   t i m e  s t e p       1                              ( at time 0.0000000E+00 )

 nodal point  x-disp     y-disp      z-disp      x-vel       y-vel       z-vel      x-accl      y-accl      z-accl      x-coor      y-coor      z-coor
    22626  0.00000E+00 0.00000E+00 0.00000E+00 0.00000E+00 0.00000E+00 0.00000E+00 0.00000E+00 0.00000E+00 0.00000E+00 4.65938E+00-2.81908E+01-4.49817E+01



 n o d a l   p r i n t   o u t   f o r   t i m e  s t e p       1                              ( at time 0.0000000E+00 )

 nodal point  x-rot      y-rot       z-rot       x-rot vel   y-rot vel   z-rot vel   x-rot acc   y-rot acc   z-rot acc
    22626  0.00000E+00 0.00000E+00 0.00000E+00 0.00000E+00 0.00000E+00 0.00000E+00 0.00000E+00 0.00000E+00 0.00000E+00



 n o d a l   p r i n t   o u t   f o r   t i m e  s t e p     201                              ( at time 9.9989993E-02 )

 nodal point  x-disp     y-disp      z-disp      x-vel       y-vel       z-vel      x-accl      y-accl      z-accl      x-coor      y-coor      z-coor
    22626  2.73585E-07 1.73664E-06-5.34276E-05 4.19765E-05 2.55585E-04-1.46815E-03 4.19807E-04 2.55610E-03-1.46830E-02 4.65938E+00-2.81908E+01-4.49818E+01



 n o d a l   p r i n t   o u t   f o r   t i m e  s t e p     201                              ( at time 9.9989993E-02 )

 nodal point  x-rot      y-rot       z-rot       x-rot vel   y-rot vel   z-rot vel   x-rot acc   y-rot acc   z-rot acc
    22626 -5.98899E-08-8.38532E-09-5.45973E-09-5.86836E-06-9.70030E-07-9.27185E-07-5.86894E-05-9.70127E-06-9.27278E-06



 n o d a l   p r i n t   o u t   f o r   t i m e  s t e p     401                              ( at time 1.9997999E-01 )

 nodal point  x-disp     y-disp      z-disp      x-vel       y-vel       z-vel      x-accl      y-accl      z-accl      x-coor      y-coor      z-coor
    22626  1.73189E-05 3.61746E-04-6.67596E-04 3.08023E-05 7.81129E-03-1.21547E-02-1.11753E-04 7.55646E-02-1.06876E-01 4.65939E+00-2.81905E+01-4.49824E+01



 n o d a l   p r i n t   o u t   f o r   t i m e  s t e p     401                              ( at time 1.9997999E-01 )

 nodal point  x-rot      y-rot       z-rot       x-rot vel   y-rot vel   z-rot vel   x-rot acc   y-rot acc   z-rot acc
    22626 -2.82020E-06-3.37334E-07-3.34782E-07-3.94366E-05-1.75922E-06-2.29160E-06-3.35716E-04-7.89272E-06-1.36456E-05



 n o d a l   p r i n t   o u t   f o r   t i m e  s t e p     601                              ( at time 2.9996998E-01 )

 nodal point  x-disp     y-disp      z-disp      x-vel       y-vel       z-vel      x-accl      y-accl      z-accl      x-coor      y-coor      z-coor
    22626  2.73803E-05 1.24007E-03-2.33840E-03 4.21584E-04 8.45033E-03-1.92587E-02 3.90821E-03 6.39100E-03-7.10463E-02 4.65940E+00-2.81896E+01-4.49841E+01



 n o d a l   p r i n t   o u t   f o r   t i m e  s t e p     601                              ( at time 2.9996998E-01 )

 nodal point  x-rot      y-rot       z-rot       x-rot vel   y-rot vel   z-rot vel   x-rot acc   y-rot acc   z-rot acc
    22626 -5.38365E-06-3.90935E-07-6.42529E-07-1.53733E-05-5.46428E-06-6.63821E-06 2.40657E-04-3.70543E-05-4.34704E-05



 n o d a l   p r i n t   o u t   f o r   t i m e  s t e p     801                              ( at time 3.9995997E-01 )

 nodal point  x-disp     y-disp      z-disp      x-vel       y-vel       z-vel      x-accl      y-accl      z-accl      x-coor      y-coor      z-coor
    22626  2.60225E-05 2.16246E-03-4.28287E-03-3.13419E-04 1.07388E-02-2.10858E-02-7.35077E-03 2.28872E-02-1.82736E-02 4.65940E+00-2.81887E+01-4.49860E+01



 n o d a l   p r i n t   o u t   f o r   t i m e  s t e p     801                              ( at time 3.9995997E-01 )

 nodal point  x-rot      y-rot       z-rot       x-rot vel   y-rot vel   z-rot vel   x-rot acc   y-rot acc   z-rot acc
    22626 -7.61664E-06-1.25013E-06-9.81045E-07-4.49288E-05-6.23045E-06-1.51910E-06-2.95585E-04-7.66246E-06 5.11962E-05



 n o d a l   p r i n t   o u t   f o r   t i m e  s t e p    1001                              ( at time 4.9994997E-01 )

 nodal point  x-disp     y-disp      z-disp      x-vel       y-vel       z-vel      x-accl      y-accl      z-accl      x-coor      y-coor      z-coor
    22626  3.69043E-06 3.43650E-03-6.74479E-03-2.40871E-04 1.41466E-02-2.87084E-02 7.25550E-04 3.40814E-02-7.62329E-02 4.65938E+00-2.81874E+01-4.49885E+01



 n o d a l   p r i n t   o u t   f o r   t i m e  s t e p    1001                              ( at time 4.9994997E-01 )

 nodal point  x-rot      y-rot       z-rot       x-rot vel   y-rot vel   z-rot vel   x-rot acc   y-rot acc   z-rot acc
    22626 -1.35617E-05-1.16548E-06-9.49771E-07-8.43113E-05 3.25716E-06 4.15686E-06-3.93865E-04 9.48856E-05 5.67653E-05



 n o d a l   p r i n t   o u t   f o r   t i m e  s t e p    1201                              ( at time 5.9993996E-01 )

 nodal point  x-disp     y-disp      z-disp      x-vel       y-vel       z-vel      x-accl      y-accl      z-accl      x-coor      y-coor      z-coor
    22626 -8.65610E-07 5.01225E-03-9.71616E-03 4.59516E-05 1.67022E-02-3.09897E-02 2.86852E-03 2.55582E-02-2.28157E-02 4.65937E+00-2.81858E+01-4.49914E+01



 n o d a l   p r i n t   o u t   f o r   t i m e  s t e p    1201                              ( at time 5.9993996E-01 )

 nodal point  x-rot      y-rot       z-rot       x-rot vel   y-rot vel   z-rot vel   x-rot acc   y-rot acc   z-rot acc
    22626 -2.02876E-05-8.87246E-07-9.58082E-07-5.90104E-05 3.85219E-06-2.01405E-06 2.53035E-04 5.95089E-06-6.17153E-05



 n o d a l   p r i n t   o u t   f o r   t i m e  s t e p    1401                              ( at time 6.9992995E-01 )

 nodal point  x-disp     y-disp      z-disp      x-vel       y-vel       z-vel      x-accl      y-accl      z-accl      x-coor      y-coor      z-coor
    22626 -5.09935E-05 6.85043E-03-1.31710E-02-4.89109E-04 1.96603E-02-3.89686E-02-5.35114E-03 2.95846E-02-7.97973E-02 4.65932E+00-2.81840E+01-4.49949E+01



 n o d a l   p r i n t   o u t   f o r   t i m e  s t e p    1401                              ( at time 6.9992995E-01 )

 nodal point  x-rot      y-rot       z-rot       x-rot vel   y-rot vel   z-rot vel   x-rot acc   y-rot acc   z-rot acc
    22626 -2.62094E-05-9.00992E-07-6.32693E-07-7.10212E-05 3.63993E-07 3.84756E-06-1.20119E-04-3.48855E-05 5.86220E-05



 n o d a l   p r i n t   o u t   f o r   t i m e  s t e p    1601                              ( at time 7.9991994E-01 )

 nodal point  x-disp     y-disp      z-disp      x-vel       y-vel       z-vel      x-accl      y-accl      z-accl      x-coor      y-coor      z-coor
    22626 -8.02801E-05 8.98672E-03-1.74643E-02-4.99715E-04 2.21629E-02-4.51242E-02-1.06061E-04 2.50279E-02-6.15617E-02 4.65929E+00-2.81818E+01-4.49992E+01



 n o d a l   p r i n t   o u t   f o r   t i m e  s t e p    1601                              ( at time 7.9991994E-01 )

 nodal point  x-rot      y-rot       z-rot       x-rot vel   y-rot vel   z-rot vel   x-rot acc   y-rot acc   z-rot acc
    22626 -3.44004E-05-8.78498E-07-5.15133E-07-9.20222E-05-4.76879E-06 1.59535E-06-2.10031E-04-5.13329E-05-2.25244E-05



 n o d a l   p r i n t   o u t   f o r   t i m e  s t e p    1801                              ( at time 8.9990994E-01 )

 nodal point  x-disp     y-disp      z-disp      x-vel       y-vel       z-vel      x-accl      y-accl      z-accl      x-coor      y-coor      z-coor
    22626 -1.16865E-04 1.12542E-02-2.19906E-02-2.89379E-04 2.40441E-02-4.55870E-02 2.10357E-03 1.88136E-02-4.62810E-03 4.65926E+00-2.81796E+01-4.50037E+01



 n o d a l   p r i n t   o u t   f o r   t i m e  s t e p    1801                              ( at time 8.9990994E-01 )

 nodal point  x-rot      y-rot       z-rot       x-rot vel   y-rot vel   z-rot vel   x-rot acc   y-rot acc   z-rot acc
    22626 -4.28183E-05-9.57986E-07-5.02368E-07-8.24623E-05 1.98977E-06-7.15902E-07 9.56086E-05 6.75924E-05-2.31148E-05



 n o d a l   p r i n t   o u t   f o r   t i m e  s t e p    2001                              ( at time 9.9989993E-01 )

 nodal point  x-disp     y-disp      z-disp      x-vel       y-vel       z-vel      x-accl      y-accl      z-accl      x-coor      y-coor      z-coor
    22626 -1.52054E-04 1.37912E-02-2.67304E-02-3.36377E-05 2.64989E-02-5.00349E-02 2.55767E-03 2.45505E-02-4.44841E-02 4.65922E+00-2.81770E+01-4.50084E+01



 n o d a l   p r i n t   o u t   f o r   t i m e  s t e p    2001                              ( at time 9.9989993E-01 )

 nodal point  x-rot      y-rot       z-rot       x-rot vel   y-rot vel   z-rot vel   x-rot acc   y-rot acc   z-rot acc
    22626 -5.18492E-05-9.08326E-07-4.38031E-07-1.06173E-04 1.23677E-06-3.05542E-06-2.37128E-04-7.53073E-06-2.33975E-05



 n o d a l   p r i n t   o u t   f o r   t i m e  s t e p    2201                              ( at time 1.0998899E+00 )

 nodal point  x-disp     y-disp      z-disp      x-vel       y-vel       z-vel      x-accl      y-accl      z-accl      x-coor      y-coor      z-coor
    22626 -1.59810E-04 1.65322E-02-3.20559E-02-3.44420E-04 2.88785E-02-5.60823E-02-3.10813E-03 2.37986E-02-6.04798E-02 4.65921E+00-2.81743E+01-4.50138E+01



 n o d a l   p r i n t   o u t   f o r   t i m e  s t e p    2201                              ( at time 1.0998899E+00 )

 nodal point  x-rot      y-rot       z-rot       x-rot vel   y-rot vel   z-rot vel   x-rot acc   y-rot acc   z-rot acc
    22626 -6.29473E-05-1.00469E-06-7.49986E-07-1.03864E-04-7.63063E-06-2.10463E-06 2.30916E-05-8.86830E-05 9.50882E-06



 n o d a l   p r i n t   o u t   f o r   t i m e  s t e p    2401                              ( at time 1.1998799E+00 )

 nodal point  x-disp     y-disp      z-disp      x-vel       y-vel       z-vel      x-accl      y-accl      z-accl      x-coor      y-coor      z-coor
    22626 -1.89788E-04 1.94752E-02-3.79327E-02-1.96338E-04 3.02265E-02-6.12103E-02 1.48096E-03 1.34814E-02-5.12849E-02 4.65919E+00-2.81714E+01-4.50197E+01



 n o d a l   p r i n t   o u t   f o r   t i m e  s t e p    2401                              ( at time 1.1998799E+00 )

 nodal point  x-rot      y-rot       z-rot       x-rot vel   y-rot vel   z-rot vel   x-rot acc   y-rot acc   z-rot acc
    22626 -7.29515E-05-1.61459E-06-9.91263E-07-1.01208E-04-7.18288E-06-2.96069E-06 2.65569E-05 4.47800E-06-8.56141E-06



 n o d a l   p r i n t   o u t   f o r   t i m e  s t e p    2601                              ( at time 1.2998699E+00 )

 nodal point  x-disp     y-disp      z-disp      x-vel       y-vel       z-vel      x-accl      y-accl      z-accl      x-coor      y-coor      z-coor
    22626 -2.23860E-04 2.26249E-02-4.42078E-02-2.46127E-04 3.25986E-02-6.40535E-02-4.97939E-04 2.37232E-02-2.84352E-02 4.65915E+00-2.81682E+01-4.50259E+01



 n o d a l   p r i n t   o u t   f o r   t i m e  s t e p    2601                              ( at time 1.2998699E+00 )

 nodal point  x-rot      y-rot       z-rot       x-rot vel   y-rot vel   z-rot vel   x-rot acc   y-rot acc   z-rot acc
    22626 -8.39940E-05-2.17125E-06-1.24691E-06-1.29383E-04 2.03609E-08-1.46293E-06-2.81770E-04 7.20396E-05 1.49791E-05



 n o d a l   p r i n t   o u t   f o r   t i m e  s t e p    2801                              ( at time 1.3998599E+00 )

 nodal point  x-disp     y-disp      z-disp      x-vel       y-vel       z-vel      x-accl      y-accl      z-accl      x-coor      y-coor      z-coor
    22626 -2.51449E-04 2.59923E-02-5.07121E-02-4.52825E-04 3.45127E-02-6.66730E-02-2.06719E-03 1.91430E-02-2.61977E-02 4.65912E+00-2.81648E+01-4.50324E+01



 n o d a l   p r i n t   o u t   f o r   t i m e  s t e p    2801                              ( at time 1.3998599E+00 )

 nodal point  x-rot      y-rot       z-rot       x-rot vel   y-rot vel   z-rot vel   x-rot acc   y-rot acc   z-rot acc
    22626 -9.73989E-05-2.01173E-06-1.34586E-06-1.36943E-04-1.47121E-07 1.80209E-06-7.56075E-05-1.67498E-06 3.26535E-05



 n o d a l   p r i n t   o u t   f o r   t i m e  s t e p    3001                              ( at time 1.4998499E+00 )

 nodal point  x-disp     y-disp      z-disp      x-vel       y-vel       z-vel      x-accl      y-accl      z-accl      x-coor      y-coor      z-coor
    22626 -2.96350E-04 2.95911E-02-5.77242E-02-4.50003E-04 3.72844E-02-7.39857E-02 2.82245E-05 2.77201E-02-7.31345E-02 4.65908E+00-2.81612E+01-4.50394E+01



 n o d a l   p r i n t   o u t   f o r   t i m e  s t e p    3001                              ( at time 1.4998499E+00 )

 nodal point  x-rot      y-rot       z-rot       x-rot vel   y-rot vel   z-rot vel   x-rot acc   y-rot acc   z-rot acc
    22626 -1.10707E-04-2.03109E-06-1.27156E-06-1.28510E-04-1.00568E-06-1.75537E-06 8.43376E-05-8.58641E-06-3.55782E-05



 n o d a l   p r i n t   o u t   f o r   t i m e  s t e p    3201                              ( at time 1.5998399E+00 )

 nodal point  x-disp     y-disp      z-disp      x-vel       y-vel       z-vel      x-accl      y-accl      z-accl      x-coor      y-coor      z-coor
    22626 -3.60104E-04 3.34891E-02-6.54464E-02-5.84325E-04 4.05412E-02-7.97076E-02-1.34335E-03 3.25707E-02-5.72245E-02 4.65901E+00-2.81573E+01-4.50472E+01



 n o d a l   p r i n t   o u t   f o r   t i m e  s t e p    3201                              ( at time 1.5998399E+00 )

 nodal point  x-rot      y-rot       z-rot       x-rot vel   y-rot vel   z-rot vel   x-rot acc   y-rot acc   z-rot acc
    22626 -1.23312E-04-2.14851E-06-1.09894E-06-1.34874E-04-2.93786E-06 3.10773E-06-6.36535E-05-1.93237E-05 4.86359E-05



 n o d a l   p r i n t   o u t   f o r   t i m e  s t e p    3401                              ( at time 1.6998299E+00 )

 nodal point  x-disp     y-disp      z-disp      x-vel       y-vel       z-vel      x-accl      y-accl      z-accl      x-coor      y-coor      z-coor
    22626 -4.21700E-04 3.76416E-02-7.35823E-02-7.26377E-04 4.22398E-02-8.25940E-02-1.42067E-03 1.69881E-02-2.88666E-02 4.65895E+00-2.81532E+01-4.50553E+01



 n o d a l   p r i n t   o u t   f o r   t i m e  s t e p    3401                              ( at time 1.6998299E+00 )

 nodal point  x-rot      y-rot       z-rot       x-rot vel   y-rot vel   z-rot vel   x-rot acc   y-rot acc   z-rot acc
    22626 -1.37611E-04-2.15248E-06-9.10218E-07-1.47616E-04 1.61344E-06 3.94236E-06-1.27425E-04 4.55175E-05 8.34712E-06



 n o d a l   p r i n t   o u t   f o r   t i m e  s t e p    3601                              ( at time 1.7998199E+00 )

 nodal point  x-disp     y-disp      z-disp      x-vel       y-vel       z-vel      x-accl      y-accl      z-accl      x-coor      y-coor      z-coor
    22626 -4.84860E-04 4.19001E-02-8.19597E-02-5.09359E-04 4.32860E-02-8.48702E-02 2.17040E-03 1.04634E-02-2.27643E-02 4.65889E+00-2.81489E+01-4.50637E+01



 n o d a l   p r i n t   o u t   f o r   t i m e  s t e p    3601                              ( at time 1.7998199E+00 )

 nodal point  x-rot      y-rot       z-rot       x-rot vel   y-rot vel   z-rot vel   x-rot acc   y-rot acc   z-rot acc
    22626 -1.52821E-04-2.06446E-06-7.78654E-07-1.49683E-04 1.50915E-06-1.45664E-06-2.06747E-05-1.04292E-06-5.39954E-05



 n o d a l   p r i n t   o u t   f o r   t i m e  s t e p    3801                              ( at time 1.8998099E+00 )

 nodal point  x-disp     y-disp      z-disp      x-vel       y-vel       z-vel      x-accl      y-accl      z-accl      x-coor      y-coor      z-coor
    22626 -5.44168E-04 4.63775E-02-9.06358E-02-5.22260E-04 4.60766E-02-8.88712E-02-1.29021E-04 2.79084E-02-4.00144E-02 4.65883E+00-2.81445E+01-4.50724E+01



 n o d a l   p r i n t   o u t   f o r   t i m e  s t e p    3801                              ( at time 1.8998099E+00 )

 nodal point  x-rot      y-rot       z-rot       x-rot vel   y-rot vel   z-rot vel   x-rot acc   y-rot acc   z-rot acc
    22626 -1.67675E-04-1.85472E-06-6.49352E-07-1.49897E-04-1.59916E-06-5.85589E-07-2.14604E-06-3.10863E-05 8.71133E-06



 n o d a l   p r i n t   o u t   f o r   t i m e  s t e p    4001                              ( at time 1.9997999E+00 )

 nodal point  x-disp     y-disp      z-disp      x-vel       y-vel       z-vel      x-accl      y-accl      z-accl      x-coor      y-coor      z-coor
    22626 -5.94974E-04 5.10272E-02-9.97453E-02-5.46963E-04 4.71681E-02-9.31120E-02-2.47058E-04 1.09160E-02-4.24120E-02 4.65878E+00-2.81398E+01-4.50815E+01



 n o d a l   p r i n t   o u t   f o r   t i m e  s t e p    4001                              ( at time 1.9997999E+00 )

 nodal point  x-rot      y-rot       z-rot       x-rot vel   y-rot vel   z-rot vel   x-rot acc   y-rot acc   z-rot acc
    22626 -1.82768E-04-2.08969E-06-6.99807E-07-1.55901E-04-4.65388E-06-2.04969E-07-6.00401E-05-3.05502E-05 3.80659E-06



 n o d a l   p r i n t   o u t   f o r   t i m e  s t e p    4201                              ( at time 2.0997899E+00 )

 nodal point  x-disp     y-disp      z-disp      x-vel       y-vel       z-vel      x-accl      y-accl      z-accl      x-coor      y-coor      z-coor
    22626 -6.49073E-04 5.57836E-02-1.09162E-01-5.58063E-04 4.81936E-02-9.52983E-02-1.11005E-04 1.02563E-02-2.18654E-02 4.65873E+00-2.81350E+01-4.50909E+01



 n o d a l   p r i n t   o u t   f o r   t i m e  s t e p    4201                              ( at time 2.0997899E+00 )

 nodal point  x-rot      y-rot       z-rot       x-rot vel   y-rot vel   z-rot vel   x-rot acc   y-rot acc   z-rot acc
    22626 -1.97945E-04-2.48009E-06-8.63054E-07-1.49970E-04-1.50171E-06 2.07421E-06 5.93131E-05 3.15248E-05 2.27941E-05



 n o d a l   p r i n t   o u t   f o r   t i m e  s t e p    4401                              ( at time 2.1997798E+00 )

 nodal point  x-disp     y-disp      z-disp      x-vel       y-vel       z-vel      x-accl      y-accl      z-accl      x-coor      y-coor      z-coor
    22626 -7.07845E-04 6.06673E-02-1.18761E-01-4.95465E-04 4.91645E-02-9.67332E-02 6.26040E-04 9.70998E-03-1.43504E-02 4.65867E+00-2.81302E+01-4.51005E+01



 n o d a l   p r i n t   o u t   f o r   t i m e  s t e p    4401                              ( at time 2.1997798E+00 )

 nodal point  x-rot      y-rot       z-rot       x-rot vel   y-rot vel   z-rot vel   x-rot acc   y-rot acc   z-rot acc
    22626 -2.13319E-04-2.58754E-06-8.60712E-07-1.59396E-04-1.59754E-06-1.03496E-06-9.42664E-05-9.58438E-07-3.10948E-05



 n o d a l   p r i n t   o u t   f o r   t i m e  s t e p    4601                              ( at time 2.2997698E+00 )

 nodal point  x-disp     y-disp      z-disp      x-vel       y-vel       z-vel      x-accl      y-accl      z-accl      x-coor      y-coor      z-coor
    22626 -7.62936E-04 6.56142E-02-1.28510E-01-6.48703E-04 5.01862E-02-9.87370E-02-1.53253E-03 1.02184E-02-2.00399E-02 4.65861E+00-2.81252E+01-4.51102E+01



 n o d a l   p r i n t   o u t   f o r   t i m e  s t e p    4601                              ( at time 2.2997698E+00 )

 nodal point  x-rot      y-rot       z-rot       x-rot vel   y-rot vel   z-rot vel   x-rot acc   y-rot acc   z-rot acc
    22626 -2.29837E-04-2.52094E-06-8.69649E-07-1.61284E-04 8.71064E-07-1.00054E-06-1.88865E-05 2.46885E-05 3.44220E-07



 n o d a l   p r i n t   o u t   f o r   t i m e  s t e p    4801                              ( at time 2.3997598E+00 )

 nodal point  x-disp     y-disp      z-disp      x-vel       y-vel       z-vel      x-accl      y-accl      z-accl      x-coor      y-coor      z-coor
    22626 -8.37407E-04 7.07390E-02-1.38609E-01-7.66332E-04 5.20320E-02-1.03266E-01-1.17641E-03 1.84593E-02-4.52985E-02 4.65854E+00-2.81201E+01-4.51203E+01



 n o d a l   p r i n t   o u t   f o r   t i m e  s t e p    4801                              ( at time 2.3997598E+00 )

 nodal point  x-rot      y-rot       z-rot       x-rot vel   y-rot vel   z-rot vel   x-rot acc   y-rot acc   z-rot acc
    22626 -2.45589E-04-2.51270E-06-5.97729E-07-1.55353E-04-1.19402E-08 4.23979E-06 5.93189E-05-8.83093E-06 5.24086E-05



 n o d a l   p r i n t   o u t   f o r   t i m e  s t e p    5001                              ( at time 2.4997498E+00 )

 nodal point  x-disp     y-disp      z-disp      x-vel       y-vel       z-vel      x-accl      y-accl      z-accl      x-coor      y-coor      z-coor
    22626 -9.18654E-04 7.60401E-02-1.49107E-01-9.24063E-04 5.34310E-02-1.05955E-01-1.57746E-03 1.39910E-02-2.68910E-02 4.65846E+00-2.81148E+01-4.51308E+01



 n o d a l   p r i n t   o u t   f o r   t i m e  s t e p    5001                              ( at time 2.4997498E+00 )

 nodal point  x-rot      y-rot       z-rot       x-rot vel   y-rot vel   z-rot vel   x-rot acc   y-rot acc   z-rot acc
    22626 -2.61162E-04-2.39216E-06-3.34917E-07-1.54778E-04 1.69656E-06 4.35276E-06 5.74726E-06 1.70867E-05 1.12980E-06



 n o d a l   p r i n t   o u t   f o r   t i m e  s t e p    5201                              ( at time 2.5997398E+00 )

 nodal point  x-disp     y-disp      z-disp      x-vel       y-vel       z-vel      x-accl      y-accl      z-accl      x-coor      y-coor      z-coor
    22626 -1.00937E-03 8.13921E-02-1.59710E-01-9.90450E-04 5.34904E-02-1.06028E-01-6.63942E-04 5.94244E-04-7.26803E-04 4.65837E+00-2.81094E+01-4.51414E+01



 n o d a l   p r i n t   o u t   f o r   t i m e  s t e p    5201                              ( at time 2.5997398E+00 )

 nodal point  x-rot      y-rot       z-rot       x-rot vel   y-rot vel   z-rot vel   x-rot acc   y-rot acc   z-rot acc
    22626 -2.76670E-04-2.06460E-06 5.60074E-08-1.51527E-04 5.07322E-06 4.90608E-06 3.25171E-05 3.37700E-05 5.53382E-06



 n o d a l   p r i n t   o u t   f o r   t i m e  s t e p    5401                              ( at time 2.6997298E+00 )

 nodal point  x-disp     y-disp      z-disp      x-vel       y-vel       z-vel      x-accl      y-accl      z-accl      x-coor      y-coor      z-coor
    22626 -1.10750E-03 8.67281E-02-1.70314E-01-8.15932E-04 5.35648E-02-1.06234E-01 1.74535E-03 7.44237E-04-2.05947E-03 4.65827E+00-2.81041E+01-4.51520E+01



 n o d a l   p r i n t   o u t   f o r   t i m e  s t e p    5401                              ( at time 2.6997298E+00 )

 nodal point  x-rot      y-rot       z-rot       x-rot vel   y-rot vel   z-rot vel   x-rot acc   y-rot acc   z-rot acc
    22626 -2.92383E-04-1.62673E-06 5.80638E-07-1.63032E-04 5.44581E-06 3.53722E-06-1.15060E-04 3.72635E-06-1.36900E-05



 n o d a l   p r i n t   o u t   f o r   t i m e  s t e p    5601                              ( at time 2.7997198E+00 )

 nodal point  x-disp     y-disp      z-disp      x-vel       y-vel       z-vel      x-accl      y-accl      z-accl      x-coor      y-coor      z-coor
    22626 -1.19460E-03 9.21213E-02-1.80982E-01-8.83012E-04 5.42802E-02-1.07480E-01-6.70867E-04 7.15481E-03-1.24624E-02 4.65818E+00-2.80987E+01-4.51627E+01



 n o d a l   p r i n t   o u t   f o r   t i m e  s t e p    5601                              ( at time 2.7997198E+00 )

 nodal point  x-rot      y-rot       z-rot       x-rot vel   y-rot vel   z-rot vel   x-rot acc   y-rot acc   z-rot acc
    22626 -3.07870E-04-1.11486E-06 9.98055E-07-1.44722E-04 3.10948E-06 4.38303E-06 1.83120E-04-2.33657E-05 8.45901E-06



 n o d a l   p r i n t   o u t   f o r   t i m e  s t e p    5801                              ( at time 2.8997098E+00 )

 nodal point  x-disp     y-disp      z-disp      x-vel       y-vel       z-vel      x-accl      y-accl      z-accl      x-coor      y-coor      z-coor
    22626 -1.27574E-03 9.75431E-02-1.91832E-01-7.41564E-04 5.42366E-02-1.09486E-01 1.41463E-03-4.35642E-04-2.00673E-02 4.65810E+00-2.80933E+01-4.51736E+01



 n o d a l   p r i n t   o u t   f o r   t i m e  s t e p    5801                              ( at time 2.8997098E+00 )

 nodal point  x-rot      y-rot       z-rot       x-rot vel   y-rot vel   z-rot vel   x-rot acc   y-rot acc   z-rot acc
    22626 -3.21815E-04-9.20932E-07 1.29536E-06-1.39917E-04 6.24192E-07 3.58729E-06 4.80551E-05-2.48554E-05-7.95826E-06



 n o d a l   p r i n t   o u t   f o r   t i m e  s t e p    6001                              ( at time 2.9996998E+00 )

 nodal point  x-disp     y-disp      z-disp      x-vel       y-vel       z-vel      x-accl      y-accl      z-accl      x-coor      y-coor      z-coor
    22626 -1.35901E-03 1.02945E-01-2.02799E-01-7.19305E-04 5.37587E-02-1.09384E-01 2.22612E-04-4.77965E-03 1.02701E-03 4.65802E+00-2.80879E+01-4.51845E+01



 n o d a l   p r i n t   o u t   f o r   t i m e  s t e p    6001                              ( at time 2.9996998E+00 )

 nodal point  x-rot      y-rot       z-rot       x-rot vel   y-rot vel   z-rot vel   x-rot acc   y-rot acc   z-rot acc
    22626 -3.36630E-04-8.85985E-07 1.47010E-06-1.50725E-04 4.50755E-07 2.56994E-06-1.08097E-04-1.73454E-06-1.01745E-05



 n o d a l   p r i n t   o u t   f o r   t i m e  s t e p    6201                              ( at time 3.0996898E+00 )

 nodal point  x-disp     y-disp      z-disp      x-vel       y-vel       z-vel      x-accl      y-accl      z-accl      x-coor      y-coor      z-coor
    22626 -1.42609E-03 1.08323E-01-2.13695E-01-7.21529E-04 5.39595E-02-1.08985E-01-2.22416E-05 2.00828E-03 3.98453E-03 4.65795E+00-2.80825E+01-4.51954E+01



 n o d a l   p r i n t   o u t   f o r   t i m e  s t e p    6201                              ( at time 3.0996898E+00 )

 nodal point  x-rot      y-rot       z-rot       x-rot vel   y-rot vel   z-rot vel   x-rot acc   y-rot acc   z-rot acc
    22626 -3.51804E-04-8.00915E-07 1.73989E-06-1.50575E-04 1.30593E-07 4.54932E-06 1.50540E-06-3.20194E-06 1.97958E-05



 n o d a l   p r i n t   o u t   f o r   t i m e  s t e p    6401                              ( at time 3.1996798E+00 )

 nodal point  x-disp     y-disp      z-disp      x-vel       y-vel       z-vel      x-accl      y-accl      z-accl      x-coor      y-coor      z-coor
    22626 -1.48860E-03 1.13752E-01-2.24687E-01-5.99682E-04 5.48499E-02-1.11064E-01 1.21859E-03 8.90443E-03-2.07856E-02 4.65789E+00-2.80771E+01-4.52064E+01



 n o d a l   p r i n t   o u t   f o r   t i m e  s t e p    6401                              ( at time 3.1996798E+00 )

 nodal point  x-rot      y-rot       z-rot       x-rot vel   y-rot vel   z-rot vel   x-rot acc   y-rot acc   z-rot acc
    22626 -3.66831E-04-6.56310E-07 1.90320E-06-1.44970E-04 1.84560E-06 1.58047E-06 5.60502E-05 1.71518E-05-2.96914E-05



 n o d a l   p r i n t   o u t   f o r   t i m e  s t e p    6601                              ( at time 3.2996698E+00 )

 nodal point  x-disp     y-disp      z-disp      x-vel       y-vel       z-vel      x-accl      y-accl      z-accl      x-coor      y-coor      z-coor
    22626 -1.56002E-03 1.19302E-01-2.35907E-01-7.63790E-04 5.59898E-02-1.13058E-01-1.64125E-03 1.14005E-02-1.99457E-02 4.65781E+00-2.80715E+01-4.52176E+01



 n o d a l   p r i n t   o u t   f o r   t i m e  s t e p    6601                              ( at time 3.2996698E+00 )

 nodal point  x-rot      y-rot       z-rot       x-rot vel   y-rot vel   z-rot vel   x-rot acc   y-rot acc   z-rot acc
    22626 -3.81564E-04-4.30661E-07 2.23029E-06-1.47611E-04 2.75459E-06 2.67873E-06-2.64112E-05 9.09078E-06 1.09837E-05



 n o d a l   p r i n t   o u t   f o r   t i m e  s t e p    6801                              ( at time 3.3996598E+00 )

 nodal point  x-disp     y-disp      z-disp      x-vel       y-vel       z-vel      x-accl      y-accl      z-accl      x-coor      y-coor      z-coor
    22626 -1.64497E-03 1.24966E-01-2.47244E-01-1.01095E-03 5.73539E-02-1.13803E-01-2.47180E-03 1.36418E-02-7.44878E-03 4.65773E+00-2.80659E+01-4.52290E+01



 n o d a l   p r i n t   o u t   f o r   t i m e  s t e p    6801                              ( at time 3.3996598E+00 )

 nodal point  x-rot      y-rot       z-rot       x-rot vel   y-rot vel   z-rot vel   x-rot acc   y-rot acc   z-rot acc
    22626 -3.96387E-04-2.85614E-07 2.49422E-06-1.52557E-04 3.24624E-06 4.02223E-06-4.94632E-05 4.91696E-06 1.34364E-05



 n o d a l   p r i n t   o u t   f o r   t i m e  s t e p    7001                              ( at time 3.4996498E+00 )

 nodal point  x-disp     y-disp      z-disp      x-vel       y-vel       z-vel      x-accl      y-accl      z-accl      x-coor      y-coor      z-coor
    22626 -1.74052E-03 1.30776E-01-2.58591E-01-9.90315E-04 5.89174E-02-1.13057E-01 2.06331E-04 1.56372E-02 7.45879E-03 4.65763E+00-2.80601E+01-4.52403E+01



 n o d a l   p r i n t   o u t   f o r   t i m e  s t e p    7001                              ( at time 3.4996498E+00 )

 nodal point  x-rot      y-rot       z-rot       x-rot vel   y-rot vel   z-rot vel   x-rot acc   y-rot acc   z-rot acc
    22626 -4.12274E-04 2.06205E-08 2.80644E-06-1.63908E-04 4.18824E-06 2.27474E-06-1.13518E-04 9.42096E-06-1.74767E-05



 n o d a l   p r i n t   o u t   f o r   t i m e  s t e p    7201                              ( at time 3.5996397E+00 )

 nodal point  x-disp     y-disp      z-disp      x-vel       y-vel       z-vel      x-accl      y-accl      z-accl      x-coor      y-coor      z-coor
    22626 -1.82807E-03 1.36774E-01-2.69827E-01-6.67770E-04 6.10105E-02-1.12124E-01 3.22577E-03 2.09328E-02 9.33689E-03 4.65755E+00-2.80541E+01-4.52515E+01



 n o d a l   p r i n t   o u t   f o r   t i m e  s t e p    7201                              ( at time 3.5996397E+00 )

 nodal point  x-rot      y-rot       z-rot       x-rot vel   y-rot vel   z-rot vel   x-rot acc   y-rot acc   z-rot acc
    22626 -4.29252E-04 7.43108E-07 3.39438E-06-1.81851E-04 8.89864E-06 4.76534E-06-1.79457E-04 4.71088E-05 2.49084E-05



 n o d a l   p r i n t   o u t   f o r   t i m e  s t e p    7401                              ( at time 3.6996297E+00 )

 nodal point  x-disp     y-disp      z-disp      x-vel       y-vel       z-vel      x-accl      y-accl      z-accl      x-coor      y-coor      z-coor
    22626 -1.90759E-03 1.43013E-01-2.81073E-01-8.25874E-04 6.39810E-02-1.12674E-01-1.58119E-03 2.97076E-02-5.50071E-03 4.65747E+00-2.80478E+01-4.52628E+01



 n o d a l   p r i n t   o u t   f o r   t i m e  s t e p    7401                              ( at time 3.6996297E+00 )

 nodal point  x-rot      y-rot       z-rot       x-rot vel   y-rot vel   z-rot vel   x-rot acc   y-rot acc   z-rot acc
    22626 -4.48253E-04 1.28316E-06 3.79953E-06-2.01018E-04 1.48554E-06 3.35019E-06-1.91686E-04-7.41383E-05-1.41528E-05



 n o d a l   p r i n t   o u t   f o r   t i m e  s t e p    7601                              ( at time 3.7996197E+00 )

 nodal point  x-disp     y-disp      z-disp      x-vel       y-vel       z-vel      x-accl      y-accl      z-accl      x-coor      y-coor      z-coor
    22626 -1.99858E-03 1.49593E-01-2.92349E-01-9.44749E-04 6.77220E-02-1.12618E-01-1.18887E-03 3.74143E-02 5.55869E-04 4.65738E+00-2.80412E+01-4.52741E+01



 n o d a l   p r i n t   o u t   f o r   t i m e  s t e p    7601                              ( at time 3.7996197E+00 )

 nodal point  x-rot      y-rot       z-rot       x-rot vel   y-rot vel   z-rot vel   x-rot acc   y-rot acc   z-rot acc
    22626 -4.69408E-04 1.31527E-06 3.93010E-06-2.31939E-04-2.30893E-06-1.04761E-06-3.09237E-04-3.79485E-05-4.39825E-05



 n o d a l   p r i n t   o u t   f o r   t i m e  s t e p    7801                              ( at time 3.8996097E+00 )

 nodal point  x-disp     y-disp      z-disp      x-vel       y-vel       z-vel      x-accl      y-accl      z-accl      x-coor      y-coor      z-coor
    22626 -2.08375E-03 1.56580E-01-3.03536E-01-7.80303E-04 7.20598E-02-1.11027E-01 1.64463E-03 4.33822E-02 1.59159E-02 4.65729E+00-2.80343E+01-4.52853E+01



 n o d a l   p r i n t   o u t   f o r   t i m e  s t e p    7801                              ( at time 3.8996097E+00 )

 nodal point  x-rot      y-rot       z-rot       x-rot vel   y-rot vel   z-rot vel   x-rot acc   y-rot acc   z-rot acc
    22626 -4.94872E-04 1.21949E-06 3.75283E-06-2.83757E-04-2.88020E-06-6.06500E-06-5.18233E-04-5.71329E-06-5.01788E-05



 n o d a l   p r i n t   o u t   f o r   t i m e  s t e p    8001                              ( at time 3.9995997E+00 )

 nodal point  x-disp     y-disp      z-disp      x-vel       y-vel       z-vel      x-accl      y-accl      z-accl      x-coor      y-coor      z-coor
    22626 -2.18319E-03 1.64050E-01-3.14518E-01-1.19420E-03 7.78140E-02-1.08922E-01-4.13939E-03 5.75473E-02 2.10464E-02 4.65719E+00-2.80268E+01-4.52962E+01



 n o d a l   p r i n t   o u t   f o r   t i m e  s t e p    8001                              ( at time 3.9995997E+00 )

 nodal point  x-rot      y-rot       z-rot       x-rot vel   y-rot vel   z-rot vel   x-rot acc   y-rot acc   z-rot acc
    22626 -5.25524E-04 6.09753E-07 2.77418E-06-3.27995E-04-8.94279E-06-1.33476E-05-4.42424E-04-6.06321E-05-7.28331E-05



 n o d a l   p r i n t   o u t   f o r   t i m e  s t e p    8201                              ( at time 4.0995897E+00 )

 nodal point  x-disp     y-disp      z-disp      x-vel       y-vel       z-vel      x-accl      y-accl      z-accl      x-coor      y-coor      z-coor
    22626 -2.32710E-03 1.72190E-01-3.25434E-01-1.53997E-03 8.51796E-02-1.09331E-01-3.45799E-03 7.36641E-02-4.09055E-03 4.65705E+00-2.80186E+01-4.53072E+01



 n o d a l   p r i n t   o u t   f o r   t i m e  s t e p    8201                              ( at time 4.0995897E+00 )

 nodal point  x-rot      y-rot       z-rot       x-rot vel   y-rot vel   z-rot vel   x-rot acc   y-rot acc   z-rot acc
    22626 -5.60187E-04-5.07578E-07 9.77701E-07-3.74867E-04-1.30789E-05-2.04434E-05-4.68773E-04-4.13648E-05-7.09656E-05



 n o d a l   p r i n t   o u t   f o r   t i m e  s t e p    8401                              ( at time 4.1995797E+00 )

 nodal point  x-disp     y-disp      z-disp      x-vel       y-vel       z-vel      x-accl      y-accl      z-accl      x-coor      y-coor      z-coor
    22626 -2.52459E-03 1.81101E-01-3.36318E-01-2.40783E-03 9.31971E-02-1.08332E-01-8.67949E-03 8.01824E-02 9.99134E-03 4.65685E+00-2.80097E+01-4.53180E+01



 n o d a l   p r i n t   o u t   f o r   t i m e  s t e p    8401                              ( at time 4.1995797E+00 )

 nodal point  x-rot      y-rot       z-rot       x-rot vel   y-rot vel   z-rot vel   x-rot acc   y-rot acc   z-rot acc
    22626 -6.01199E-04-2.29689E-06-2.19727E-06-4.42400E-04-2.12811E-05-3.92238E-05-6.75390E-04-8.20309E-05-1.87823E-04



 n o d a l   p r i n t   o u t   f o r   t i m e  s t e p    8601                              ( at time 4.2995697E+00 )

 nodal point  x-disp     y-disp      z-disp      x-vel       y-vel       z-vel      x-accl      y-accl      z-accl      x-coor      y-coor      z-coor
    22626 -2.79453E-03 1.90900E-01-3.47100E-01-2.79324E-03 1.02680E-01-1.07451E-01-3.85452E-03 9.48345E-02 8.81463E-03 4.65658E+00-2.79999E+01-4.53288E+01



 n o d a l   p r i n t   o u t   f o r   t i m e  s t e p    8601                              ( at time 4.2995697E+00 )

 nodal point  x-rot      y-rot       z-rot       x-rot vel   y-rot vel   z-rot vel   x-rot acc   y-rot acc   z-rot acc
    22626 -6.49112E-04-4.47669E-06-6.06502E-06-5.12905E-04-2.34773E-05-4.06385E-05-7.05129E-04-2.19635E-05-1.41484E-05



 n o d a l   p r i n t   o u t   f o r   t i m e  s t e p    8801                              ( at time 4.3995597E+00 )

 nodal point  x-disp     y-disp      z-disp      x-vel       y-vel       z-vel      x-accl      y-accl      z-accl      x-coor      y-coor      z-coor
    22626 -3.07975E-03 2.01636E-01-3.57723E-01-2.90012E-03 1.12301E-01-1.05039E-01-1.06891E-03 9.62231E-02 2.41156E-02 4.65630E+00-2.79892E+01-4.53394E+01



 n o d a l   p r i n t   o u t   f o r   t i m e  s t e p    8801                              ( at time 4.3995597E+00 )

 nodal point  x-rot      y-rot       z-rot       x-rot vel   y-rot vel   z-rot vel   x-rot acc   y-rot acc   z-rot acc
    22626 -7.04646E-04-6.67036E-06-1.01230E-05-5.99250E-04-2.21663E-05-4.39588E-05-8.63536E-04 1.31105E-05-3.32062E-05



 n o d a l   p r i n t   o u t   f o r   t i m e  s t e p    9001                              ( at time 4.4995497E+00 )

 nodal point  x-disp     y-disp      z-disp      x-vel       y-vel       z-vel      x-accl      y-accl      z-accl      x-coor      y-coor      z-coor
    22626 -3.41681E-03 2.13435E-01-3.68154E-01-3.89414E-03 1.23944E-01-1.04045E-01-9.94116E-03 1.16446E-01 9.94264E-03 4.65596E+00-2.79774E+01-4.53499E+01



 n o d a l   p r i n t   o u t   f o r   t i m e  s t e p    9001                              ( at time 4.4995497E+00 )

 nodal point  x-rot      y-rot       z-rot       x-rot vel   y-rot vel   z-rot vel   x-rot acc   y-rot acc   z-rot acc
    22626 -7.69618E-04-9.42445E-06-1.54622E-05-6.92792E-04-3.43011E-05-6.28356E-05-9.35502E-04-1.21359E-04-1.88786E-04



 n o d a l   p r i n t   o u t   f o r   t i m e  s t e p    9201                              ( at time 4.5995397E+00 )

 nodal point  x-disp     y-disp      z-disp      x-vel       y-vel       z-vel      x-accl      y-accl      z-accl      x-coor      y-coor      z-coor
    22626 -3.84185E-03 2.26481E-01-3.78564E-01-4.24077E-03 1.37083E-01-1.04289E-01-3.46669E-03 1.31398E-01-2.43495E-03 4.65553E+00-2.79643E+01-4.53603E+01



 n o d a l   p r i n t   o u t   f o r   t i m e  s t e p    9201                              ( at time 4.5995397E+00 )

 nodal point  x-rot      y-rot       z-rot       x-rot vel   y-rot vel   z-rot vel   x-rot acc   y-rot acc   z-rot acc
    22626 -8.43568E-04-1.31650E-05-2.21643E-05-7.80657E-04-3.71073E-05-6.58788E-05-8.78745E-04-2.80655E-05-3.04351E-05



 n o d a l   p r i n t   o u t   f o r   t i m e  s t e p    9401                              ( at time 4.6995297E+00 )

 nodal point  x-disp     y-disp      z-disp      x-vel       y-vel       z-vel      x-accl      y-accl      z-accl      x-coor      y-coor      z-coor
    22626 -4.23872E-03 2.40855E-01-3.88952E-01-3.85518E-03 1.50404E-01-1.03110E-01 3.85635E-03 1.33222E-01 1.17846E-02 4.65514E+00-2.79500E+01-4.53707E+01



 n o d a l   p r i n t   o u t   f o r   t i m e  s t e p    9401                              ( at time 4.6995297E+00 )

 nodal point  x-rot      y-rot       z-rot       x-rot vel   y-rot vel   z-rot vel   x-rot acc   y-rot acc   z-rot acc
    22626 -9.27639E-04-1.68224E-05-2.87623E-05-8.91294E-04-3.73537E-05-6.66243E-05-1.10648E-03-2.46403E-06-7.45563E-06



 n o d a l   p r i n t   o u t   f o r   t i m e  s t e p    9601                              ( at time 4.7995197E+00 )

 nodal point  x-disp     y-disp      z-disp      x-vel       y-vel       z-vel      x-accl      y-accl      z-accl      x-coor      y-coor      z-coor
    22626 -4.63413E-03 2.56600E-01-3.99188E-01-4.64338E-03 1.64996E-01-1.00913E-01-7.88278E-03 1.45938E-01 2.19755E-02 4.65474E+00-2.79342E+01-4.53809E+01



 n o d a l   p r i n t   o u t   f o r   t i m e  s t e p    9601                              ( at time 4.7995197E+00 )

 nodal point  x-rot      y-rot       z-rot       x-rot vel   y-rot vel   z-rot vel   x-rot acc   y-rot acc   z-rot acc
    22626 -1.02349E-03-2.09811E-05-3.58113E-05-1.01261E-03-4.79405E-05-7.75616E-05-1.21327E-03-1.05879E-04-1.09385E-04



 n o d a l   p r i n t   o u t   f o r   t i m e  s t e p    9801                              ( at time 4.8995097E+00 )

 nodal point  x-disp     y-disp      z-disp      x-vel       y-vel       z-vel      x-accl      y-accl      z-accl      x-coor      y-coor      z-coor
    22626 -5.12171E-03 2.73839E-01-4.09225E-01-5.12936E-03 1.80195E-01-9.96841E-02-4.86037E-03 1.52007E-01 1.22908E-02 4.65425E+00-2.79170E+01-4.53909E+01



 n o d a l   p r i n t   o u t   f o r   t i m e  s t e p    9801                              ( at time 4.8995097E+00 )

 nodal point  x-rot      y-rot       z-rot       x-rot vel   y-rot vel   z-rot vel   x-rot acc   y-rot acc   z-rot acc
    22626 -1.13093E-03-2.64113E-05-4.46384E-05-1.12592E-03-5.47482E-05-9.52418E-05-1.13320E-03-6.80840E-05-1.76819E-04



 n o d a l   p r i n t   o u t   f o r   t i m e  s t e p   10001                              ( at time 4.9994997E+00 )

 nodal point  x-disp     y-disp      z-disp      x-vel       y-vel       z-vel      x-accl      y-accl      z-accl      x-coor      y-coor      z-coor
    22626 -5.63625E-03 2.92657E-01-4.19176E-01-5.05318E-03 1.96083E-01-9.95629E-02 7.61895E-04 1.58889E-01 1.21203E-03 4.65374E+00-2.78982E+01-4.54009E+01



 n o d a l   p r i n t   o u t   f o r   t i m e  s t e p   10001                              ( at time 4.9994997E+00 )

 nodal point  x-rot      y-rot       z-rot       x-rot vel   y-rot vel   z-rot vel   x-rot acc   y-rot acc   z-rot acc
    22626 -1.24961E-03-3.16984E-05-5.40922E-05-1.25109E-03-4.86361E-05-9.52250E-05-1.25188E-03 6.11277E-05 1.67290E-07



 n o d a l   p r i n t   o u t   f o r   t i m e  s t e p   10202                              ( at time 5.0999896E+00 )

 nodal point  x-disp     y-disp      z-disp      x-vel       y-vel       z-vel      x-accl      y-accl      z-accl      x-coor      y-coor      z-coor
    22626 -6.15953E-03 3.13226E-01-4.29101E-01-5.44032E-03 2.12321E-01-9.80186E-02-3.85248E-03 1.61598E-01 1.53677E-02 4.65322E+00-2.78776E+01-4.54108E+01



 n o d a l   p r i n t   o u t   f o r   t i m e  s t e p   10202                              ( at time 5.0999896E+00 )

 nodal point  x-rot      y-rot       z-rot       x-rot vel   y-rot vel   z-rot vel   x-rot acc   y-rot acc   z-rot acc
    22626 -1.38194E-03-3.71448E-05-6.33681E-05-1.38510E-03-5.90466E-05-9.56684E-05-1.33358E-03-1.03598E-04-4.41179E-06



 n o d a l   p r i n t   o u t   f o r   t i m e  s t e p   10402                              ( at time 5.1999796E+00 )

 nodal point  x-disp     y-disp      z-disp      x-vel       y-vel       z-vel      x-accl      y-accl      z-accl      x-coor      y-coor      z-coor
    22626 -6.76636E-03 3.35291E-01-4.38795E-01-7.09463E-03 2.29192E-01-9.61330E-02-1.65448E-02 1.68721E-01 1.88577E-02 4.65261E+00-2.78555E+01-4.54205E+01



 n o d a l   p r i n t   o u t   f o r   t i m e  s t e p   10402                              ( at time 5.1999796E+00 )

 nodal point  x-rot      y-rot       z-rot       x-rot vel   y-rot vel   z-rot vel   x-rot acc   y-rot acc   z-rot acc
    22626 -1.52643E-03-4.40308E-05-7.40423E-05-1.51409E-03-7.81301E-05-1.24207E-04-1.29001E-03-1.90853E-04-2.85417E-04



 n o d a l   p r i n t   o u t   f o r   t i m e  s t e p   10602                              ( at time 5.2999696E+00 )

 nodal point  x-disp     y-disp      z-disp      x-vel       y-vel       z-vel      x-accl      y-accl      z-accl      x-coor      y-coor      z-coor
    22626 -7.49058E-03 3.59042E-01-4.48307E-01-7.18507E-03 2.46022E-01-9.40425E-02-9.04434E-04 1.68319E-01 2.09066E-02 4.65188E+00-2.78318E+01-4.54300E+01



 n o d a l   p r i n t   o u t   f o r   t i m e  s t e p   10602                              ( at time 5.2999696E+00 )

 nodal point  x-rot      y-rot       z-rot       x-rot vel   y-rot vel   z-rot vel   x-rot acc   y-rot acc   z-rot acc
    22626 -1.68418E-03-5.16406E-05-8.68306E-05-1.64331E-03-7.26671E-05-1.20420E-04-1.29233E-03 5.46346E-05 3.78798E-05



 n o d a l   p r i n t   o u t   f o r   t i m e  s t e p   10802                              ( at time 5.3999596E+00 )

 nodal point  x-disp     y-disp      z-disp      x-vel       y-vel       z-vel      x-accl      y-accl      z-accl      x-coor      y-coor      z-coor
    22626 -8.21494E-03 3.84543E-01-4.57625E-01-6.93118E-03 2.64011E-01-9.27884E-02 2.53911E-03 1.79907E-01 1.25423E-02 4.65116E+00-2.78063E+01-4.54393E+01



 n o d a l   p r i n t   o u t   f o r   t i m e  s t e p   10802                              ( at time 5.3999596E+00 )

 nodal point  x-rot      y-rot       z-rot       x-rot vel   y-rot vel   z-rot vel   x-rot acc   y-rot acc   z-rot acc
    22626 -1.85515E-03-5.86047E-05-9.85837E-05-1.77744E-03-7.68348E-05-1.21233E-04-1.34140E-03-4.16807E-05-8.12967E-06



 n o d a l   p r i n t   o u t   f o r   t i m e  s t e p   11002                              ( at time 5.4999496E+00 )

 nodal point  x-disp     y-disp      z-disp      x-vel       y-vel       z-vel      x-accl      y-accl      z-accl      x-coor      y-coor      z-coor
    22626 -9.00811E-03 4.11825E-01-4.66816E-01-8.88762E-03 2.81476E-01-9.11104E-02-1.95663E-02 1.74663E-01 1.67821E-02 4.65037E+00-2.77790E+01-4.54485E+01



 n o d a l   p r i n t   o u t   f o r   t i m e  s t e p   11002                              ( at time 5.4999496E+00 )

 nodal point  x-rot      y-rot       z-rot       x-rot vel   y-rot vel   z-rot vel   x-rot acc   y-rot acc   z-rot acc
    22626 -2.03930E-03-6.76182E-05-1.12301E-04-1.91198E-03-1.00183E-04-1.52242E-04-1.34554E-03-2.33501E-04-3.10129E-04



 n o d a l   p r i n t   o u t   f o r   t i m e  s t e p   11202                              ( at time 5.5999396E+00 )

 nodal point  x-disp     y-disp      z-disp      x-vel       y-vel       z-vel      x-accl      y-accl      z-accl      x-coor      y-coor      z-coor
    22626 -9.96816E-03 4.40918E-01-4.75742E-01-1.00371E-02 3.00097E-01-8.76938E-02-1.14956E-02 1.86235E-01 3.41688E-02 4.64941E+00-2.77499E+01-4.54575E+01



 n o d a l   p r i n t   o u t   f o r   t i m e  s t e p   11202                              ( at time 5.5999396E+00 )

 nodal point  x-rot      y-rot       z-rot       x-rot vel   y-rot vel   z-rot vel   x-rot acc   y-rot acc   z-rot acc
    22626 -2.23755E-03-7.77805E-05-1.28190E-04-2.05586E-03-1.01450E-04-1.60418E-04-1.43899E-03-1.26762E-05-8.17673E-05



 n o d a l   p r i n t   o u t   f o r   t i m e  s t e p   11402                              ( at time 5.6999296E+00 )

 nodal point  x-disp     y-disp      z-disp      x-vel       y-vel       z-vel      x-accl      y-accl      z-accl      x-coor      y-coor      z-coor
    22626 -1.09358E-02 4.71836E-01-4.84311E-01-9.32485E-03 3.18216E-01-8.35560E-02 7.12280E-03 1.81209E-01 4.13822E-02 4.64844E+00-2.77190E+01-4.54660E+01



 n o d a l   p r i n t   o u t   f o r   t i m e  s t e p   11402                              ( at time 5.6999296E+00 )

 nodal point  x-rot      y-rot       z-rot       x-rot vel   y-rot vel   z-rot vel   x-rot acc   y-rot acc   z-rot acc
    22626 -2.45028E-03-8.77510E-05-1.44112E-04-2.19217E-03-9.32165E-05-1.51700E-04-1.36321E-03 8.23432E-05 8.71918E-05



 n o d a l   p r i n t   o u t   f o r   t i m e  s t e p   11602                              ( at time 5.7999195E+00 )

 nodal point  x-disp     y-disp      z-disp      x-vel       y-vel       z-vel      x-accl      y-accl      z-accl      x-coor      y-coor      z-coor
    22626 -1.18499E-02 5.04605E-01-4.92428E-01-9.45732E-03 3.36941E-01-7.92500E-02-1.32482E-03 1.87266E-01 4.30642E-02 4.64753E+00-2.76862E+01-4.54741E+01



 n o d a l   p r i n t   o u t   f o r   t i m e  s t e p   11602                              ( at time 5.7999195E+00 )

 nodal point  x-rot      y-rot       z-rot       x-rot vel   y-rot vel   z-rot vel   x-rot acc   y-rot acc   z-rot acc
    22626 -2.67704E-03-9.77711E-05-1.59754E-04-2.33431E-03-1.10317E-04-1.62043E-04-1.42148E-03-1.71020E-04-1.03446E-04



 n o d a l   p r i n t   o u t   f o r   t i m e  s t e p   11802                              ( at time 5.8999095E+00 )

 nodal point  x-disp     y-disp      z-disp      x-vel       y-vel       z-vel      x-accl      y-accl      z-accl      x-coor      y-coor      z-coor
    22626 -1.29226E-02 5.39263E-01-5.00211E-01-1.15457E-02 3.55774E-01-7.65874E-02-2.08863E-02 1.88346E-01 2.66293E-02 4.64645E+00-2.76516E+01-4.54819E+01



 n o d a l   p r i n t   o u t   f o r   t i m e  s t e p   11802                              ( at time 5.8999095E+00 )

 nodal point  x-rot      y-rot       z-rot       x-rot vel   y-rot vel   z-rot vel   x-rot acc   y-rot acc   z-rot acc
    22626 -2.91865E-03-1.09755E-04-1.77485E-04-2.49502E-03-1.19668E-04-1.86221E-04-1.60735E-03-9.35220E-05-2.41800E-04



 n o d a l   p r i n t   o u t   f o r   t i m e  s t e p   12002                              ( at time 5.9998995E+00 )

 nodal point  x-disp     y-disp      z-disp      x-vel       y-vel       z-vel      x-accl      y-accl      z-accl      x-coor      y-coor      z-coor
    22626 -1.40581E-02 5.75849E-01-5.07659E-01-1.05705E-02 3.75741E-01-7.26659E-02 9.75291E-03 1.99687E-01 3.92189E-02 4.64532E+00-2.76150E+01-4.54894E+01



 n o d a l   p r i n t   o u t   f o r   t i m e  s t e p   12002                              ( at time 5.9998995E+00 )

 nodal point  x-rot      y-rot       z-rot       x-rot vel   y-rot vel   z-rot vel   x-rot acc   y-rot acc   z-rot acc
    22626 -3.17557E-03-1.20466E-04-1.95075E-04-2.64991E-03-9.82547E-05-1.65044E-04-1.54904E-03 2.14155E-04 2.11790E-04



 n o d a l   p r i n t   o u t   f o r   t i m e  s t e p   12202                              ( at time 6.0998895E+00 )

 nodal point  x-disp     y-disp      z-disp      x-vel       y-vel       z-vel      x-accl      y-accl      z-accl      x-coor      y-coor      z-coor
    22626 -1.51006E-02 6.14380E-01-5.14624E-01-1.07328E-02 3.94767E-01-6.71144E-02-1.62274E-03 1.90281E-01 5.55206E-02 4.64427E+00-2.75765E+01-4.54963E+01



 n o d a l   p r i n t   o u t   f o r   t i m e  s t e p   12202                              ( at time 6.0998895E+00 )

 nodal point  x-rot      y-rot       z-rot       x-rot vel   y-rot vel   z-rot vel   x-rot acc   y-rot acc   z-rot acc
    22626 -3.44754E-03-1.30463E-04-2.11160E-04-2.80053E-03-1.12565E-04-1.64014E-04-1.50636E-03-1.43122E-04 1.02982E-05



 n o d a l   p r i n t   o u t   f o r   t i m e  s t e p   12402                              ( at time 6.1998795E+00 )

 nodal point  x-disp     y-disp      z-disp      x-vel       y-vel       z-vel      x-accl      y-accl      z-accl      x-coor      y-coor      z-coor
    22626 -1.62762E-02 6.54870E-01-5.21110E-01-1.26469E-02 4.15237E-01-6.30454E-02-1.91427E-02 2.04721E-01 4.06940E-02 4.64310E+00-2.75360E+01-4.55028E+01



 n o d a l   p r i n t   o u t   f o r   t i m e  s t e p   12402                              ( at time 6.1998795E+00 )

 nodal point  x-rot      y-rot       z-rot       x-rot vel   y-rot vel   z-rot vel   x-rot acc   y-rot acc   z-rot acc
    22626 -3.73498E-03-1.42756E-04-2.29143E-04-2.95465E-03-1.28200E-04-1.87676E-04-1.54130E-03-1.56361E-04-2.36640E-04



 n o d a l   p r i n t   o u t   f o r   t i m e  s t e p   12602                              ( at time 6.2998695E+00 )

 nodal point  x-disp     y-disp      z-disp      x-vel       y-vel       z-vel      x-accl      y-accl      z-accl      x-coor      y-coor      z-coor
    22626 -1.75198E-02 6.97412E-01-5.27197E-01-1.19877E-02 4.35586E-01-5.82391E-02 6.59233E-03 2.03508E-01 4.80673E-02 4.64186E+00-2.74934E+01-4.55089E+01



 n o d a l   p r i n t   o u t   f o r   t i m e  s t e p   12602                              ( at time 6.2998695E+00 )

 nodal point  x-rot      y-rot       z-rot       x-rot vel   y-rot vel   z-rot vel   x-rot acc   y-rot acc   z-rot acc
    22626 -4.03771E-03-1.54132E-04-2.47797E-04-3.09396E-03-1.00615E-04-1.73757E-04-1.39324E-03 2.75878E-04 1.39206E-04



 n o d a l   p r i n t   o u t   f o r   t i m e  s t e p   12802                              ( at time 6.3998595E+00 )

 nodal point  x-disp     y-disp      z-disp      x-vel       y-vel       z-vel      x-accl      y-accl      z-accl      x-coor      y-coor      z-coor
    22626 -1.86607E-02 7.41932E-01-5.32758E-01-1.12962E-02 4.55354E-01-5.24830E-02 6.91590E-03 1.97704E-01 5.75665E-02 4.64071E+00-2.74489E+01-4.55145E+01



 n o d a l   p r i n t   o u t   f o r   t i m e  s t e p   12802                              ( at time 6.3998595E+00 )

 nodal point  x-rot      y-rot       z-rot       x-rot vel   y-rot vel   z-rot vel   x-rot acc   y-rot acc   z-rot acc
    22626 -4.35516E-03-1.63869E-04-2.63835E-04-3.25078E-03-9.93139E-05-1.60368E-04-1.56835E-03 1.30115E-05 1.33898E-04



 n o d a l   p r i n t   o u t   f o r   t i m e  s t e p   13002                              ( at time 6.4998495E+00 )

 nodal point  x-disp     y-disp      z-disp      x-vel       y-vel       z-vel      x-accl      y-accl      z-accl      x-coor      y-coor      z-coor
    22626 -1.98571E-02 7.88441E-01-5.37734E-01-1.28582E-02 4.75100E-01-4.64428E-02-1.56217E-02 1.97484E-01 6.04085E-02 4.63952E+00-2.74024E+01-4.55195E+01



 n o d a l   p r i n t   o u t   f o r   t i m e  s t e p   13002                              ( at time 6.4998495E+00 )

 nodal point  x-rot      y-rot       z-rot       x-rot vel   y-rot vel   z-rot vel   x-rot acc   y-rot acc   z-rot acc
    22626 -4.68935E-03-1.75334E-04-2.81273E-04-3.41752E-03-1.21407E-04-1.86833E-04-1.66758E-03-2.20957E-04-2.64678E-04



 n o d a l   p r i n t   o u t   f o r   t i m e  s t e p   13202                              ( at time 6.5998395E+00 )

 nodal point  x-disp     y-disp      z-disp      x-vel       y-vel       z-vel      x-accl      y-accl      z-accl      x-coor      y-coor      z-coor
    22626 -2.11585E-02 8.36949E-01-5.42040E-01-1.30310E-02 4.95252E-01-3.96159E-02-1.72818E-03 2.01535E-01 6.82756E-02 4.63822E+00-2.73539E+01-4.55238E+01



 n o d a l   p r i n t   o u t   f o r   t i m e  s t e p   13202                              ( at time 6.5998395E+00 )

 nodal point  x-rot      y-rot       z-rot       x-rot vel   y-rot vel   z-rot vel   x-rot acc   y-rot acc   z-rot acc
    22626 -5.03839E-03-1.87027E-04-2.99253E-04-3.56513E-03-1.02020E-04-1.74822E-04-1.47628E-03 1.93887E-04 1.20131E-04



 n o d a l   p r i n t   o u t   f o r   t i m e  s t e p   13402                              ( at time 6.6998295E+00 )

 nodal point  x-disp     y-disp      z-disp      x-vel       y-vel       z-vel      x-accl      y-accl      z-accl      x-coor      y-coor      z-coor
    22626 -2.23688E-02 8.87469E-01-5.45621E-01-1.14079E-02 5.14870E-01-3.25482E-02 1.62328E-02 1.96197E-01 7.06842E-02 4.63701E+00-2.73034E+01-4.55273E+01



 n o d a l   p r i n t   o u t   f o r   t i m e  s t e p   13402                              ( at time 6.6998295E+00 )

 nodal point  x-rot      y-rot       z-rot       x-rot vel   y-rot vel   z-rot vel   x-rot acc   y-rot acc   z-rot acc
    22626 -5.40241E-03-1.96755E-04-3.16088E-04-3.72927E-03-9.54551E-05-1.67406E-04-1.64155E-03 6.56601E-05 7.41601E-05



 n o d a l   p r i n t   o u t   f o r   t i m e  s t e p   13602                              ( at time 6.7998195E+00 )

 nodal point  x-disp     y-disp      z-disp      x-vel       y-vel       z-vel      x-accl      y-accl      z-accl      x-coor      y-coor      z-coor
    22626 -2.35322E-02 9.39991E-01-5.48531E-01-1.21500E-02 5.35506E-01-2.56856E-02-7.42211E-03 2.06385E-01 6.86324E-02 4.63584E+00-2.72508E+01-4.55303E+01



 n o d a l   p r i n t   o u t   f o r   t i m e  s t e p   13602                              ( at time 6.7998195E+00 )

 nodal point  x-rot      y-rot       z-rot       x-rot vel   y-rot vel   z-rot vel   x-rot acc   y-rot acc   z-rot acc
    22626 -5.78315E-03-2.07290E-04-3.32923E-04-3.88998E-03-1.14341E-04-1.63380E-04-1.60723E-03-1.88880E-04 4.02685E-05



 n o d a l   p r i n t   o u t   f o r   t i m e  s t e p   13802                              ( at time 6.8998095E+00 )

 nodal point  x-disp     y-disp      z-disp      x-vel       y-vel       z-vel      x-accl      y-accl      z-accl      x-coor      y-coor      z-coor
    22626 -2.47611E-02 9.94561E-01-5.50720E-01-1.23061E-02 5.55980E-01-1.75451E-02-1.56122E-03 2.04764E-01 8.14134E-02 4.63461E+00-2.71963E+01-4.55324E+01



 n o d a l   p r i n t   o u t   f o r   t i m e  s t e p   13802                              ( at time 6.8998095E+00 )

 nodal point  x-rot      y-rot       z-rot       x-rot vel   y-rot vel   z-rot vel   x-rot acc   y-rot acc   z-rot acc
    22626 -6.17965E-03-2.18852E-04-3.49325E-04-4.04757E-03-1.06318E-04-1.60644E-04-1.57607E-03 8.02410E-05 2.73653E-05



 n o d a l   p r i n t   o u t   f o r   t i m e  s t e p   14002                              ( at time 6.9997995E+00 )

 nodal point  x-disp     y-disp      z-disp      x-vel       y-vel       z-vel      x-accl      y-accl      z-accl      x-coor      y-coor      z-coor
    22626 -2.59601E-02 1.05114E+00-5.52035E-01-1.14797E-02 5.76233E-01-8.92115E-03 8.26565E-03 2.02548E-01 8.62485E-02 4.63341E+00-2.71397E+01-4.55338E+01



 n o d a l   p r i n t   o u t   f o r   t i m e  s t e p   14002                              ( at time 6.9997995E+00 )

 nodal point  x-rot      y-rot       z-rot       x-rot vel   y-rot vel   z-rot vel   x-rot acc   y-rot acc   z-rot acc
    22626 -6.59240E-03-2.27809E-04-3.64851E-04-4.21434E-03-7.71339E-05-1.46746E-04-1.66789E-03 2.91870E-04 1.38990E-04



 n o d a l   p r i n t   o u t   f o r   t i m e  s t e p   14202                              ( at time 7.0997895E+00 )

 nodal point  x-disp     y-disp      z-disp      x-vel       y-vel       z-vel      x-accl      y-accl      z-accl      x-coor      y-coor      z-coor
    22626 -2.70787E-02 1.10981E+00-5.52518E-01-1.12061E-02 5.97141E-01-2.95661E-04 2.73625E-03 2.09100E-01 8.62632E-02 4.63230E+00-2.70810E+01-4.55342E+01



 n o d a l   p r i n t   o u t   f o r   t i m e  s t e p   14202                              ( at time 7.0997895E+00 )

 nodal point  x-rot      y-rot       z-rot       x-rot vel   y-rot vel   z-rot vel   x-rot acc   y-rot acc   z-rot acc
    22626 -7.02137E-03-2.36042E-04-3.78542E-04-4.37248E-03-9.32843E-05-1.36269E-04-1.58153E-03-1.61520E-04 1.04776E-04



 n o d a l   p r i n t   o u t   f o r   t i m e  s t e p   14402                              ( at time 7.1997794E+00 )

 nodal point  x-disp     y-disp      z-disp      x-vel       y-vel       z-vel      x-accl      y-accl      z-accl      x-coor      y-coor      z-coor
    22626 -2.82171E-02 1.17053E+00-5.52055E-01-1.19949E-02 6.17219E-01 9.46551E-03-7.88892E-03 2.00799E-01 9.76216E-02 4.63116E+00-2.70203E+01-4.55338E+01



 n o d a l   p r i n t   o u t   f o r   t i m e  s t e p   14402                              ( at time 7.1997794E+00 )

 nodal point  x-rot      y-rot       z-rot       x-rot vel   y-rot vel   z-rot vel   x-rot acc   y-rot acc   z-rot acc
    22626 -7.46650E-03-2.45105E-04-3.92319E-04-4.53460E-03-8.76454E-05-1.41600E-04-1.62138E-03 5.63948E-05-5.33073E-05



 n o d a l   p r i n t   o u t   f o r   t i m e  s t e p   14602                              ( at time 7.2997694E+00 )

 nodal point  x-disp     y-disp      z-disp      x-vel       y-vel       z-vel      x-accl      y-accl      z-accl      x-coor      y-coor      z-coor
    22626 -2.94192E-02 1.23323E+00-5.50586E-01-1.15266E-02 6.36976E-01 2.05536E-02 4.68271E-03 1.97587E-01 1.10893E-01 4.62996E+00-2.69576E+01-4.55323E+01



 n o d a l   p r i n t   o u t   f o r   t i m e  s t e p   14602                              ( at time 7.2997694E+00 )

 nodal point  x-rot      y-rot       z-rot       x-rot vel   y-rot vel   z-rot vel   x-rot acc   y-rot acc   z-rot acc
    22626 -7.92833E-03-2.53158E-04-4.06051E-04-4.69802E-03-7.80400E-05-1.32831E-04-1.63441E-03 9.60642E-05 8.76913E-05



 n o d a l   p r i n t   o u t   f o r   t i m e  s t e p   14802                              ( at time 7.3997594E+00 )

 nodal point  x-disp     y-disp      z-disp      x-vel       y-vel       z-vel      x-accl      y-accl      z-accl      x-coor      y-coor      z-coor
    22626 -3.05508E-02 1.29790E+00-5.47937E-01-1.09152E-02 6.56685E-01 3.25963E-02 6.11523E-03 1.97110E-01 1.20439E-01 4.62882E+00-2.68929E+01-4.55297E+01



 n o d a l   p r i n t   o u t   f o r   t i m e  s t e p   14802                              ( at time 7.3997594E+00 )

 nodal point  x-rot      y-rot       z-rot       x-rot vel   y-rot vel   z-rot vel   x-rot acc   y-rot acc   z-rot acc
    22626 -8.40701E-03-2.60892E-04-4.18598E-04-4.87269E-03-6.90367E-05-1.19904E-04-1.74687E-03 9.00420E-05 1.29283E-04



 n o d a l   p r i n t   o u t   f o r   t i m e  s t e p   15002                              ( at time 7.4997494E+00 )

 nodal point  x-disp     y-disp      z-disp      x-vel       y-vel       z-vel      x-accl      y-accl      z-accl      x-coor      y-coor      z-coor
    22626 -3.16328E-02 1.36454E+00-5.44031E-01-1.10599E-02 6.75871E-01 4.51771E-02-1.44680E-03 1.91879E-01 1.25820E-01 4.62774E+00-2.68263E+01-4.55258E+01



 n o d a l   p r i n t   o u t   f o r   t i m e  s t e p   15002                              ( at time 7.4997494E+00 )

 nodal point  x-rot      y-rot       z-rot       x-rot vel   y-rot vel   z-rot vel   x-rot acc   y-rot acc   z-rot acc
    22626 -8.90186E-03-2.67321E-04-4.30624E-04-5.02971E-03-6.94642E-05-1.23118E-04-1.57035E-03-4.27525E-06-3.21393E-05



 n o d a l   p r i n t   o u t   f o r   t i m e  s t e p   15202                              ( at time 7.5997394E+00 )

 nodal point  x-disp     y-disp      z-disp      x-vel       y-vel       z-vel      x-accl      y-accl      z-accl      x-coor      y-coor      z-coor
    22626 -3.27443E-02 1.43310E+00-5.38896E-01-1.10104E-02 6.94745E-01 5.69894E-02 4.94647E-04 1.88764E-01 1.18134E-01 4.62663E+00-2.67577E+01-4.55206E+01



 n o d a l   p r i n t   o u t   f o r   t i m e  s t e p   15202                              ( at time 7.5997394E+00 )

 nodal point  x-rot      y-rot       z-rot       x-rot vel   y-rot vel   z-rot vel   x-rot acc   y-rot acc   z-rot acc
    22626 -9.41253E-03-2.74684E-04-4.42480E-04-5.19208E-03-7.22081E-05-1.15748E-04-1.62383E-03-2.74416E-05 7.37053E-05



 n o d a l   p r i n t   o u t   f o r   t i m e  s t e p   15402                              ( at time 7.6997294E+00 )

 nodal point  x-disp     y-disp      z-disp      x-vel       y-vel       z-vel      x-accl      y-accl      z-accl      x-coor      y-coor      z-coor
    22626 -3.38010E-02 1.50360E+00-5.32558E-01-9.77763E-03 7.15099E-01 6.94221E-02 1.23289E-02 2.03560E-01 1.24340E-01 4.62557E+00-2.66872E+01-4.55143E+01



 n o d a l   p r i n t   o u t   f o r   t i m e  s t e p   15402                              ( at time 7.6997294E+00 )

 nodal point  x-rot      y-rot       z-rot       x-rot vel   y-rot vel   z-rot vel   x-rot acc   y-rot acc   z-rot acc
    22626 -9.93978E-03-2.80924E-04-4.53249E-04-5.36147E-03-5.07641E-05-9.89506E-05-1.69410E-03 2.14462E-04 1.67993E-04



 n o d a l   p r i n t   o u t   f o r   t i m e  s t e p   15602                              ( at time 7.7997194E+00 )

 nodal point  x-disp     y-disp      z-disp      x-vel       y-vel       z-vel      x-accl      y-accl      z-accl      x-coor      y-coor      z-coor
    22626 -3.47584E-02 1.57608E+00-5.24917E-01-9.60289E-03 7.34351E-01 8.29618E-02 1.74757E-03 1.92538E-01 1.35411E-01 4.62462E+00-2.66148E+01-4.55066E+01



 n o d a l   p r i n t   o u t   f o r   t i m e  s t e p   15602                              ( at time 7.7997194E+00 )

 nodal point  x-rot      y-rot       z-rot       x-rot vel   y-rot vel   z-rot vel   x-rot acc   y-rot acc   z-rot acc
    22626 -1.04832E-02-2.85948E-04-4.63061E-04-5.51073E-03-5.10018E-05-9.32171E-05-1.49270E-03-2.37791E-06 5.73411E-05



 n o d a l   p r i n t   o u t   f o r   t i m e  s t e p   15802                              ( at time 7.8997094E+00 )

 nodal point  x-disp     y-disp      z-disp      x-vel       y-vel       z-vel      x-accl      y-accl      z-accl      x-coor      y-coor      z-coor
    22626 -3.57328E-02 1.65050E+00-5.15935E-01-9.53242E-03 7.54245E-01 9.65250E-02 7.04738E-04 1.98956E-01 1.35645E-01 4.62364E+00-2.65403E+01-4.54977E+01



 n o d a l   p r i n t   o u t   f o r   t i m e  s t e p   15802                              ( at time 7.8997094E+00 )

 nodal point  x-rot      y-rot       z-rot       x-rot vel   y-rot vel   z-rot vel   x-rot acc   y-rot acc   z-rot acc
    22626 -1.10410E-02-2.91357E-04-4.72354E-04-5.65528E-03-5.37405E-05-9.01473E-05-1.44572E-03-2.73894E-05 3.07009E-05



 n o d a l   p r i n t   o u t   f o r   t i m e  s t e p   16002                              ( at time 7.9996994E+00 )

 nodal point  x-disp     y-disp      z-disp      x-vel       y-vel       z-vel      x-accl      y-accl      z-accl      x-coor      y-coor      z-coor
    22626 -3.67073E-02 1.72685E+00-5.05609E-01-9.73039E-03 7.73077E-01 1.09996E-01-1.97989E-03 1.88338E-01 1.34723E-01 4.62267E+00-2.64640E+01-4.54873E+01



 n o d a l   p r i n t   o u t   f o r   t i m e  s t e p   16002                              ( at time 7.9996994E+00 )

 nodal point  x-rot      y-rot       z-rot       x-rot vel   y-rot vel   z-rot vel   x-rot acc   y-rot acc   z-rot acc
    22626 -1.16138E-02-2.95834E-04-4.80947E-04-5.80110E-03-4.00303E-05-8.54665E-05-1.45833E-03 1.37115E-04 4.68127E-05



 n o d a l   p r i n t   o u t   f o r   t i m e  s t e p   16202                              ( at time 8.0996894E+00 )

 nodal point  x-disp     y-disp      z-disp      x-vel       y-vel       z-vel      x-accl      y-accl      z-accl      x-coor      y-coor      z-coor
    22626 -3.76073E-02 1.80511E+00-4.93908E-01-8.78166E-03 7.91909E-01 1.24637E-01 9.48831E-03 1.88338E-01 1.46430E-01 4.62177E+00-2.63857E+01-4.54756E+01



 n o d a l   p r i n t   o u t   f o r   t i m e  s t e p   16202                              ( at time 8.0996894E+00 )

 nodal point  x-rot      y-rot       z-rot       x-rot vel   y-rot vel   z-rot vel   x-rot acc   y-rot acc   z-rot acc
    22626 -1.22010E-02-2.99078E-04-4.88520E-04-5.93807E-03-2.57840E-05-6.94401E-05-1.36981E-03 1.42478E-04 1.60280E-04



 n o d a l   p r i n t   o u t   f o r   t i m e  s t e p   16402                              ( at time 8.1996794E+00 )

 nodal point  x-disp     y-disp      z-disp      x-vel       y-vel       z-vel      x-accl      y-accl      z-accl      x-coor      y-coor      z-coor
    22626 -3.84705E-02 1.88516E+00-4.80721E-01-8.61826E-03 8.09599E-01 1.39602E-01 1.63420E-03 1.76927E-01 1.49664E-01 4.62090E+00-2.63057E+01-4.54624E+01



 n o d a l   p r i n t   o u t   f o r   t i m e  s t e p   16402                              ( at time 8.1996794E+00 )

 nodal point  x-rot      y-rot       z-rot       x-rot vel   y-rot vel   z-rot vel   x-rot acc   y-rot acc   z-rot acc
    22626 -1.28022E-02-3.01616E-04-4.94667E-04-6.08173E-03-2.50984E-05-5.60381E-05-1.43669E-03 6.85628E-06 1.34033E-04



 n o d a l   p r i n t   o u t   f o r   t i m e  s t e p   16602                              ( at time 8.2996694E+00 )

 nodal point  x-disp     y-disp      z-disp      x-vel       y-vel       z-vel      x-accl      y-accl      z-accl      x-coor      y-coor      z-coor
    22626 -3.93056E-02 1.96701E+00-4.65997E-01-7.93679E-03 8.27377E-01 1.55357E-01 6.81538E-03 1.77797E-01 1.57564E-01 4.62007E+00-2.62238E+01-4.54477E+01



 n o d a l   p r i n t   o u t   f o r   t i m e  s t e p   16602                              ( at time 8.2996694E+00 )

 nodal point  x-rot      y-rot       z-rot       x-rot vel   y-rot vel   z-rot vel   x-rot acc   y-rot acc   z-rot acc
    22626 -1.34174E-02-3.04087E-04-4.99966E-04-6.21580E-03-1.48292E-05-4.44921E-05-1.34086E-03 1.02703E-04 1.15472E-04



 n o d a l   p r i n t   o u t   f o r   t i m e  s t e p   16802                              ( at time 8.3996594E+00 )

 nodal point  x-disp     y-disp      z-disp      x-vel       y-vel       z-vel      x-accl      y-accl      z-accl      x-coor      y-coor      z-coor
    22626 -4.00349E-02 2.05064E+00-4.49639E-01-6.76064E-03 8.45020E-01 1.71323E-01 1.17627E-02 1.76447E-01 1.59679E-01 4.61934E+00-2.61402E+01-4.54314E+01



 n o d a l   p r i n t   o u t   f o r   t i m e  s t e p   16802                              ( at time 8.3996594E+00 )

 nodal point  x-rot      y-rot       z-rot       x-rot vel   y-rot vel   z-rot vel   x-rot acc   y-rot acc   z-rot acc
    22626 -1.40448E-02-3.04132E-04-5.03063E-04-6.33794E-03 5.66134E-06-1.86341E-05-1.22152E-03 2.04926E-04 2.58606E-04



 n o d a l   p r i n t   o u t   f o r   t i m e  s t e p   17002                              ( at time 8.4996494E+00 )

 nodal point  x-disp     y-disp      z-disp      x-vel       y-vel       z-vel      x-accl      y-accl      z-accl      x-coor      y-coor      z-coor
    22626 -4.06491E-02 2.13599E+00-4.31724E-01-5.76814E-03 8.62060E-01 1.87135E-01 9.92600E-03 1.70417E-01 1.58130E-01 4.61873E+00-2.60548E+01-4.54134E+01



 n o d a l   p r i n t   o u t   f o r   t i m e  s t e p   17002                              ( at time 8.4996494E+00 )

 nodal point  x-rot      y-rot       z-rot       x-rot vel   y-rot vel   z-rot vel   x-rot acc   y-rot acc   z-rot acc
    22626 -1.46846E-02-3.03520E-04-5.04392E-04-6.46758E-03 4.77859E-06-1.20584E-05-1.29650E-03-8.82835E-06 6.57638E-05



 n o d a l   p r i n t   o u t   f o r   t i m e  s t e p   17202                              ( at time 8.5996394E+00 )

 nodal point  x-disp     y-disp      z-disp      x-vel       y-vel       z-vel      x-accl      y-accl      z-accl      x-coor      y-coor      z-coor
    22626 -4.12251E-02 2.22306E+00-4.12170E-01-5.53770E-03 8.79249E-01 2.04303E-01 2.30459E-03 1.71909E-01 1.71700E-01 4.61815E+00-2.59678E+01-4.53939E+01



 n o d a l   p r i n t   o u t   f o r   t i m e  s t e p   17202                              ( at time 8.5996394E+00 )

 nodal point  x-rot      y-rot       z-rot       x-rot vel   y-rot vel   z-rot vel   x-rot acc   y-rot acc   z-rot acc
    22626 -1.53375E-02-3.02560E-04-5.04896E-04-6.58601E-03 2.42270E-05 3.32603E-06-1.18448E-03 1.94504E-04 1.53860E-04



 n o d a l   p r i n t   o u t   f o r   t i m e  s t e p   17402                              ( at time 8.6996293E+00 )

 nodal point  x-disp     y-disp      z-disp      x-vel       y-vel       z-vel      x-accl      y-accl      z-accl      x-coor      y-coor      z-coor
    22626 -4.17260E-02 2.31180E+00-3.90879E-01-4.68152E-03 8.95602E-01 2.21614E-01 8.56265E-03 1.63544E-01 1.73121E-01 4.61765E+00-2.58790E+01-4.53726E+01



 n o d a l   p r i n t   o u t   f o r   t i m e  s t e p   17402                              ( at time 8.6996293E+00 )

 nodal point  x-rot      y-rot       z-rot       x-rot vel   y-rot vel   z-rot vel   x-rot acc   y-rot acc   z-rot acc
    22626 -1.60016E-02-3.00244E-04-5.03652E-04-6.69223E-03 2.23491E-05 2.38973E-05-1.06225E-03-1.87812E-05 2.05731E-04



 n o d a l   p r i n t   o u t   f o r   t i m e  s t e p   17602                              ( at time 8.7996193E+00 )

 nodal point  x-disp     y-disp      z-disp      x-vel       y-vel       z-vel      x-accl      y-accl      z-accl      x-coor      y-coor      z-coor
    22626 -4.21212E-02 2.40220E+00-3.67827E-01-3.41494E-03 9.12228E-01 2.39768E-01 1.26670E-02 1.66273E-01 1.81565E-01 4.61725E+00-2.57886E+01-4.53495E+01



 n o d a l   p r i n t   o u t   f o r   t i m e  s t e p   17602                              ( at time 8.7996193E+00 )

 nodal point  x-rot      y-rot       z-rot       x-rot vel   y-rot vel   z-rot vel   x-rot acc   y-rot acc   z-rot acc
    22626 -1.66764E-02-2.97005E-04-5.00371E-04-6.79900E-03 5.01959E-05 4.21856E-05-1.06786E-03 2.78496E-04 1.82902E-04



 n o d a l   p r i n t   o u t   f o r   t i m e  s t e p   17802                              ( at time 8.8996093E+00 )

 nodal point  x-disp     y-disp      z-disp      x-vel       y-vel       z-vel      x-accl      y-accl      z-accl      x-coor      y-coor      z-coor
    22626 -4.24162E-02 2.49421E+00-3.42949E-01-2.74925E-03 9.28306E-01 2.57843E-01 6.65758E-03 1.60801E-01 1.80762E-01 4.61696E+00-2.56966E+01-4.53247E+01



 n o d a l   p r i n t   o u t   f o r   t i m e  s t e p   17802                              ( at time 8.8996093E+00 )

 nodal point  x-rot      y-rot       z-rot       x-rot vel   y-rot vel   z-rot vel   x-rot acc   y-rot acc   z-rot acc
    22626 -1.73619E-02-2.91114E-04-4.95507E-04-6.90619E-03 5.17335E-05 5.40344E-05-1.07202E-03 1.53777E-05 1.18499E-04



 n o d a l   p r i n t   o u t   f o r   t i m e  s t e p   18002                              ( at time 8.9995993E+00 )

 nodal point  x-disp     y-disp      z-disp      x-vel       y-vel       z-vel      x-accl      y-accl      z-accl      x-coor      y-coor      z-coor
    22626 -4.27078E-02 2.58779E+00-3.16229E-01-2.59226E-03 9.43887E-01 2.76916E-01 1.57004E-03 1.55820E-01 1.90757E-01 4.61667E+00-2.56030E+01-4.52980E+01



 n o d a l   p r i n t   o u t   f o r   t i m e  s t e p   18002                              ( at time 8.9995993E+00 )

 nodal point  x-rot      y-rot       z-rot       x-rot vel   y-rot vel   z-rot vel   x-rot acc   y-rot acc   z-rot acc
    22626 -1.80577E-02-2.86104E-04-4.88769E-04-7.00490E-03 5.58257E-05 7.74942E-05-9.87125E-04 4.09260E-05 2.34622E-04



 n o d a l   p r i n t   o u t   f o r   t i m e  s t e p   18202                              ( at time 9.0995893E+00 )

 nodal point  x-disp     y-disp      z-disp      x-vel       y-vel       z-vel      x-accl      y-accl      z-accl      x-coor      y-coor      z-coor
    22626 -4.28779E-02 2.68291E+00-2.87534E-01-5.53283E-04 9.58427E-01 2.97098E-01 2.03918E-02 1.45416E-01 2.01838E-01 4.61650E+00-2.55079E+01-4.52693E+01



 n o d a l   p r i n t   o u t   f o r   t i m e  s t e p   18202                              ( at time 9.0995893E+00 )

 nodal point  x-rot      y-rot       z-rot       x-rot vel   y-rot vel   z-rot vel   x-rot acc   y-rot acc   z-rot acc
    22626 -1.87637E-02-2.78890E-04-4.80032E-04-7.10894E-03 8.48103E-05 9.23250E-05-1.04053E-03 2.89875E-04 1.48324E-04



 n o d a l   p r i n t   o u t   f o r   t i m e  s t e p   18402                              ( at time 9.1995793E+00 )

 nodal point  x-disp     y-disp      z-disp      x-vel       y-vel       z-vel      x-accl      y-accl      z-accl      x-coor      y-coor      z-coor
    22626 -4.28995E-02 2.77946E+00-2.56796E-01-2.05519E-04 9.72767E-01 3.17816E-01 3.47799E-03 1.43417E-01 2.07202E-01 4.61648E+00-2.54114E+01-4.52385E+01



 n o d a l   p r i n t   o u t   f o r   t i m e  s t e p   18402                              ( at time 9.1995793E+00 )

 nodal point  x-rot      y-rot       z-rot       x-rot vel   y-rot vel   z-rot vel   x-rot acc   y-rot acc   z-rot acc
    22626 -1.94804E-02-2.70059E-04-4.70071E-04-7.21672E-03 8.64020E-05 1.05142E-04-1.07793E-03 1.59189E-05 1.28187E-04



 n o d a l   p r i n t   o u t   f o r   t i m e  s t e p   18602                              ( at time 9.2995693E+00 )

 nodal point  x-disp     y-disp      z-disp      x-vel       y-vel       z-vel      x-accl      y-accl      z-accl      x-coor      y-coor      z-coor
    22626 -4.29369E-02 2.87746E+00-2.23893E-01-2.41334E-04 9.86825E-01 3.40180E-01-3.58185E-04 1.40592E-01 2.23659E-01 4.61644E+00-2.53134E+01-4.52056E+01



 n o d a l   p r i n t   o u t   f o r   t i m e  s t e p   18602                              ( at time 9.2995693E+00 )

 nodal point  x-rot      y-rot       z-rot       x-rot vel   y-rot vel   z-rot vel   x-rot acc   y-rot acc   z-rot acc
    22626 -2.02077E-02-2.62173E-04-4.59214E-04-7.32808E-03 7.75083E-05 1.09600E-04-1.11367E-03-8.89462E-05 4.45794E-05



 n o d a l   p r i n t   o u t   f o r   t i m e  s t e p   18802                              ( at time 9.3995593E+00 )

 nodal point  x-disp     y-disp      z-disp      x-vel       y-vel       z-vel      x-accl      y-accl      z-accl      x-coor      y-coor      z-coor
    22626 -4.28918E-02 2.97682E+00-1.88740E-01 1.36480E-03 1.00045E+00 3.62791E-01 1.60630E-02 1.36293E-01 2.26135E-01 4.61648E+00-2.52140E+01-4.51705E+01



 n o d a l   p r i n t   o u t   f o r   t i m e  s t e p   18802                              ( at time 9.3995593E+00 )

 nodal point  x-rot      y-rot       z-rot       x-rot vel   y-rot vel   z-rot vel   x-rot acc   y-rot acc   z-rot acc
    22626 -2.09466E-02-2.53317E-04-4.47895E-04-7.45167E-03 9.81215E-05 1.21132E-04-1.23608E-03 2.06153E-04 1.15337E-04



 n o d a l   p r i n t   o u t   f o r   t i m e  s t e p   19002                              ( at time 9.4995493E+00 )

 nodal point  x-disp     y-disp      z-disp      x-vel       y-vel       z-vel      x-accl      y-accl      z-accl      x-coor      y-coor      z-coor
    22626 -4.26798E-02 3.07752E+00-1.51249E-01 2.30659E-03 1.01324E+00 3.87450E-01 9.41880E-03 1.27920E-01 2.46613E-01 4.61670E+00-2.51133E+01-4.51330E+01



 n o d a l   p r i n t   o u t   f o r   t i m e  s t e p   19002                              ( at time 9.4995493E+00 )

 nodal point  x-rot      y-rot       z-rot       x-rot vel   y-rot vel   z-rot vel   x-rot acc   y-rot acc   z-rot acc
    22626 -2.16981E-02-2.42912E-04-4.34784E-04-7.57614E-03 1.04860E-04 1.35764E-04-1.24484E-03 6.73943E-05 1.46335E-04



 n o d a l   p r i n t   o u t   f o r   t i m e  s t e p   19202                              ( at time 9.5995393E+00 )

 nodal point  x-disp     y-disp      z-disp      x-vel       y-vel       z-vel      x-accl      y-accl      z-accl      x-coor      y-coor      z-coor
    22626 -4.24841E-02 3.17943E+00-1.11198E-01 1.73292E-03 1.02521E+00 4.13360E-01-5.73723E-03 1.19691E-01 2.59123E-01 4.61689E+00-2.50114E+01-4.50929E+01



 n o d a l   p r i n t   o u t   f o r   t i m e  s t e p   19202                              ( at time 9.5995393E+00 )

 nodal point  x-rot      y-rot       z-rot       x-rot vel   y-rot vel   z-rot vel   x-rot acc   y-rot acc   z-rot acc
    22626 -2.24615E-02-2.33375E-04-4.21470E-04-7.69877E-03 9.12669E-05 1.30011E-04-1.22642E-03-1.35946E-04-5.75358E-05



 n o d a l   p r i n t   o u t   f o r   t i m e  s t e p   19402                              ( at time 9.6995293E+00 )

 nodal point  x-disp     y-disp      z-disp      x-vel       y-vel       z-vel      x-accl      y-accl      z-accl      x-coor      y-coor      z-coor
    22626 -4.22642E-02 3.28254E+00-6.85394E-02 3.04681E-03 1.03699E+00 4.40329E-01 1.31403E-02 1.17840E-01 2.69719E-01 4.61711E+00-2.49083E+01-4.50503E+01



 n o d a l   p r i n t   o u t   f o r   t i m e  s t e p   19402                              ( at time 9.6995293E+00 )

 nodal point  x-rot      y-rot       z-rot       x-rot vel   y-rot vel   z-rot vel   x-rot acc   y-rot acc   z-rot acc
    22626 -2.32381E-02-2.23409E-04-4.07607E-04-7.83666E-03 1.14260E-04 1.47982E-04-1.37900E-03 2.29951E-04 1.79725E-04



 n o d a l   p r i n t   o u t   f o r   t i m e  s t e p   19602                              ( at time 9.7995193E+00 )

 nodal point  x-disp     y-disp      z-disp      x-vel       y-vel       z-vel      x-accl      y-accl      z-accl      x-coor      y-coor      z-coor
    22626 -4.19166E-02 3.38677E+00-2.31123E-02 3.53444E-03 1.04753E+00 4.68176E-01 4.87682E-03 1.05387E-01 2.78494E-01 4.61746E+00-2.48041E+01-4.50048E+01



 n o d a l   p r i n t   o u t   f o r   t i m e  s t e p   19602                              ( at time 9.7995193E+00 )

 nodal point  x-rot      y-rot       z-rot       x-rot vel   y-rot vel   z-rot vel   x-rot acc   y-rot acc   z-rot acc
    22626 -2.40294E-02-2.11630E-04-3.92377E-04-7.99004E-03 1.09335E-04 1.50213E-04-1.53396E-03-4.92562E-05 2.23150E-05



 n o d a l   p r i n t   o u t   f o r   t i m e  s t e p   19802                              ( at time 9.8995093E+00 )

 nodal point  x-disp     y-disp      z-disp      x-vel       y-vel       z-vel      x-accl      y-accl      z-accl      x-coor      y-coor      z-coor
    22626 -4.16043E-02 3.49204E+00 2.51377E-02 2.58544E-03 1.05785E+00 4.97035E-01-9.49099E-03 1.03209E-01 2.88624E-01 4.61777E+00-2.46988E+01-4.49566E+01



 n o d a l   p r i n t   o u t   f o r   t i m e  s t e p   19802                              ( at time 9.8995093E+00 )

 nodal point  x-rot      y-rot       z-rot       x-rot vel   y-rot vel   z-rot vel   x-rot acc   y-rot acc   z-rot acc
    22626 -2.48360E-02-2.01502E-04-3.77968E-04-8.14332E-03 9.57936E-05 1.42006E-04-1.53296E-03-1.35423E-04-8.20827E-05



 n o d a l   p r i n t   o u t   f o r   t i m e  s t e p   20003                              ( at time 9.9999992E+00 )

 nodal point  x-disp     y-disp      z-disp      x-vel       y-vel       z-vel      x-accl      y-accl      z-accl      x-coor      y-coor      z-coor
[...]
    22626 -2.06293E-01 1.60065E-04-7.48882E-04-1.83611E-02 1.46987E-04 6.65617E-05 9.85430E-06 1.28969E-04 1.86383E-05



 n o d a l   p r i n t   o u t   f o r   t i m e  s t e p   45205                              ( at time 2.2599738E+01 )

 nodal point  x-disp     y-disp      z-disp      x-vel       y-vel       z-vel      x-accl      y-accl      z-accl      x-coor      y-coor      z-coor
    22626 -6.99524E-03 2.12625E+01 1.80573E+01-5.25301E-03 1.71469E+00 9.21201E-01-5.87280E-03 1.24204E-02-1.10189E-01 4.65238E+00-6.92835E+00-2.69244E+01



 n o d a l   p r i n t   o u t   f o r   t i m e  s t e p   45205                              ( at time 2.2599738E+01 )

 nodal point  x-rot      y-rot       z-rot       x-rot vel   y-rot vel   z-rot vel   x-rot acc   y-rot acc   z-rot acc
    22626 -2.08130E-01 1.74687E-04-7.42334E-04-1.83810E-02 1.35072E-04 7.00504E-05-1.98725E-04-1.19162E-04 3.48905E-05



 n o d a l   p r i n t   o u t   f o r   t i m e  s t e p   45405                              ( at time 2.2699728E+01 )

 nodal point  x-disp     y-disp      z-disp      x-vel       y-vel       z-vel      x-accl      y-accl      z-accl      x-coor      y-coor      z-coor
    22626 -7.51163E-03 2.14341E+01 1.81488E+01-5.23285E-03 1.71844E+00 9.09735E-01 2.01626E-04 3.75682E-02-1.14668E-01 4.65186E+00-6.75674E+00-2.68329E+01



 n o d a l   p r i n t   o u t   f o r   t i m e  s t e p   45405                              ( at time 2.2699728E+01 )

 nodal point  x-rot      y-rot       z-rot       x-rot vel   y-rot vel   z-rot vel   x-rot acc   y-rot acc   z-rot acc
    22626 -2.09968E-01 1.87865E-04-7.35591E-04-1.83861E-02 1.35273E-04 6.80600E-05-5.13029E-05 2.00897E-06-1.99055E-05



 n o d a l   p r i n t   o u t   f o r   t i m e  s t e p   45605                              ( at time 2.2799718E+01 )

 nodal point  x-disp     y-disp      z-disp      x-vel       y-vel       z-vel      x-accl      y-accl      z-accl      x-coor      y-coor      z-coor
    22626 -8.02648E-03 2.16060E+01 1.82393E+01-4.65159E-03 1.72049E+00 8.99967E-01 5.81318E-03 2.04701E-02-9.76932E-02 4.65135E+00-6.58484E+00-2.67424E+01



 n o d a l   p r i n t   o u t   f o r   t i m e  s t e p   45605                              ( at time 2.2799718E+01 )

 nodal point  x-rot      y-rot       z-rot       x-rot vel   y-rot vel   z-rot vel   x-rot acc   y-rot acc   z-rot acc
    22626 -2.11805E-01 2.01888E-04-7.28451E-04-1.83696E-02 1.45693E-04 6.44153E-05 1.65027E-04 1.04205E-04-3.64507E-05



 n o d a l   p r i n t   o u t   f o r   t i m e  s t e p   45805                              ( at time 2.2899708E+01 )

 nodal point  x-disp     y-disp      z-disp      x-vel       y-vel       z-vel      x-accl      y-accl      z-accl      x-coor      y-coor      z-coor
    22626 -8.48467E-03 2.17781E+01 1.83288E+01-5.27100E-03 1.72172E+00 8.90449E-01-6.19479E-03 1.22573E-02-9.51866E-02 4.65089E+00-6.41276E+00-2.66530E+01



 n o d a l   p r i n t   o u t   f o r   t i m e  s t e p   45805                              ( at time 2.2899708E+01 )

 nodal point  x-rot      y-rot       z-rot       x-rot vel   y-rot vel   z-rot vel   x-rot acc   y-rot acc   z-rot acc
    22626 -2.13642E-01 2.15825E-04-7.21946E-04-1.83866E-02 1.35576E-04 7.16996E-05-1.70153E-04-1.01176E-04 7.28506E-05



 n o d a l   p r i n t   o u t   f o r   t i m e  s t e p   46005                              ( at time 2.2999698E+01 )

 nodal point  x-disp     y-disp      z-disp      x-vel       y-vel       z-vel      x-accl      y-accl      z-accl      x-coor      y-coor      z-coor
    22626 -8.99295E-03 2.19503E+01 1.84174E+01-5.14179E-03 1.72377E+00 8.82317E-01 1.29219E-03 2.05869E-02-8.13302E-02 4.65038E+00-6.24053E+00-2.65643E+01



 n o d a l   p r i n t   o u t   f o r   t i m e  s t e p   46005                              ( at time 2.2999698E+01 )

 nodal point  x-rot      y-rot       z-rot       x-rot vel   y-rot vel   z-rot vel   x-rot acc   y-rot acc   z-rot acc
    22626 -2.15479E-01 2.30171E-04-7.14633E-04-1.83645E-02 1.42458E-04 6.67437E-05 2.20706E-04 6.88236E-05-4.95635E-05



 n o d a l   p r i n t   o u t   f o r   t i m e  s t e p   46205                              ( at time 2.3099688E+01 )

 nodal point  x-disp     y-disp      z-disp      x-vel       y-vel       z-vel      x-accl      y-accl      z-accl      x-coor      y-coor      z-coor
    22626 -9.50517E-03 2.21227E+01 1.85052E+01-5.38801E-03 1.72517E+00 8.73780E-01-2.46248E-03 1.40086E-02-8.53812E-02 4.64987E+00-6.06809E+00-2.64766E+01



 n o d a l   p r i n t   o u t   f o r   t i m e  s t e p   46205                              ( at time 2.3099688E+01 )

 nodal point  x-rot      y-rot       z-rot       x-rot vel   y-rot vel   z-rot vel   x-rot acc   y-rot acc   z-rot acc
    22626 -2.17314E-01 2.43344E-04-7.07655E-04-1.83409E-02 1.32742E-04 6.39296E-05 2.36191E-04-9.71669E-05-2.81443E-05



 n o d a l   p r i n t   o u t   f o r   t i m e  s t e p   46405                              ( at time 2.3199678E+01 )

 nodal point  x-disp     y-disp      z-disp      x-vel       y-vel       z-vel      x-accl      y-accl      z-accl      x-coor      y-coor      z-coor
    22626 -1.00356E-02 2.22953E+01 1.85922E+01-4.69767E-03 1.72599E+00 8.67715E-01 6.90403E-03 8.15228E-03-6.06580E-02 4.64934E+00-5.89554E+00-2.63895E+01



 n o d a l   p r i n t   o u t   f o r   t i m e  s t e p   46405                              ( at time 2.3199678E+01 )

 nodal point  x-rot      y-rot       z-rot       x-rot vel   y-rot vel   z-rot vel   x-rot acc   y-rot acc   z-rot acc
    22626 -2.19147E-01 2.57068E-04-7.00691E-04-1.83337E-02 1.46732E-04 7.34483E-05 7.22400E-05 1.39906E-04 9.51963E-05



 n o d a l   p r i n t   o u t   f o r   t i m e  s t e p   46605                              ( at time 2.3299668E+01 )

 nodal point  x-disp     y-disp      z-disp      x-vel       y-vel       z-vel      x-accl      y-accl      z-accl      x-coor      y-coor      z-coor
    22626 -1.05083E-02 2.24679E+01 1.86786E+01-5.06439E-03 1.72707E+00 8.60380E-01-3.66760E-03 1.07634E-02-7.33570E-02 4.64887E+00-5.72290E+00-2.63031E+01



 n o d a l   p r i n t   o u t   f o r   t i m e  s t e p   46605                              ( at time 2.3299668E+01 )

 nodal point  x-rot      y-rot       z-rot       x-rot vel   y-rot vel   z-rot vel   x-rot acc   y-rot acc   z-rot acc
    22626 -2.20980E-01 2.71811E-04-6.93509E-04-1.83156E-02 1.38680E-04 6.21185E-05 1.81069E-04-8.05217E-05-1.13311E-04



 n o d a l   p r i n t   o u t   f o r   t i m e  s t e p   46805                              ( at time 2.3399658E+01 )

 nodal point  x-disp     y-disp      z-disp      x-vel       y-vel       z-vel      x-accl      y-accl      z-accl      x-coor      y-coor      z-coor
    22626 -1.10717E-02 2.26407E+01 1.87644E+01-5.42719E-03 1.72823E+00 8.56014E-01-3.62834E-03 1.16728E-02-4.36632E-02 4.64830E+00-5.55013E+00-2.62173E+01



 n o d a l   p r i n t   o u t   f o r   t i m e  s t e p   46805                              ( at time 2.3399658E+01 )

 nodal point  x-rot      y-rot       z-rot       x-rot vel   y-rot vel   z-rot vel   x-rot acc   y-rot acc   z-rot acc
    22626 -2.22809E-01 2.84420E-04-6.87038E-04-1.82842E-02 1.22667E-04 7.15871E-05 3.13791E-04-1.60145E-04 9.46948E-05



 n o d a l   p r i n t   o u t   f o r   t i m e  s t e p   47005                              ( at time 2.3499648E+01 )

 nodal point  x-disp     y-disp      z-disp      x-vel       y-vel       z-vel      x-accl      y-accl      z-accl      x-coor      y-coor      z-coor
    22626 -1.15607E-02 2.28135E+01 1.88498E+01-4.79596E-03 1.72825E+00 8.50902E-01 6.31284E-03 2.11020E-04-5.11210E-02 4.64781E+00-5.37731E+00-2.61320E+01



 n o d a l   p r i n t   o u t   f o r   t i m e  s t e p   47005                              ( at time 2.3499648E+01 )

 nodal point  x-rot      y-rot       z-rot       x-rot vel   y-rot vel   z-rot vel   x-rot acc   y-rot acc   z-rot acc
    22626 -2.24636E-01 2.98015E-04-6.79816E-04-1.82598E-02 1.41365E-04 7.55179E-05 2.44513E-04 1.86995E-04 3.93114E-05



 n o d a l   p r i n t   o u t   f o r   t i m e  s t e p   47205                              ( at time 2.3599638E+01 )

 nodal point  x-disp     y-disp      z-disp      x-vel       y-vel       z-vel      x-accl      y-accl      z-accl      x-coor      y-coor      z-coor
    22626 -1.20464E-02 2.29864E+01 1.89347E+01-5.01051E-03 1.72871E+00 8.47294E-01-2.14573E-03 4.51257E-03-3.60892E-02 4.64733E+00-5.20446E+00-2.60471E+01



 n o d a l   p r i n t   o u t   f o r   t i m e  s t e p   47205                              ( at time 2.3599638E+01 )

 nodal point  x-rot      y-rot       z-rot       x-rot vel   y-rot vel   z-rot vel   x-rot acc   y-rot acc   z-rot acc
    22626 -2.26460E-01 3.11963E-04-6.73499E-04-1.82364E-02 1.32219E-04 6.07301E-05 2.33751E-04-9.14705E-05-1.47894E-04



 n o d a l   p r i n t   o u t   f o r   t i m e  s t e p   47405                              ( at time 2.3699628E+01 )

 nodal point  x-disp     y-disp      z-disp      x-vel       y-vel       z-vel      x-accl      y-accl      z-accl      x-coor      y-coor      z-coor
    22626 -1.25644E-02 2.31592E+01 1.90192E+01-5.04530E-03 1.72907E+00 8.44527E-01-3.47960E-04 3.60045E-03-2.76728E-02 4.64681E+00-5.03162E+00-2.59625E+01



 n o d a l   p r i n t   o u t   f o r   t i m e  s t e p   47405                              ( at time 2.3699628E+01 )

 nodal point  x-rot      y-rot       z-rot       x-rot vel   y-rot vel   z-rot vel   x-rot acc   y-rot acc   z-rot acc
    22626 -2.28282E-01 3.24823E-04-6.66493E-04-1.81876E-02 1.25385E-04 7.00443E-05 4.87667E-04-6.83483E-05 9.31506E-05



 n o d a l   p r i n t   o u t   f o r   t i m e  s t e p   47605                              ( at time 2.3799618E+01 )

 nodal point  x-disp     y-disp      z-disp      x-vel       y-vel       z-vel      x-accl      y-accl      z-accl      x-coor      y-coor      z-coor
    22626 -1.30607E-02 2.33321E+01 1.91035E+01-4.84162E-03 1.72842E+00 8.41859E-01 2.03707E-03-6.50120E-03-2.66790E-02 4.64631E+00-4.85877E+00-2.58782E+01



 n o d a l   p r i n t   o u t   f o r   t i m e  s t e p   47605                              ( at time 2.3799618E+01 )

 nodal point  x-rot      y-rot       z-rot       x-rot vel   y-rot vel   z-rot vel   x-rot acc   y-rot acc   z-rot acc
    22626 -2.30098E-01 3.37702E-04-6.59993E-04-1.81507E-02 1.30354E-04 6.01474E-05 3.69478E-04 4.97004E-05-9.89796E-05



 n o d a l   p r i n t   o u t   f o r   t i m e  s t e p   47805                              ( at time 2.3899608E+01 )

 nodal point  x-disp     y-disp      z-disp      x-vel       y-vel       z-vel      x-accl      y-accl      z-accl      x-coor      y-coor      z-coor
    22626 -1.35548E-02 2.35048E+01 1.91876E+01-4.68763E-03 1.72752E+00 8.40939E-01 1.54001E-03-8.96536E-03-9.20082E-03 4.64582E+00-4.68600E+00-2.57941E+01



 n o d a l   p r i n t   o u t   f o r   t i m e  s t e p   47805                              ( at time 2.3899608E+01 )

 nodal point  x-rot      y-rot       z-rot       x-rot vel   y-rot vel   z-rot vel   x-rot acc   y-rot acc   z-rot acc
    22626 -2.31912E-01 3.50852E-04-6.53310E-04-1.81209E-02 1.36460E-04 7.37568E-05 2.97585E-04 6.10622E-05 1.36106E-04



 n o d a l   p r i n t   o u t   f o r   t i m e  s t e p   48005                              ( at time 2.3999598E+01 )

 nodal point  x-disp     y-disp      z-disp      x-vel       y-vel       z-vel      x-accl      y-accl      z-accl      x-coor      y-coor      z-coor
    22626 -1.40173E-02 2.36775E+01 1.92716E+01-5.14293E-03 1.72663E+00 8.39718E-01-4.55350E-03-8.88207E-03-1.22149E-02 4.64536E+00-4.51329E+00-2.57101E+01



 n o d a l   p r i n t   o u t   f o r   t i m e  s t e p   48005                              ( at time 2.3999598E+01 )

 nodal point  x-rot      y-rot       z-rot       x-rot vel   y-rot vel   z-rot vel   x-rot acc   y-rot acc   z-rot acc
    22626 -2.33721E-01 3.63936E-04-6.46649E-04-1.80741E-02 1.30931E-04 6.37481E-05 4.68656E-04-5.52944E-05-1.00098E-04



 n o d a l   p r i n t   o u t   f o r   t i m e  s t e p   48205                              ( at time 2.4099588E+01 )

 nodal point  x-disp     y-disp      z-disp      x-vel       y-vel       z-vel      x-accl      y-accl      z-accl      x-coor      y-coor      z-coor
    22626 -1.45098E-02 2.38501E+01 1.93556E+01-4.38759E-03 1.72567E+00 8.39481E-01 7.55410E-03-9.58292E-03-2.37010E-03 4.64487E+00-4.34069E+00-2.56261E+01



 n o d a l   p r i n t   o u t   f o r   t i m e  s t e p   48205                              ( at time 2.4099588E+01 )

 nodal point  x-rot      y-rot       z-rot       x-rot vel   y-rot vel   z-rot vel   x-rot acc   y-rot acc   z-rot acc
    22626 -2.35526E-01 3.76247E-04-6.40372E-04-1.80330E-02 1.22071E-04 6.70872E-05 4.10863E-04-8.86137E-05 3.33949E-05



 n o d a l   p r i n t   o u t   f o r   t i m e  s t e p   48405                              ( at time 2.4199578E+01 )

 nodal point  x-disp     y-disp      z-disp      x-vel       y-vel       z-vel      x-accl      y-accl      z-accl      x-coor      y-coor      z-coor
    22626 -1.49352E-02 2.40226E+01 1.94395E+01-4.77890E-03 1.72350E+00 8.40029E-01-3.91350E-03-2.17045E-02 5.47887E-03 4.64444E+00-4.16825E+00-2.55422E+01



 n o d a l   p r i n t   o u t   f o r   t i m e  s t e p   48405                              ( at time 2.4199578E+01 )

 nodal point  x-rot      y-rot       z-rot       x-rot vel   y-rot vel   z-rot vel   x-rot acc   y-rot acc   z-rot acc
    22626 -2.37327E-01 3.88739E-04-6.33965E-04-1.79908E-02 1.31637E-04 6.35841E-05 4.21992E-04 9.56724E-05-3.50350E-05



 n o d a l   p r i n t   o u t   f o r   t i m e  s t e p   48605                              ( at time 2.4299568E+01 )

 nodal point  x-disp     y-disp      z-disp      x-vel       y-vel       z-vel      x-accl      y-accl      z-accl      x-coor      y-coor      z-coor
    22626 -1.53992E-02 2.41948E+01 1.95236E+01-4.00447E-03 1.72208E+00 8.41466E-01 7.74495E-03-1.42587E-02 1.43720E-02 4.64398E+00-3.99599E+00-2.54581E+01



 n o d a l   p r i n t   o u t   f o r   t i m e  s t e p   48605                              ( at time 2.4299568E+01 )

 nodal point  x-rot      y-rot       z-rot       x-rot vel   y-rot vel   z-rot vel   x-rot acc   y-rot acc   z-rot acc
    22626 -2.39123E-01 4.01737E-04-6.27626E-04-1.79407E-02 1.19182E-04 6.32086E-05 5.00893E-04-1.24558E-04-3.75576E-06



 n o d a l   p r i n t   o u t   f o r   t i m e  s t e p   48805                              ( at time 2.4399558E+01 )

 nodal point  x-disp     y-disp      z-disp      x-vel       y-vel       z-vel      x-accl      y-accl      z-accl      x-coor      y-coor      z-coor
    22626 -1.58407E-02 2.43669E+01 1.96078E+01-4.69004E-03 1.71964E+00 8.42661E-01-6.85628E-03-2.44044E-02 1.19566E-02 4.64353E+00-3.82391E+00-2.53739E+01



 n o d a l   p r i n t   o u t   f o r   t i m e  s t e p   48805                              ( at time 2.4399558E+01 )

 nodal point  x-rot      y-rot       z-rot       x-rot vel   y-rot vel   z-rot vel   x-rot acc   y-rot acc   z-rot acc
    22626 -2.40914E-01 4.14174E-04-6.21272E-04-1.78952E-02 1.29232E-04 6.24628E-05 4.55049E-04 1.00504E-04-7.45832E-06



 n o d a l   p r i n t   o u t   f o r   t i m e  s t e p   49006                              ( at time 2.4500048E+01 )

 nodal point  x-disp     y-disp      z-disp      x-vel       y-vel       z-vel      x-accl      y-accl      z-accl      x-coor      y-coor      z-coor
    22626 -1.63123E-02 2.45396E+01 1.96926E+01-4.40946E-03 1.71693E+00 8.45761E-01 2.79215E-03-2.69574E-02 3.08437E-02 4.64306E+00-3.65122E+00-2.52891E+01



 n o d a l   p r i n t   o u t   f o r   t i m e  s t e p   49006                              ( at time 2.4500048E+01 )

 nodal point  x-rot      y-rot       z-rot       x-rot vel   y-rot vel   z-rot vel   x-rot acc   y-rot acc   z-rot acc
    22626 -2.42710E-01 4.27331E-04-6.14676E-04-1.78437E-02 1.23053E-04 6.70989E-05 5.12888E-04-6.14897E-05 4.61349E-05



 n o d a l   p r i n t   o u t   f o r   t i m e  s t e p   49206                              ( at time 2.4600038E+01 )

 nodal point  x-disp     y-disp      z-disp      x-vel       y-vel       z-vel      x-accl      y-accl      z-accl      x-coor      y-coor      z-coor
    22626 -1.67308E-02 2.47111E+01 1.97774E+01-4.33217E-03 1.71447E+00 8.49655E-01 7.73003E-04-2.45391E-02 3.89516E-02 4.64264E+00-3.47968E+00-2.52043E+01



 n o d a l   p r i n t   o u t   f o r   t i m e  s t e p   49206                              ( at time 2.4600038E+01 )

 nodal point  x-rot      y-rot       z-rot       x-rot vel   y-rot vel   z-rot vel   x-rot acc   y-rot acc   z-rot acc
    22626 -2.44491E-01 4.39344E-04-6.08466E-04-1.78006E-02 1.26446E-04 6.38407E-05 4.31018E-04 3.39337E-05-3.25844E-05



 n o d a l   p r i n t   o u t   f o r   t i m e  s t e p   49406                              ( at time 2.4700028E+01 )

 nodal point  x-disp     y-disp      z-disp      x-vel       y-vel       z-vel      x-accl      y-accl      z-accl      x-coor      y-coor      z-coor
    22626 -1.71770E-02 2.48824E+01 1.98625E+01-4.59800E-03 1.71121E+00 8.53056E-01-2.65868E-03-3.26443E-02 3.40088E-02 4.64220E+00-3.30843E+00-2.51192E+01



 n o d a l   p r i n t   o u t   f o r   t i m e  s t e p   49406                              ( at time 2.4700028E+01 )

 nodal point  x-rot      y-rot       z-rot       x-rot vel   y-rot vel   z-rot vel   x-rot acc   y-rot acc   z-rot acc
    22626 -2.46268E-01 4.52565E-04-6.02074E-04-1.77337E-02 1.37220E-04 6.11968E-05 6.69024E-04 1.07754E-04-2.64418E-05



 n o d a l   p r i n t   o u t   f o r   t i m e  s t e p   49606                              ( at time 2.4800018E+01 )

 nodal point  x-disp     y-disp      z-disp      x-vel       y-vel       z-vel      x-accl      y-accl      z-accl      x-coor      y-coor      z-coor
    22626 -1.75912E-02 2.50533E+01 1.99480E+01-4.13404E-03 1.70771E+00 8.57988E-01 4.64009E-03-3.49661E-02 4.93232E-02 4.64178E+00-3.13751E+00-2.50337E+01



 n o d a l   p r i n t   o u t   f o r   t i m e  s t e p   49606                              ( at time 2.4800018E+01 )

 nodal point  x-rot      y-rot       z-rot       x-rot vel   y-rot vel   z-rot vel   x-rot acc   y-rot acc   z-rot acc
    22626 -2.48039E-01 4.64918E-04-5.96393E-04-1.76868E-02 1.13872E-04 5.75664E-05 4.69057E-04-2.33499E-04-3.63074E-05



 n o d a l   p r i n t   o u t   f o r   t i m e  s t e p   49806                              ( at time 2.4900008E+01 )

 nodal point  x-disp     y-disp      z-disp      x-vel       y-vel       z-vel      x-accl      y-accl      z-accl      x-coor      y-coor      z-coor
    22626 -1.80240E-02 2.52239E+01 2.00341E+01-3.97051E-03 1.70363E+00 8.62748E-01 1.63550E-03-4.08099E-02 4.76055E-02 4.64135E+00-2.96698E+00-2.49477E+01



 n o d a l   p r i n t   o u t   f o r   t i m e  s t e p   49806                              ( at time 2.4900008E+01 )

 nodal point  x-rot      y-rot       z-rot       x-rot vel   y-rot vel   z-rot vel   x-rot acc   y-rot acc   z-rot acc
    22626 -2.49805E-01 4.76921E-04-5.90102E-04-1.76376E-02 1.24031E-04 5.80394E-05 4.92165E-04 1.01601E-04 4.73011E-06



 n o d a l   p r i n t   o u t   f o r   t i m e  s t e p   50006                              ( at time 2.4999998E+01 )

 nodal point  x-disp     y-disp      z-disp      x-vel       y-vel       z-vel      x-accl      y-accl      z-accl      x-coor      y-coor      z-coor
    22626 -1.84277E-02 2.53940E+01 2.01206E+01-3.92685E-03 1.70022E+00 8.67986E-01 4.36644E-04-3.41196E-02 5.23842E-02 4.64095E+00-2.79679E+00-2.48612E+01



 n o d a l   p r i n t   o u t   f o r   t i m e  s t e p   50006                              ( at time 2.4999998E+01 )

 nodal point  x-rot      y-rot       z-rot       x-rot vel   y-rot vel   z-rot vel   x-rot acc   y-rot acc   z-rot acc
    22626 -2.51564E-01 4.89378E-04-5.84275E-04-1.75808E-02 1.21522E-04 5.39215E-05 5.67339E-04-2.50951E-05-4.11831E-05
