 LSTC 50th% Full_FE H-III Dummy (Beta Version, February 17, 2019)        
                    ls-dyna smp s R16 R16.0_619_d222963 date 03/18/2025

{BEGIN LEGEND}
 Entity #        Title
        1     Upper_Neck_Force_INJURY                                              
{END LEGEND}



 line#1  section#     time        x-force     y-force     z-force    magnitude
 line#2  resultant  moments       x-moment    y-moment    z-moment   magnitude
 line#3  centroids                x           y           z            area  
           1    0.00000E+00     0.0000E+00  0.0000E+00  0.0000E+00  0.0000E+00
ac ID =   33377                 0.0000E+00  0.0000E+00  0.0000E+00  0.0000E+00
                               -3.7437E-01  1.0501E+01 -4.6940E+01  0.0000E+00

           1    1.00490E-01     1.3627E-04 -4.9877E-03  2.5982E-01  2.5987E-01
ac ID =   33377                 4.2550E-01 -1.2521E+00 -2.7103E-02  1.3227E+00
                               -3.7387E-01  1.0590E+01 -4.6886E+01  2.5147E+03

           1    2.00480E-01    -4.4364E-02  5.7011E-04  4.4098E-01  4.4320E-01
ac ID =   33377                 3.0853E-01 -1.5993E+00  2.1898E-02  1.6289E+00
                               -3.7386E-01  1.0591E+01 -4.6888E+01  2.5147E+03

           1    3.00470E-01     1.5046E-02 -3.1804E-03  2.1743E-01  2.1797E-01
ac ID =   33377                 2.3992E-02 -3.3866E-01  6.8242E-02  3.4630E-01
                               -3.7382E-01  1.0591E+01 -4.6889E+01  2.5147E+03

           1    4.00460E-01     2.8177E-03  1.0259E-02  8.7920E-02  8.8561E-02
ac ID =   33377                -4.9941E-01 -9.4615E-01 -5.6839E-03  1.0699E+00
                               -3.7383E-01  1.0592E+01 -4.6890E+01  2.5147E+03

           1    5.00450E-01    -4.0586E-02  4.2717E-03  1.6168E-01  1.6675E-01
ac ID =   33377                -3.9627E-01 -1.5017E+00 -1.1043E-01  1.5570E+00
                               -3.7385E-01  1.0594E+01 -4.6893E+01  2.5147E+03

           1    6.00440E-01    -1.1016E-02  4.2096E-03  3.4331E-01  3.4352E-01
ac ID =   33377                 9.3573E-02 -1.3240E+00 -3.2717E-02  1.3277E+00
                               -3.7385E-01  1.0595E+01 -4.6897E+01  2.5147E+03

           1    7.00430E-01     2.5869E-03 -5.2379E-03  2.9433E-01  2.9438E-01
ac ID =   33377                 1.3448E-01 -5.0088E-01  8.3678E-02  5.2533E-01
                               -3.7389E-01  1.0597E+01 -4.6901E+01  2.5147E+03

           1    8.00420E-01    -3.0752E-02 -1.2589E-03  1.0060E-01  1.0520E-01
ac ID =   33377                 8.4023E-02 -1.0547E+00  5.3727E-02  1.0594E+00
                               -3.7394E-01  1.0599E+01 -4.6905E+01  2.5147E+03

           1    9.00410E-01    -3.9180E-02  9.7093E-04  6.2544E-02  7.3809E-02
ac ID =   33377                 9.1600E-02 -1.0703E+00 -7.1288E-04  1.0743E+00
                               -3.7399E-01  1.0601E+01 -4.6909E+01  2.5147E+03

           1    1.00040E+00     1.5089E-02 -3.7465E-03  2.2055E-01  2.2110E-01
ac ID =   33377                 3.6441E-01 -2.9196E-01 -5.8122E-02  4.7054E-01
                               -3.7400E-01  1.0604E+01 -4.6915E+01  2.5147E+03

           1    1.10039E+00    -4.6842E-05 -3.2280E-03  2.7107E-01  2.7108E-01
ac ID =   33377                 3.4647E-01 -8.8416E-01 -5.7121E-02  9.5134E-01
                               -3.7401E-01  1.0607E+01 -4.6921E+01  2.5147E+03

           1    1.20038E+00    -3.2297E-02 -5.1011E-04  1.2881E-01  1.3280E-01
ac ID =   33377                -1.5135E-01 -1.1780E+00  1.0224E-02  1.1878E+00
                               -3.7403E-01  1.0610E+01 -4.6927E+01  2.5147E+03

           1    1.30037E+00    -1.0657E-02  4.7329E-03  7.4850E-02  7.5753E-02
ac ID =   33377                -3.0185E-01 -8.8712E-01  1.6764E-02  9.3722E-01
                               -3.7407E-01  1.0612E+01 -4.6933E+01  2.5147E+03

           1    1.40036E+00     7.9558E-03  3.6723E-03  1.7376E-01  1.7398E-01
ac ID =   33377                -2.9243E-01 -8.3425E-01  3.1963E-02  8.8459E-01
                               -3.7409E-01  1.0616E+01 -4.6941E+01  2.5147E+03

           1    1.50035E+00    -2.6927E-02  1.0646E-03  3.2849E-01  3.2959E-01
ac ID =   33377                -2.1553E-02 -1.5843E+00 -4.5129E-02  1.5851E+00
                               -3.7413E-01  1.0620E+01 -4.6949E+01  2.5147E+03

           1    1.60034E+00    -1.9044E-02 -2.2215E-03  2.2100E-01  2.2183E-01
ac ID =   33377                -2.2727E-02 -1.3667E+00 -1.3070E-02  1.3669E+00
                               -3.7419E-01  1.0624E+01 -4.6957E+01  2.5147E+03

           1    1.70033E+00    -2.7521E-03 -4.0916E-04  5.8837E-02  5.8903E-02
ac ID =   33377                -4.1887E-02 -6.6878E-01  8.6100E-02  6.7560E-01
                               -3.7427E-01  1.0627E+01 -4.6965E+01  2.5147E+03

           1    1.80032E+00    -2.0446E-02  9.4565E-04  7.7587E-02  8.0241E-02
ac ID =   33377                 8.4329E-02 -1.1118E+00  1.2602E-01  1.1221E+00
                               -3.7434E-01  1.0632E+01 -4.6974E+01  2.5147E+03

           1    1.90031E+00    -7.5426E-03 -2.8213E-03  1.9146E-01  1.9163E-01
ac ID =   33377                 2.6972E-01 -8.2934E-01 -6.9943E-02  8.7489E-01
                               -3.7439E-01  1.0636E+01 -4.6984E+01  2.5147E+03

           1    2.00030E+00    -1.9431E-03 -4.5265E-03  1.5659E-01  1.5667E-01
ac ID =   33377                 2.0457E-01 -4.4979E-01 -1.4206E-01  5.1414E-01
                               -3.7444E-01  1.0641E+01 -4.6993E+01  2.5147E+03

           1    2.10029E+00    -2.5542E-02  2.4252E-03  2.6998E-03  2.5798E-02
ac ID =   33377                -7.1556E-02 -6.9408E-01  4.1713E-02  6.9901E-01
                               -3.7450E-01  1.0645E+01 -4.7003E+01  2.5147E+03

           1    2.20028E+00    -1.3038E-02  5.2933E-03  3.3751E-03  1.4470E-02
ac ID =   33377                -2.3804E-01 -6.5844E-01  2.4532E-02  7.0058E-01
                               -3.7456E-01  1.0650E+01 -4.7013E+01  2.5147E+03

           1    2.30027E+00     1.3017E-03  4.8091E-03  1.4892E-01  1.4900E-01
ac ID =   33377                -1.5056E-01 -8.1253E-01 -6.1838E-02  8.2868E-01
                               -3.7462E-01  1.0655E+01 -4.7024E+01  2.5147E+03

           1    2.40026E+00    -1.7512E-02 -1.6039E-03  1.8871E-01  1.8953E-01
ac ID =   33377                -1.5058E-01 -1.1829E+00  7.3948E-02  1.1947E+00
                               -3.7469E-01  1.0661E+01 -4.7035E+01  2.5147E+03

           1    2.50025E+00    -1.8569E-02  1.1769E-03  3.6967E-04  1.8609E-02
ac ID =   33377                -1.9576E-01 -8.9184E-01  1.2894E-01  9.2213E-01
                               -3.7479E-01  1.0665E+01 -4.7045E+01  2.5147E+03

           1    2.60024E+00    -6.5480E-03  5.9346E-03 -7.6914E-02  7.7420E-02
ac ID =   33377                -2.0985E-01 -1.8372E-01  3.5630E-02  2.8118E-01
                               -3.7490E-01  1.0671E+01 -4.7056E+01  2.5147E+03

           1    2.70023E+00    -1.1825E-02 -1.4747E-03  1.0143E-02  1.5649E-02
ac ID =   33377                 3.1733E-02 -2.1809E-01  3.4475E-02  2.2307E-01
                               -3.7501E-01  1.0676E+01 -4.7068E+01  2.5147E+03

           1    2.80022E+00    -5.4563E-03 -4.7276E-03  6.3423E-02  6.3833E-02
ac ID =   33377                 3.7125E-01 -1.3940E-01 -1.9726E-02  3.9704E-01
                               -3.7511E-01  1.0682E+01 -4.7079E+01  2.5147E+03

           1    2.90021E+00     5.2976E-03 -2.4629E-03 -9.9004E-03  1.1496E-02
ac ID =   33377                 1.4781E-01  3.1328E-01 -8.0030E-02  3.5552E-01
                               -3.7520E-01  1.0687E+01 -4.7090E+01  2.5147E+03

           1    3.00020E+00    -6.5040E-03  2.5066E-03 -9.0221E-02  9.0490E-02
ac ID =   33377                -3.9927E-02  9.8589E-02 -5.5482E-02  1.1997E-01
                               -3.7530E-01  1.0692E+01 -4.7101E+01  2.5147E+03

           1    3.10019E+00    -1.0521E-03  4.4412E-04 -1.1180E-02  1.1238E-02
ac ID =   33377                 3.7346E-02 -2.3494E-01 -3.6893E-02  2.4073E-01
                               -3.7537E-01  1.0698E+01 -4.7113E+01  2.5147E+03

           1    3.20018E+00     4.3175E-03  2.0288E-03  6.7911E-02  6.8079E-02
ac ID =   33377                -1.8562E-02 -3.3759E-01  2.1523E-02  3.3879E-01
                               -3.7545E-01  1.0703E+01 -4.7125E+01  2.5147E+03

           1    3.30017E+00     5.9301E-03  1.0917E-03  5.5162E-03  8.1723E-03
ac ID =   33377                -2.3243E-01 -2.5613E-01  1.0329E-01  3.6097E-01
                               -3.7553E-01  1.0709E+01 -4.7137E+01  2.5147E+03

           1    3.40016E+00     4.8536E-03  3.7261E-03 -1.1425E-01  1.1441E-01
ac ID =   33377                -3.2377E-01  1.2370E-01  1.2486E-01  3.6840E-01
                               -3.7563E-01  1.0714E+01 -4.7148E+01  2.5147E+03

           1    3.50015E+00     8.7584E-03  3.2607E-03 -1.5602E-01  1.5630E-01
ac ID =   33377                -1.6166E-01  5.3241E-01  5.1777E-02  5.5882E-01
                               -3.7574E-01  1.0720E+01 -4.7160E+01  2.5147E+03

           1    3.60014E+00     1.9495E-02 -4.0405E-03 -7.9477E-02  8.1933E-02
ac ID =   33377                 1.2637E-01  1.0673E+00 -4.6484E-02  1.0757E+00
                               -3.7584E-01  1.0726E+01 -4.7172E+01  2.5147E+03

           1    3.70013E+00     2.7350E-02 -4.4949E-03 -7.5705E-02  8.0620E-02
ac ID =   33377                 3.0849E-01  1.1745E+00 -1.5180E-01  1.2238E+00
                               -3.7593E-01  1.0732E+01 -4.7184E+01  2.5147E+03

           1    3.80012E+00     3.0893E-02 -2.5401E-03 -1.7048E-01  1.7327E-01
ac ID =   33377                 2.2627E-01  1.5290E+00 -1.7184E-01  1.5551E+00
                               -3.7603E-01  1.0738E+01 -4.7196E+01  2.5147E+03

           1    3.90011E+00     3.5118E-02 -1.5275E-03 -2.5033E-01  2.5278E-01
ac ID =   33377                 1.5378E-01  1.6226E+00 -1.3454E-01  1.6355E+00
                               -3.7612E-01  1.0745E+01 -4.7208E+01  2.5147E+03

           1    4.00010E+00     3.2863E-02  1.2205E-03 -2.0591E-01  2.0852E-01
ac ID =   33377                -1.1323E-01  1.3064E+00  5.0786E-02  1.3123E+00
                               -3.7618E-01  1.0752E+01 -4.7220E+01  2.5147E+03

           1    4.10009E+00     4.3802E-02  2.8822E-03 -1.8368E-01  1.8885E-01
ac ID =   33377                -1.4132E-01  1.2816E+00  6.2078E-02  1.2909E+00
                               -3.7625E-01  1.0761E+01 -4.7233E+01  2.5147E+03

           1    4.20008E+00     3.9002E-02  6.9760E-03 -2.4324E-01  2.4644E-01
ac ID =   33377                -3.9978E-01  1.3924E+00  1.4916E-02  1.4487E+00
                               -3.7635E-01  1.0769E+01 -4.7245E+01  2.5147E+03

           1    4.30007E+00     4.7219E-02  4.6348E-03 -3.5309E-01  3.5626E-01
ac ID =   33377                -4.8979E-01  1.8840E+00 -1.4458E-01  1.9519E+00
                               -3.7645E-01  1.0779E+01 -4.7257E+01  2.5147E+03

           1    4.40006E+00     6.6169E-02  6.6439E-03 -3.4450E-01  3.5086E-01
ac ID =   33377                -2.8331E-01  2.4277E+00 -6.5010E-02  2.4451E+00
                               -3.7657E-01  1.0789E+01 -4.7270E+01  2.5147E+03

           1    4.50005E+00     6.5140E-02  5.5897E-03 -2.7878E-01  2.8634E-01
ac ID =   33377                 2.5135E-02  2.3259E+00  4.7702E-02  2.3265E+00
                               -3.7670E-01  1.0801E+01 -4.7283E+01  2.5147E+03

           1    4.60004E+00     7.1669E-02 -4.1080E-03 -3.3209E-01  3.3976E-01
ac ID =   33377                 1.3308E-01  2.4812E+00 -1.4357E-02  2.4848E+00
                               -3.7683E-01  1.0814E+01 -4.7296E+01  2.5147E+03

           1    4.70003E+00     7.9473E-02 -3.1743E-03 -4.3024E-01  4.3753E-01
ac ID =   33377                 2.1255E-01  2.6892E+00 -2.3749E-01  2.7081E+00
                               -3.7698E-01  1.0828E+01 -4.7310E+01  2.5147E+03

           1    4.80002E+00     7.9455E-02  4.0375E-03 -4.6358E-01  4.7036E-01
ac ID =   33377                -1.2992E-01  2.6270E+00 -2.1093E-01  2.6387E+00
                               -3.7710E-01  1.0844E+01 -4.7323E+01  2.5147E+03

           1    4.90001E+00     7.6276E-02  2.4958E-03 -4.2082E-01  4.2768E-01
ac ID =   33377                -1.1382E-01  2.6373E+00  2.4910E-02  2.6398E+00
                               -3.7723E-01  1.0861E+01 -4.7338E+01  2.5147E+03

           1    5.00000E+00     8.3076E-02 -9.8591E-04 -4.2416E-01  4.3222E-01
ac ID =   33377                -2.7040E-01  2.7482E+00  2.6700E-01  2.7744E+00
                               -3.7738E-01  1.0879E+01 -4.7353E+01  2.5147E+03

           1    5.10049E+00     9.4499E-02  5.0019E-03 -5.1690E-01  5.2549E-01
ac ID =   33377                -5.6152E-01  3.0059E+00  2.4883E-01  3.0680E+00
                               -3.7751E-01  1.0900E+01 -4.7367E+01  2.5147E+03

           1    5.20048E+00     9.5722E-02  1.2598E-02 -5.4504E-01  5.5353E-01
ac ID =   33377                -7.4828E-01  3.1725E+00 -1.2408E-01  3.2619E+00
                               -3.7772E-01  1.0921E+01 -4.7382E+01  2.5147E+03

           1    5.30047E+00     1.0369E-01  5.5944E-03 -5.5504E-01  5.6467E-01
ac ID =   33377                -4.2653E-01  3.4052E+00 -1.2621E-01  3.4341E+00
                               -3.7794E-01  1.0945E+01 -4.7398E+01  2.5147E+03

           1    5.40046E+00     1.0580E-01 -5.4466E-03 -5.5952E-01  5.6946E-01
ac ID =   33377                -8.6904E-02  3.5416E+00 -9.2839E-02  3.5438E+00
                               -3.7815E-01  1.0970E+01 -4.7414E+01  2.5147E+03

           1    5.50045E+00     1.0779E-01  1.1899E-02 -6.4199E-01  6.5108E-01
ac ID =   33377                -5.3105E-01  3.5213E+00  1.6121E-02  3.5612E+00
                               -3.7842E-01  1.0997E+01 -4.7430E+01  2.5147E+03

           1    5.60044E+00     1.0663E-01  2.6786E-03 -7.3390E-01  7.4161E-01
ac ID =   33377                -1.1090E-01  3.8227E+00  1.0031E-01  3.8256E+00
                               -3.7876E-01  1.1025E+01 -4.7447E+01  2.5147E+03

           1    5.70043E+00     1.1611E-01 -5.7918E-03 -7.5743E-01  7.6630E-01
ac ID =   33377                -5.5790E-03  3.9763E+00  1.4681E-01  3.9791E+00
                               -3.7905E-01  1.1056E+01 -4.7463E+01  2.5147E+03

           1    5.80042E+00     1.1808E-01  5.1517E-03 -7.4176E-01  7.5112E-01
ac ID =   33377                -5.0092E-01  4.0281E+00 -1.0509E-01  4.0605E+00
                               -3.7935E-01  1.1089E+01 -4.7481E+01  2.5147E+03

           1    5.90041E+00     1.1544E-01  8.1232E-03 -7.7299E-01  7.8160E-01
ac ID =   33377                -5.3517E-01  4.1905E+00 -2.9770E-01  4.2350E+00
                               -3.7975E-01  1.1123E+01 -4.7498E+01  2.5147E+03

           1    6.00040E+00     1.3240E-01  1.1900E-03 -8.4947E-01  8.5973E-01
ac ID =   33377                -5.3927E-01  4.5358E+00 -9.9538E-03  4.5677E+00
                               -3.8014E-01  1.1159E+01 -4.7515E+01  2.5147E+03

           1    6.10039E+00     1.2948E-01  4.8408E-03 -8.6435E-01  8.7400E-01
ac ID =   33377                -5.9907E-01  4.4355E+00  2.5564E-02  4.4758E+00
                               -3.8056E-01  1.1197E+01 -4.7532E+01  2.5147E+03

           1    6.20038E+00     1.2804E-01  1.2476E-02 -8.5602E-01  8.6564E-01
ac ID =   33377                -8.7835E-01  4.3010E+00 -6.1680E-02  4.3902E+00
                               -3.8104E-01  1.1237E+01 -4.7550E+01  2.5147E+03

           1    6.30037E+00     1.3462E-01  5.3081E-03 -9.1210E-01  9.2200E-01
ac ID =   33377                -4.1051E-01  4.5568E+00 -1.7121E-01  4.5784E+00
                               -3.8152E-01  1.1279E+01 -4.7568E+01  2.5147E+03

           1    6.40036E+00     1.3711E-01 -1.1257E-02 -1.0014E+00  1.0108E+00
ac ID =   33377                -1.8957E-01  4.9275E+00 -1.8897E-01  4.9348E+00
                               -3.8197E-01  1.1322E+01 -4.7586E+01  2.5147E+03

           1    6.50035E+00     1.3469E-01  6.0181E-03 -1.0681E+00  1.0766E+00
ac ID =   33377                -5.5241E-01  5.2455E+00  4.7000E-02  5.2748E+00
                               -3.8251E-01  1.1368E+01 -4.7603E+01  2.5147E+03

           1    6.60034E+00     1.4935E-01  8.2594E-03 -1.0832E+00  1.0935E+00
ac ID =   33377                -4.6320E-01  5.5709E+00  2.3257E-01  5.5949E+00
                               -3.8310E-01  1.1416E+01 -4.7621E+01  2.5147E+03

           1    6.70033E+00     1.5892E-01 -6.4392E-03 -1.0886E+00  1.1002E+00
ac ID =   33377                -1.1739E-01  5.7246E+00  1.3026E-01  5.7273E+00
                               -3.8359E-01  1.1466E+01 -4.7639E+01  2.5147E+03

           1    6.80032E+00     1.5299E-01  2.1032E-03 -1.1432E+00  1.1534E+00
ac ID =   33377                -6.4142E-01  5.7062E+00  5.1354E-02  5.7424E+00
                               -3.8410E-01  1.1518E+01 -4.7657E+01  2.5147E+03

           1    6.90031E+00     1.6773E-01  1.2104E-02 -1.2256E+00  1.2371E+00
ac ID =   33377                -7.5786E-01  6.1802E+00 -2.0475E-01  6.2299E+00
                               -3.8471E-01  1.1571E+01 -4.7674E+01  2.5147E+03

           1    7.00030E+00     1.7139E-01 -2.6940E-03 -1.2436E+00  1.2554E+00
ac ID =   33377                -6.4529E-01  6.3181E+00 -4.9058E-02  6.3512E+00
                               -3.8525E-01  1.1627E+01 -4.7691E+01  2.5147E+03

           1    7.10029E+00     1.6079E-01 -7.2284E-04 -1.2806E+00  1.2907E+00
ac ID =   33377                -5.7709E-01  6.1754E+00  1.4878E-01  6.2041E+00
                               -3.8581E-01  1.1685E+01 -4.7708E+01  2.5147E+03

           1    7.20028E+00     1.7488E-01  1.0908E-02 -1.3612E+00  1.3725E+00
ac ID =   33377                -7.8332E-01  6.6648E+00  1.2911E-01  6.7119E+00
                               -3.8644E-01  1.1745E+01 -4.7725E+01  2.5147E+03

           1    7.30027E+00     1.8547E-01 -2.5965E-03 -1.4494E+00  1.4613E+00
ac ID =   33377                -4.1222E-01  7.1874E+00  1.1170E-01  7.2001E+00
                               -3.8706E-01  1.1806E+01 -4.7741E+01  2.5147E+03

           1    7.40026E+00     1.8654E-01 -2.1251E-03 -1.5116E+00  1.5231E+00
ac ID =   33377                -2.6503E-01  7.6563E+00 -1.8007E-01  7.6630E+00
                               -3.8768E-01  1.1870E+01 -4.7757E+01  2.5147E+03

           1    7.50025E+00     1.9420E-01 -3.6273E-04 -1.5155E+00  1.5278E+00
ac ID =   33377                -3.9807E-01  7.9830E+00 -1.5765E-01  7.9945E+00
                               -3.8829E-01  1.1935E+01 -4.7772E+01  2.5147E+03

           1    7.60024E+00     2.0815E-01  2.3037E-03 -1.5420E+00  1.5560E+00
ac ID =   33377                -3.1611E-01  8.3126E+00  8.3221E-03  8.3186E+00
                               -3.8893E-01  1.2003E+01 -4.7787E+01  2.5147E+03

           1    7.70023E+00     2.0515E-01 -4.1933E-03 -1.6052E+00  1.6182E+00
ac ID =   33377                -2.3091E-01  8.1672E+00  1.2433E-01  8.1714E+00
                               -3.8954E-01  1.2072E+01 -4.7801E+01  2.5147E+03

           1    7.80022E+00     2.0537E-01  1.0125E-02 -1.6559E+00  1.6686E+00
ac ID =   33377                -7.2908E-01  8.2729E+00  4.9317E-02  8.3051E+00
                               -3.9013E-01  1.2143E+01 -4.7814E+01  2.5147E+03

           1    7.90021E+00     2.1186E-01 -1.3337E-03 -1.6832E+00  1.6965E+00
ac ID =   33377                -6.9309E-01  8.5006E+00 -2.4470E-01  8.5323E+00
                               -3.9072E-01  1.2216E+01 -4.7827E+01  2.5147E+03

           1    8.00020E+00     2.1927E-01 -1.5377E-03 -1.7324E+00  1.7462E+00
ac ID =   33377                -5.0016E-01  8.9528E+00 -2.4698E-01  8.9702E+00
                               -3.9136E-01  1.2291E+01 -4.7839E+01  2.5147E+03

           1    8.10019E+00     2.3389E-01  5.6552E-03 -1.8125E+00  1.8276E+00
ac ID =   33377                -6.2203E-01  9.6356E+00  2.5347E-02  9.6557E+00
                               -3.9196E-01  1.2368E+01 -4.7850E+01  2.5147E+03

           1    8.20018E+00     2.3029E-01 -5.6621E-03 -1.8755E+00  1.8896E+00
ac ID =   33377                -3.5513E-01  1.0070E+01  1.5817E-01  1.0078E+01
                               -3.9255E-01  1.2447E+01 -4.7860E+01  2.5147E+03

           1    8.30017E+00     2.3703E-01 -1.2773E-03 -1.9266E+00  1.9411E+00
ac ID =   33377                -2.4047E-01  1.0415E+01  4.2251E-02  1.0418E+01
                               -3.9320E-01  1.2527E+01 -4.7869E+01  2.5147E+03

           1    8.40016E+00     2.5447E-01 -6.1991E-03 -1.9423E+00  1.9589E+00
ac ID =   33377                -5.4330E-02  1.0917E+01 -1.4916E-01  1.0918E+01
                               -3.9379E-01  1.2609E+01 -4.7877E+01  2.5147E+03

           1    8.50015E+00     2.5202E-01 -7.2243E-03 -1.9878E+00  2.0038E+00
ac ID =   33377                -4.9045E-02  1.1025E+01 -2.1247E-01  1.1027E+01
                               -3.9435E-01  1.2693E+01 -4.7883E+01  2.5147E+03

           1    8.60014E+00     2.5042E-01  9.7765E-04 -2.0600E+00  2.0752E+00
ac ID =   33377                -3.2619E-01  1.1210E+01  6.5254E-03  1.1215E+01
                               -3.9492E-01  1.2778E+01 -4.7889E+01  2.5147E+03

           1    8.70013E+00     2.6644E-01 -5.2508E-03 -2.1066E+00  2.1234E+00
ac ID =   33377                -3.5249E-01  1.1759E+01  1.8156E-01  1.1765E+01
                               -3.9547E-01  1.2865E+01 -4.7893E+01  2.5147E+03

           1    8.80012E+00     2.6922E-01  2.4232E-03 -2.1573E+00  2.1740E+00
ac ID =   33377                -4.9754E-01  1.1864E+01  6.3527E-02  1.1874E+01
                               -3.9601E-01  1.2954E+01 -4.7896E+01  2.5147E+03

           1    8.90011E+00     2.6697E-01  3.0107E-03 -2.1982E+00  2.2144E+00
ac ID =   33377                -8.0091E-01  1.2098E+01 -3.0152E-02  1.2125E+01
                               -3.9651E-01  1.3044E+01 -4.7898E+01  2.5147E+03

           1    9.00010E+00     2.8687E-01 -3.5049E-04 -2.2570E+00  2.2751E+00
ac ID =   33377                -2.8102E-01  1.2655E+01 -1.3125E-01  1.2658E+01
                               -3.9707E-01  1.3135E+01 -4.7898E+01  2.5147E+03

           1    9.10009E+00     2.9387E-01 -3.8298E-03 -2.3040E+00  2.3227E+00
ac ID =   33377                -1.8817E-01  1.3292E+01  6.8299E-02  1.3294E+01
                               -3.9759E-01  1.3229E+01 -4.7896E+01  2.5147E+03

           1    9.20008E+00     2.8555E-01  1.7431E-03 -2.3313E+00  2.3487E+00
ac ID =   33377                -2.9166E-01  1.3130E+01  2.2911E-01  1.3135E+01
                               -3.9804E-01  1.3323E+01 -4.7893E+01  2.5147E+03

           1    9.30007E+00     2.9617E-01 -4.5910E-03 -2.3655E+00  2.3840E+00
ac ID =   33377                -5.2364E-02  1.3390E+01  2.5682E-02  1.3390E+01
                               -3.9849E-01  1.3419E+01 -4.7888E+01  2.5147E+03

           1    9.40006E+00     3.0288E-01 -6.2688E-03 -2.4006E+00  2.4196E+00
ac ID =   33377                 6.1278E-02  1.3527E+01 -1.7373E-01  1.3528E+01
                               -3.9892E-01  1.3516E+01 -4.7882E+01  2.5147E+03

           1    9.50005E+00     2.9601E-01  3.1253E-04 -2.4481E+00  2.4659E+00
ac ID =   33377                -4.7779E-01  1.3689E+01 -2.7859E-01  1.3700E+01
                               -3.9925E-01  1.3615E+01 -4.7873E+01  2.5147E+03

           1    9.60004E+00     2.9798E-01  2.6308E-03 -2.4621E+00  2.4801E+00
ac ID =   33377                -5.3243E-01  1.3898E+01 -8.9837E-02  1.3908E+01
                               -3.9960E-01  1.3715E+01 -4.7862E+01  2.5147E+03

           1    9.70003E+00     3.1597E-01  6.6391E-04 -2.4749E+00  2.4950E+00
ac ID =   33377                -3.6384E-01  1.4309E+01  1.7830E-01  1.4315E+01
                               -3.9995E-01  1.3815E+01 -4.7850E+01  2.5147E+03

           1    9.80002E+00     3.0866E-01  3.6002E-03 -2.4994E+00  2.5184E+00
ac ID =   33377                -7.3966E-01  1.4517E+01  1.3439E-01  1.4537E+01
                               -4.0022E-01  1.3917E+01 -4.7835E+01  2.5147E+03

           1    9.90001E+00     3.0355E-01  1.1943E-02 -2.5232E+00  2.5414E+00
ac ID =   33377                -7.5103E-01  1.4410E+01 -1.8575E-01  1.4431E+01
                               -4.0052E-01  1.4020E+01 -4.7818E+01  2.5147E+03

           1    1.00005E+01     3.1825E-01 -4.8190E-03 -2.5645E+00  2.5842E+00
ac ID =   33377                -2.6568E-01  1.4982E+01 -3.2012E-01  1.4987E+01
                               -4.0078E-01  1.4124E+01 -4.7798E+01  2.5147E+03

           1    1.01005E+01     3.2286E-01  1.4101E-03 -2.6023E+00  2.6223E+00
ac ID =   33377                -3.3774E-01  1.5130E+01 -9.0209E-02  1.5134E+01
                               -4.0099E-01  1.4229E+01 -4.7776E+01  2.5147E+03

           1    1.02005E+01     3.2064E-01  4.3215E-03 -2.6432E+00  2.6626E+00
ac ID =   33377                -5.3679E-01  1.5324E+01  3.5677E-02  1.5334E+01
                               -4.0118E-01  1.4335E+01 -4.7752E+01  2.5147E+03

           1    1.03005E+01     3.2654E-01  1.7890E-03 -2.6725E+00  2.6923E+00
ac ID =   33377                -4.1089E-01  1.5606E+01  2.8843E-02  1.5611E+01
                               -4.0136E-01  1.4441E+01 -4.7725E+01  2.5147E+03

           1    1.04005E+01     3.4265E-01 -4.1459E-03 -2.7102E+00  2.7318E+00
ac ID =   33377                -4.2092E-01  1.6045E+01 -1.1394E-01  1.6051E+01
                               -4.0146E-01  1.4548E+01 -4.7695E+01  2.5147E+03

           1    1.05004E+01     3.3832E-01  4.6014E-03 -2.7101E+00  2.7311E+00
ac ID =   33377                -6.9236E-01  1.6032E+01 -9.9258E-02  1.6048E+01
                               -4.0156E-01  1.4657E+01 -4.7664E+01  2.5147E+03

           1    1.06004E+01     3.4843E-01  1.0373E-02 -2.7019E+00  2.7243E+00
ac ID =   33377                -7.8184E-01  1.6190E+01 -1.2866E-01  1.6209E+01
                               -4.0164E-01  1.4766E+01 -4.7629E+01  2.5147E+03

           1    1.07004E+01     3.4852E-01  2.0445E-03 -2.7235E+00  2.7457E+00
ac ID =   33377                -6.4418E-01  1.6233E+01  6.1096E-02  1.6246E+01
                               -4.0168E-01  1.4876E+01 -4.7592E+01  2.5147E+03

           1    1.08004E+01     3.4553E-01  1.4639E-03 -2.7385E+00  2.7602E+00
ac ID =   33377                -5.5603E-01  1.5940E+01  3.7784E-02  1.5950E+01
                               -4.0172E-01  1.4987E+01 -4.7553E+01  2.5147E+03

           1    1.09004E+01     3.4746E-01  1.0955E-02 -2.7602E+00  2.7820E+00
ac ID =   33377                -7.4239E-01  1.6037E+01 -3.3570E-02  1.6054E+01
                               -4.0176E-01  1.5099E+01 -4.7511E+01  2.5147E+03

           1    1.10004E+01     3.5007E-01  2.9251E-03 -2.7630E+00  2.7851E+00
ac ID =   33377                -4.6893E-01  1.6074E+01 -6.8545E-02  1.6081E+01
                               -4.0175E-01  1.5211E+01 -4.7467E+01  2.5147E+03

           1    1.11004E+01     3.5966E-01  1.2241E-03 -2.7706E+00  2.7939E+00
ac ID =   33377                -3.1407E-01  1.6477E+01 -2.6364E-01  1.6482E+01
                               -4.0174E-01  1.5325E+01 -4.7420E+01  2.5147E+03

           1    1.12004E+01     3.6721E-01  5.5227E-03 -2.7650E+00  2.7893E+00
ac ID =   33377                -4.8530E-01  1.6776E+01 -1.4829E-01  1.6784E+01
                               -4.0168E-01  1.5439E+01 -4.7370E+01  2.5147E+03

           1    1.13004E+01     3.5827E-01  1.2211E-02 -2.7343E+00  2.7577E+00
ac ID =   33377                -6.8513E-01  1.6632E+01  8.3517E-02  1.6647E+01
                               -4.0162E-01  1.5554E+01 -4.7317E+01  2.5147E+03

           1    1.14004E+01     3.6359E-01  4.1795E-03 -2.7223E+00  2.7465E+00
ac ID =   33377                -4.2015E-01  1.6517E+01  1.1239E-01  1.6523E+01
                               -4.0152E-01  1.5669E+01 -4.7262E+01  2.5147E+03

           1    1.15003E+01     3.7060E-01  3.5093E-05 -2.7077E+00  2.7330E+00
ac ID =   33377                -5.7477E-01  1.6451E+01  1.0892E-01  1.6462E+01
                               -4.0139E-01  1.5786E+01 -4.7205E+01  2.5147E+03

           1    1.16003E+01     3.6345E-01  1.4842E-02 -2.6944E+00  2.7188E+00
ac ID =   33377                -8.8057E-01  1.6413E+01  3.4935E-02  1.6436E+01
                               -4.0130E-01  1.5902E+01 -4.7145E+01  2.5147E+03

           1    1.17003E+01     3.6119E-01  5.5808E-03 -2.6990E+00  2.7231E+00
ac ID =   33377                -5.0150E-01  1.6417E+01 -2.0202E-01  1.6426E+01
                               -4.0119E-01  1.6020E+01 -4.7082E+01  2.5147E+03

           1    1.18003E+01     3.7734E-01  2.9394E-03 -2.7057E+00  2.7319E+00
ac ID =   33377                -3.7701E-01  1.6943E+01 -2.1988E-01  1.6949E+01
                               -4.0107E-01  1.6138E+01 -4.7016E+01  2.5147E+03

           1    1.19003E+01     3.6155E-01  1.1369E-02 -2.6608E+00  2.6853E+00
ac ID =   33377                -5.8467E-01  1.6520E+01 -8.1890E-02  1.6531E+01
                               -4.0092E-01  1.6257E+01 -4.6948E+01  2.5147E+03

           1    1.20003E+01     3.7650E-01 -2.4769E-03 -2.6504E+00  2.6770E+00
ac ID =   33377                -2.5398E-01  1.6625E+01 -1.3502E-01  1.6627E+01
                               -4.0075E-01  1.6376E+01 -4.6878E+01  2.5147E+03

           1    1.21003E+01     3.7177E-01 -5.3824E-03 -2.6299E+00  2.6561E+00
ac ID =   33377                -2.6334E-01  1.6517E+01 -6.9679E-02  1.6519E+01
                               -4.0054E-01  1.6496E+01 -4.6805E+01  2.5147E+03

           1    1.22003E+01     3.6822E-01  8.5043E-03 -2.5867E+00  2.6127E+00
ac ID =   33377                -4.6649E-01  1.6214E+01 -7.3314E-04  1.6221E+01
                               -4.0032E-01  1.6616E+01 -4.6729E+01  2.5147E+03

           1    1.23003E+01     3.6608E-01  8.3248E-04 -2.5418E+00  2.5681E+00
ac ID =   33377                -5.9248E-01  1.6001E+01 -1.1519E-01  1.6012E+01
                               -4.0003E-01  1.6737E+01 -4.6650E+01  2.5147E+03

           1    1.24003E+01     3.6407E-01  3.6007E-03 -2.4958E+00  2.5222E+00
ac ID =   33377                -2.7526E-01  1.5668E+01 -1.8916E-01  1.5671E+01
                               -3.9977E-01  1.6858E+01 -4.6569E+01  2.5147E+03

           1    1.25002E+01     3.6029E-01  9.5712E-03 -2.4795E+00  2.5056E+00
ac ID =   33377                -8.1275E-01  1.5743E+01  6.9537E-02  1.5764E+01
                               -3.9943E-01  1.6980E+01 -4.6486E+01  2.5147E+03

           1    1.26002E+01     3.4991E-01  2.5280E-02 -2.4498E+00  2.4748E+00
ac ID =   33377                -9.5054E-01  1.5361E+01 -1.9160E-02  1.5390E+01
                               -3.9906E-01  1.7101E+01 -4.6400E+01  2.5147E+03

           1    1.27002E+01     3.6717E-01 -3.9113E-03 -2.3971E+00  2.4251E+00
ac ID =   33377                -1.8690E-01  1.5667E+01 -4.3818E-01  1.5675E+01
                               -3.9859E-01  1.7224E+01 -4.6312E+01  2.5147E+03

           1    1.28002E+01     3.5527E-01 -2.0410E-03 -2.3486E+00  2.3754E+00
ac ID =   33377                -3.3815E-01  1.5668E+01 -4.2944E-01  1.5677E+01
                               -3.9805E-01  1.7346E+01 -4.6221E+01  2.5147E+03

           1    1.29002E+01     3.6155E-01  2.1605E-02 -2.2952E+00  2.3236E+00
ac ID =   33377                -6.4603E-01  1.5364E+01 -4.0567E-01  1.5383E+01
                               -3.9749E-01  1.7469E+01 -4.6127E+01  2.5147E+03

           1    1.30002E+01     3.4836E-01  2.7627E-03 -2.2315E+00  2.2586E+00
ac ID =   33377                -1.5207E-01  1.4826E+01 -3.3888E-01  1.4831E+01
                               -3.9686E-01  1.7592E+01 -4.6032E+01  2.5147E+03

           1    1.31002E+01     3.4375E-01 -8.8196E-03 -2.1769E+00  2.2039E+00
ac ID =   33377                 2.1517E-01  1.4255E+01 -1.4714E-01  1.4257E+01
                               -3.9611E-01  1.7715E+01 -4.5934E+01  2.5147E+03

           1    1.32002E+01     3.4861E-01  1.1994E-02 -2.1302E+00  2.1586E+00
ac ID =   33377                -1.0056E+00  1.3994E+01 -3.4624E-01  1.4034E+01
                               -3.9530E-01  1.7839E+01 -4.5834E+01  2.5147E+03

           1    1.33002E+01     3.4148E-01  2.6534E-02 -2.0662E+00  2.0944E+00
ac ID =   33377                -6.3141E-01  1.3472E+01 -6.8732E-01  1.3504E+01
                               -3.9455E-01  1.7962E+01 -4.5732E+01  2.5147E+03

           1    1.34002E+01     3.4544E-01 -1.2883E-02 -2.0449E+00  2.0739E+00
ac ID =   33377                -1.3048E-01  1.3385E+01 -1.7995E-01  1.3387E+01
                               -3.9359E-01  1.8086E+01 -4.5627E+01  2.5147E+03

           1    1.35001E+01     3.5276E-01  9.1364E-03 -2.0097E+00  2.0405E+00
ac ID =   33377                -8.7673E-01  1.3479E+01  3.1991E-01  1.3512E+01
                               -3.9261E-01  1.8211E+01 -4.5521E+01  2.5147E+03

           1    1.36001E+01     3.2308E-01  3.0248E-02 -1.9304E+00  1.9575E+00
ac ID =   33377                -7.9363E-01  1.2648E+01  4.1220E-02  1.2673E+01
                               -3.9167E-01  1.8335E+01 -4.5413E+01  2.5147E+03

           1    1.37001E+01     3.5342E-01 -1.9200E-03 -1.8797E+00  1.9126E+00
ac ID =   33377                 5.2332E-02  1.2887E+01 -4.0925E-01  1.2894E+01
                               -3.9057E-01  1.8460E+01 -4.5303E+01  2.5147E+03

           1    1.38001E+01     3.3900E-01 -7.0102E-03 -1.8335E+00  1.8646E+00
ac ID =   33377                -1.5424E-01  1.2149E+01 -3.7411E-01  1.2156E+01
                               -3.8940E-01  1.8586E+01 -4.5191E+01  2.5147E+03

           1    1.39001E+01     3.1114E-01  2.6054E-02 -1.7782E+00  1.8054E+00
ac ID =   33377                -7.1633E-01  1.1426E+01  5.0773E-02  1.1448E+01
                               -3.8825E-01  1.8711E+01 -4.5078E+01  2.5147E+03

           1    1.40001E+01     3.2219E-01  7.0494E-03 -1.7191E+00  1.7491E+00
ac ID =   33377                -2.4322E-01  1.1140E+01  1.7925E-01  1.1144E+01
                               -3.8700E-01  1.8838E+01 -4.4963E+01  2.5147E+03

           1    1.41001E+01     3.1488E-01 -2.1794E-02 -1.6373E+00  1.6674E+00
ac ID =   33377                 1.9043E-01  1.0395E+01  2.2194E-01  1.0399E+01
                               -3.8564E-01  1.8964E+01 -4.4847E+01  2.5147E+03

           1    1.42001E+01     3.0060E-01  1.6328E-02 -1.5722E+00  1.6007E+00
ac ID =   33377                -8.4735E-01  9.7448E+00  6.6342E-02  9.7818E+00
                               -3.8434E-01  1.9091E+01 -4.4729E+01  2.5147E+03

           1    1.43001E+01     2.9497E-01  1.6316E-02 -1.5137E+00  1.5422E+00
ac ID =   33377                -9.9665E-01  9.3305E+00 -5.8381E-01  9.4018E+00
                               -3.8306E-01  1.9219E+01 -4.4610E+01  2.5147E+03

           1    1.44001E+01     2.8683E-01 -1.2396E-02 -1.4579E+00  1.4859E+00
ac ID =   33377                -1.2000E-01  9.1542E+00 -4.6879E-01  9.1670E+00
                               -3.8167E-01  1.9347E+01 -4.4489E+01  2.5147E+03

           1    1.45000E+01     2.5306E-01  1.6197E-03 -1.3828E+00  1.4058E+00
ac ID =   33377                -3.7771E-01  8.0216E+00  1.6905E-01  8.0322E+00
                               -3.8030E-01  1.9475E+01 -4.4368E+01  2.5147E+03

           1    1.46000E+01     2.7252E-01  1.3367E-02 -1.3123E+00  1.3404E+00
ac ID =   33377                -7.0256E-01  7.5298E+00  3.0373E-01  7.5686E+00
                               -3.7905E-01  1.9603E+01 -4.4245E+01  2.5147E+03

           1    1.47000E+01     2.7453E-01  2.2485E-03 -1.2428E+00  1.2728E+00
ac ID =   33377                -1.5609E-01  7.2798E+00 -5.9952E-03  7.2814E+00
                               -3.7778E-01  1.9732E+01 -4.4121E+01  2.5147E+03

           1    1.48005E+01     2.2963E-01 -1.5064E-02 -1.1923E+00  1.2143E+00
ac ID =   33377                -1.5029E-02  6.1205E+00 -2.9403E-01  6.1276E+00
                               -3.7642E-01  1.9862E+01 -4.3995E+01  2.5147E+03

           1    1.49005E+01     2.4677E-01 -5.0341E-03 -1.1399E+00  1.1663E+00
ac ID =   33377                -3.8504E-01  6.2545E+00 -2.6278E-01  6.2719E+00
                               -3.7519E-01  1.9992E+01 -4.3869E+01  2.5147E+03

           1    1.50005E+01     2.1056E-01  2.6974E-02 -1.0056E+00  1.0278E+00
ac ID =   33377                -8.4914E-01  5.1794E+00 -1.3000E-01  5.2502E+00
                               -3.7406E-01  2.0122E+01 -4.3742E+01  2.5147E+03

           1    1.51005E+01     2.3444E-01 -6.3629E-03 -9.5849E-01  9.8677E-01
ac ID =   33377                -4.3587E-01  5.0606E+00  9.7308E-02  5.0803E+00
                               -3.7274E-01  2.0251E+01 -4.3614E+01  2.5147E+03

           1    1.52005E+01     1.8821E-01 -9.5107E-03 -9.3490E-01  9.5370E-01
ac ID =   33377                -6.1449E-01  4.4058E+00  4.9658E-02  4.4487E+00
                               -3.7153E-01  2.0381E+01 -4.3485E+01  2.5147E+03

           1    1.53005E+01     1.7116E-01  1.5046E-02 -8.3151E-01  8.4907E-01
ac ID =   33377                -6.8088E-01  3.4490E+00 -4.8950E-01  3.5495E+00
                               -3.7041E-01  2.0511E+01 -4.3355E+01  2.5147E+03

           1    1.54005E+01     1.8670E-01  1.6921E-02 -7.7594E-01  7.9826E-01
ac ID =   33377                -1.0685E+00  3.5752E+00 -1.0623E-01  3.7330E+00
                               -3.6919E-01  2.0641E+01 -4.3225E+01  2.5147E+03

           1    1.55004E+01     1.5462E-01 -7.8805E-03 -6.9429E-01  7.1134E-01
ac ID =   33377                 4.0945E-02  2.3928E+00  2.7861E-01  2.4094E+00
                               -3.6804E-01  2.0771E+01 -4.3093E+01  2.5147E+03

           1    1.56004E+01     1.7044E-01 -6.9056E-03 -6.6692E-01  6.8839E-01
ac ID =   33377                -1.7619E-01  2.6435E+00  2.8553E-01  2.6648E+00
                               -3.6685E-01  2.0901E+01 -4.2961E+01  2.5147E+03

           1    1.57004E+01     1.5706E-01  2.6108E-02 -6.0092E-01  6.2165E-01
ac ID =   33377                -8.3956E-01  2.4447E+00  4.2387E-02  2.5852E+00
                               -3.6573E-01  2.1031E+01 -4.2829E+01  2.5147E+03

           1    1.58004E+01     1.6500E-01 -3.8198E-03 -5.3154E-01  5.5657E-01
ac ID =   33377                -3.3437E-01  2.9340E+00 -3.2772E-01  2.9712E+00
                               -3.6452E-01  2.1161E+01 -4.2696E+01  2.5147E+03

           1    1.59004E+01     1.8024E-01 -1.3974E-02 -4.6933E-01  5.0294E-01
ac ID =   33377                -6.3732E-02  4.2699E+00 -3.2959E-01  4.2831E+00
                               -3.6334E-01  2.1292E+01 -4.2563E+01  2.5147E+03

           1    1.60004E+01     1.3745E-01  2.2236E-02 -3.6960E-01  3.9496E-01
ac ID =   33377                -1.0516E+00  3.3207E+00 -2.2796E-01  3.4907E+00
                               -3.6223E-01  2.1422E+01 -4.2429E+01  2.5147E+03

           1    1.61004E+01     1.7207E-01  1.2382E-02 -3.5585E-01  3.9547E-01
ac ID =   33377                -9.8255E-01  4.5493E+00 -3.0250E-01  4.6641E+00
                               -3.6110E-01  2.1553E+01 -4.2296E+01  2.5147E+03

           1    1.62004E+01     1.6827E-01  1.7257E-03 -2.9224E-01  3.3722E-01
ac ID =   33377                -3.9396E-01  4.4468E+00 -3.8803E-02  4.4644E+00
                               -3.5999E-01  2.1683E+01 -4.2162E+01  2.5147E+03

           1    1.63004E+01     1.5284E-01  3.8653E-03 -1.8221E-01  2.3786E-01
ac ID =   33377                -5.6057E-01  4.0727E+00 -2.1228E-02  4.1112E+00
                               -3.5893E-01  2.1813E+01 -4.2029E+01  2.5147E+03

           1    1.64004E+01     1.5087E-01  1.8616E-02 -1.5520E-01  2.1724E-01
ac ID =   33377                -7.8161E-01  4.5498E+00 -7.4931E-02  4.6170E+00
                               -3.5790E-01  2.1944E+01 -4.1896E+01  2.5147E+03

           1    1.65003E+01     1.7602E-01  2.4727E-03 -1.3169E-01  2.1984E-01
ac ID =   33377                -2.7223E-01  5.3001E+00 -2.4194E-01  5.3126E+00
                               -3.5689E-01  2.2074E+01 -4.1763E+01  2.5147E+03

           1    1.66003E+01     1.5770E-01 -8.4074E-03 -4.4437E-02  1.6406E-01
ac ID =   33377                -2.2538E-01  5.1256E+00 -2.5648E-01  5.1370E+00
                               -3.5587E-01  2.2204E+01 -4.1631E+01  2.5147E+03

           1    1.67003E+01     1.5640E-01  6.6304E-03  1.1063E-02  1.5693E-01
ac ID =   33377                -6.4639E-01  5.0727E+00 -2.1670E-01  5.1183E+00
                               -3.5489E-01  2.2335E+01 -4.1500E+01  2.5147E+03

           1    1.68003E+01     1.7174E-01  1.9519E-02  7.2275E-02  1.8735E-01
ac ID =   33377                -8.0963E-01  5.5290E+00 -1.4677E-01  5.5899E+00
                               -3.5397E-01  2.2465E+01 -4.1369E+01  2.5147E+03

           1    1.69003E+01     1.3787E-01 -1.0301E-02  1.3920E-01  1.9619E-01
ac ID =   33377                -1.2330E-01  4.7438E+00 -1.2635E-01  4.7471E+00
                               -3.5300E-01  2.2595E+01 -4.1238E+01  2.5147E+03

           1    1.70003E+01     1.4008E-01 -8.4760E-03  1.7952E-01  2.2786E-01
ac ID =   33377                -4.6558E-01  4.7159E+00 -3.6640E-01  4.7530E+00
                               -3.5206E-01  2.2725E+01 -4.1109E+01  2.5147E+03

           1    1.71003E+01     1.3065E-01  3.6230E-02  2.5061E-01  2.8494E-01
ac ID =   33377                -1.4555E+00  4.3431E+00 -1.4903E-01  4.5829E+00
                               -3.5123E-01  2.2855E+01 -4.0980E+01  2.5147E+03

           1    1.72003E+01     1.2959E-01 -1.8107E-02  2.9376E-01  3.2158E-01
ac ID =   33377                 1.1874E-01  4.2017E+00 -7.7855E-02  4.2041E+00
                               -3.5037E-01  2.2985E+01 -4.0853E+01  2.5147E+03

           1    1.73003E+01     1.2153E-01 -1.8815E-03  3.3487E-01  3.5624E-01
ac ID =   33377                -4.9754E-01  3.9436E+00  2.4804E-01  3.9825E+00
                               -3.4949E-01  2.3116E+01 -4.0726E+01  2.5147E+03

           1    1.74003E+01     1.1206E-01  2.6980E-02  3.7192E-01  3.8937E-01
ac ID =   33377                -7.3657E-01  3.5151E+00 -4.1971E-02  3.5917E+00
                               -3.4878E-01  2.3246E+01 -4.0601E+01  2.5147E+03

           1    1.75002E+01     1.1620E-01 -4.5798E-03  4.1573E-01  4.3169E-01
ac ID =   33377                -5.2266E-01  3.3746E+00 -6.0382E-02  3.4153E+00
                               -3.4793E-01  2.3377E+01 -4.0478E+01  2.5147E+03

           1    1.76002E+01     1.1635E-01 -8.3923E-03  4.6724E-01  4.8158E-01
ac ID =   33377                 4.1003E-02  3.1384E+00 -3.9666E-01  3.1636E+00
                               -3.4721E-01  2.3507E+01 -4.0355E+01  2.5147E+03

           1    1.77002E+01     7.7251E-02  1.2399E-02  5.3154E-01  5.3727E-01
ac ID =   33377                -8.9241E-01  1.9931E+00 -3.7233E-01  2.2153E+00
                               -3.4645E-01  2.3638E+01 -4.0234E+01  2.5147E+03

           1    1.78002E+01     9.3737E-02  1.0351E-02  5.5537E-01  5.6332E-01
ac ID =   33377                -4.8764E-01  2.1640E+00 -3.1101E-01  2.2400E+00
                               -3.4581E-01  2.3769E+01 -4.0115E+01  2.5147E+03

           1    1.79002E+01     5.7387E-02 -1.5508E-03  5.8363E-01  5.8645E-01
ac ID =   33377                -5.3561E-01  1.3610E+00 -2.7104E-01  1.4875E+00
                               -3.4512E-01  2.3901E+01 -3.9997E+01  2.5147E+03

           1    1.80002E+01     7.6548E-02 -1.0082E-02  6.2983E-01  6.3454E-01
ac ID =   33377                -1.2200E-01  1.0675E+00 -5.3576E-02  1.0758E+00
                               -3.4453E-01  2.4032E+01 -3.9881E+01  2.5147E+03

           1    1.81002E+01     7.1703E-02  2.3678E-02  6.7413E-01  6.7834E-01
ac ID =   33377                -8.9227E-01  8.1275E-01  5.6612E-02  1.2083E+00
                               -3.4399E-01  2.4164E+01 -3.9767E+01  2.5147E+03

           1    1.82002E+01     6.2700E-02  1.2012E-02  6.7364E-01  6.7666E-01
ac ID =   33377                -6.4493E-01  4.6439E-01 -6.5801E-01  1.0318E+00
                               -3.4350E-01  2.4296E+01 -3.9654E+01  2.5147E+03

           1    1.83002E+01     4.7070E-02 -1.6295E-02  7.3748E-01  7.3916E-01
ac ID =   33377                 2.1218E-01 -1.6517E-01 -1.5781E-01  3.1178E-01
                               -3.4299E-01  2.4429E+01 -3.9543E+01  2.5147E+03

           1    1.84002E+01     7.0972E-02  1.3621E-02  7.4342E-01  7.4692E-01
ac ID =   33377                -6.9995E-01 -5.9759E-01  2.9689E-01  9.6704E-01
                               -3.4261E-01  2.4562E+01 -3.9434E+01  2.5147E+03

           1    1.85001E+01     6.3780E-02  2.8825E-02  7.7752E-01  7.8066E-01
ac ID =   33377                -8.5780E-01 -2.2436E-01 -1.7389E-01  9.0354E-01
                               -3.4223E-01  2.4695E+01 -3.9327E+01  2.5147E+03

           1    1.86001E+01     1.6689E-02 -1.1070E-02  8.2207E-01  8.2231E-01
ac ID =   33377                 1.9727E-01 -1.8486E+00  3.0457E-01  1.8839E+00
                               -3.4179E-01  2.4829E+01 -3.9222E+01  2.5147E+03

           1    1.87001E+01     6.5564E-02  1.0191E-03  8.0972E-01  8.1237E-01
ac ID =   33377                -3.0821E-02 -8.8559E-01 -2.3799E-01  9.1753E-01
                               -3.4149E-01  2.4963E+01 -3.9119E+01  2.5147E+03

           1    1.88001E+01     2.9740E-02  2.1662E-02  8.4777E-01  8.4857E-01
ac ID =   33377                -7.3801E-01 -2.0325E+00  2.3048E-01  2.1746E+00
                               -3.4125E-01  2.5098E+01 -3.9018E+01  2.5147E+03

           1    1.89001E+01     1.7372E-02  6.3591E-02  8.9798E-01  9.0040E-01
ac ID =   33377                -9.3491E-01 -2.5554E+00  8.2228E-01  2.8426E+00
                               -3.4097E-01  2.5233E+01 -3.8919E+01  2.5147E+03

           1    1.90001E+01     4.7967E-02 -3.3897E-02  8.8968E-01  8.9161E-01
ac ID =   33377                 9.6671E-01 -2.3953E+00  6.4804E-01  2.6630E+00
                               -3.4062E-01  2.5369E+01 -3.8822E+01  2.5147E+03

           1    1.91001E+01     2.4761E-02  1.2908E-02  9.0569E-01  9.0612E-01
ac ID =   33377                -6.3075E-01 -2.7525E+00  6.0607E-02  2.8245E+00
                               -3.4050E-01  2.5505E+01 -3.8728E+01  2.5147E+03

           1    1.92001E+01     5.1689E-03  5.1423E-02  9.3853E-01  9.3996E-01
ac ID =   33377                -1.2142E+00 -3.6990E+00  4.2673E-01  3.9165E+00
                               -3.4042E-01  2.5642E+01 -3.8636E+01  2.5147E+03

           1    1.93001E+01     2.7501E-02 -4.3151E-03  9.7127E-01  9.7167E-01
ac ID =   33377                 4.2155E-01 -3.3870E+00  3.9820E-01  3.4363E+00
                               -3.4022E-01  2.5779E+01 -3.8545E+01  2.5147E+03

           1    1.94001E+01     3.0966E-02 -3.1317E-02  9.7532E-01  9.7632E-01
ac ID =   33377                 3.8691E-01 -3.9878E+00  1.2829E-01  4.0086E+00
                               -3.4002E-01  2.5917E+01 -3.8458E+01  2.5147E+03

           1    1.95000E+01    -7.4184E-03  3.5242E-02  9.6562E-01  9.6629E-01
ac ID =   33377                -1.0227E+00 -4.6280E+00  1.5124E-01  4.7421E+00
                               -3.4006E-01  2.6055E+01 -3.8372E+01  2.5147E+03

           1    1.96000E+01    -2.5141E-02  1.9156E-02  9.9944E-01  9.9994E-01
ac ID =   33377                -6.0186E-01 -5.5719E+00 -1.2646E-02  5.6043E+00
                               -3.4006E-01  2.6195E+01 -3.8289E+01  2.5147E+03

           1    1.97005E+01     4.4039E-02 -3.4828E-02  9.9215E-01  9.9374E-01
ac ID =   33377                 2.0105E-01 -4.6318E+00 -2.9863E-01  4.6457E+00
                               -3.3997E-01  2.6335E+01 -3.8208E+01  2.5147E+03

           1    1.98005E+01     6.5840E-03  1.3717E-02  1.0017E+00  1.0019E+00
ac ID =   33377                -3.5531E-01 -5.1453E+00  4.9086E-01  5.1808E+00
                               -3.4004E-01  2.6475E+01 -3.8129E+01  2.5147E+03

           1    1.99005E+01    -2.7263E-02  2.6793E-02  1.0137E+00  1.0144E+00
ac ID =   33377                -9.5324E-01 -6.1103E+00  4.8530E-01  6.2032E+00
                               -3.4026E-01  2.6616E+01 -3.8053E+01  2.5147E+03

           1    2.00005E+01     2.9286E-02 -8.9170E-03  9.8437E-01  9.8484E-01
ac ID =   33377                -2.2467E-01 -4.9875E+00 -3.8205E-01  5.0072E+00
                               -3.4036E-01  2.6758E+01 -3.7979E+01  2.5147E+03

           1    2.01005E+01     7.5721E-03 -1.2839E-02  1.0087E+00  1.0088E+00
ac ID =   33377                -1.2982E-02 -5.8595E+00 -4.6464E-01  5.8779E+00
                               -3.4050E-01  2.6900E+01 -3.7908E+01  2.5147E+03

           1    2.02005E+01    -1.8935E-02  2.9862E-02  1.0074E+00  1.0080E+00
ac ID =   33377                -9.5722E-01 -6.4279E+00 -3.7110E-01  6.5094E+00
                               -3.4074E-01  2.7043E+01 -3.7839E+01  2.5147E+03

           1    2.03005E+01     1.6401E-02 -5.6298E-03  9.8342E-01  9.8358E-01
ac ID =   33377                -2.5256E-01 -6.2500E+00 -2.4042E-01  6.2597E+00
                               -3.4100E-01  2.7187E+01 -3.7772E+01  2.5147E+03

           1    2.04005E+01     1.7893E-02  1.0508E-04  9.5284E-01  9.5300E-01
ac ID =   33377                -4.0298E-01 -6.0469E+00 -7.9894E-02  6.0608E+00
                               -3.4124E-01  2.7331E+01 -3.7708E+01  2.5147E+03

           1    2.05004E+01    -2.9448E-02  1.5575E-02  9.7292E-01  9.7349E-01
ac ID =   33377                -3.4483E-01 -7.4486E+00 -4.2919E-02  7.4567E+00
                               -3.4152E-01  2.7475E+01 -3.7646E+01  2.5147E+03

           1    2.06004E+01     1.3019E-02 -4.4031E-04  9.5384E-01  9.5393E-01
ac ID =   33377                -3.8287E-01 -6.8047E+00 -2.8158E-01  6.8213E+00
                               -3.4187E-01  2.7621E+01 -3.7586E+01  2.5147E+03

           1    2.07004E+01     1.8213E-02 -4.3940E-03  9.4310E-01  9.4329E-01
ac ID =   33377                 9.9624E-02 -6.7393E+00 -2.6794E-01  6.7453E+00
                               -3.4225E-01  2.7766E+01 -3.7528E+01  2.5147E+03

           1    2.08004E+01    -3.1867E-02 -5.5504E-03  9.4285E-01  9.4341E-01
ac ID =   33377                -5.4392E-01 -7.8937E+00 -2.5975E-03  7.9124E+00
                               -3.4265E-01  2.7913E+01 -3.7472E+01  2.5147E+03

           1    2.09004E+01     7.9288E-03  1.9247E-02  9.2448E-01  9.2472E-01
ac ID =   33377                -2.1770E-01 -7.3788E+00  7.7747E-02  7.3825E+00
                               -3.4314E-01  2.8060E+01 -3.7419E+01  2.5147E+03

           1    2.10004E+01     2.1000E-02 -3.8640E-03  9.2117E-01  9.2142E-01
ac ID =   33377                -8.2595E-02 -7.4541E+00  6.2413E-02  7.4549E+00
                               -3.4359E-01  2.8207E+01 -3.7368E+01  2.5147E+03

           1    2.11004E+01    -1.6334E-02 -1.0982E-02  9.0119E-01  9.0140E-01
ac ID =   33377                 2.3789E-01 -8.1257E+00 -4.1048E-01  8.1395E+00
                               -3.4405E-01  2.8356E+01 -3.7318E+01  2.5147E+03

           1    2.12004E+01    -8.6595E-03  6.3333E-03  8.8858E-01  8.8865E-01
ac ID =   33377                -6.7334E-01 -8.1383E+00 -6.1759E-02  8.1663E+00
                               -3.4460E-01  2.8504E+01 -3.7271E+01  2.5147E+03

           1    2.13004E+01     3.9863E-02  1.3714E-02  8.4026E-01  8.4132E-01
ac ID =   33377                -4.1182E-01 -7.0494E+00  8.8530E-02  7.0620E+00
                               -3.4521E-01  2.8653E+01 -3.7226E+01  2.5147E+03

           1    2.14004E+01    -2.4920E-03 -1.3401E-02  8.4006E-01  8.4017E-01
ac ID =   33377                 1.1087E-02 -8.3100E+00 -6.6774E-02  8.3103E+00
                               -3.4578E-01  2.8803E+01 -3.7183E+01  2.5147E+03

           1    2.15003E+01     2.9955E-03 -1.5401E-02  8.3087E-01  8.3102E-01
ac ID =   33377                -2.6363E-02 -8.3553E+00  1.4918E-01  8.3566E+00
                               -3.4636E-01  2.8953E+01 -3.7142E+01  2.5147E+03

           1    2.16003E+01     5.3359E-02  1.3028E-02  7.7157E-01  7.7352E-01
ac ID =   33377                -4.5003E-01 -7.3669E+00  2.7883E-02  7.3807E+00
                               -3.4707E-01  2.9104E+01 -3.7103E+01  2.5147E+03

           1    2.17003E+01     1.1326E-02 -4.1523E-03  7.6598E-01  7.6608E-01
ac ID =   33377                -9.4848E-02 -8.1295E+00 -3.3047E-02  8.1301E+00
                               -3.4777E-01  2.9255E+01 -3.7065E+01  2.5147E+03

           1    2.18003E+01     2.6681E-02 -7.4434E-03  7.4960E-01  7.5011E-01
ac ID =   33377                 2.9244E-01 -8.0254E+00 -5.1697E-02  8.0309E+00
                               -3.4842E-01  2.9406E+01 -3.7030E+01  2.5147E+03

           1    2.19003E+01     6.2005E-02 -5.4956E-03  7.1411E-01  7.1681E-01
ac ID =   33377                -3.8323E-01 -7.2975E+00 -9.3313E-02  7.3082E+00
                               -3.4917E-01  2.9558E+01 -3.6996E+01  2.5147E+03

           1    2.20003E+01     3.9948E-02  7.5882E-03  6.7241E-01  6.7364E-01
ac ID =   33377                -3.8718E-02 -8.2063E+00 -5.4027E-01  8.2241E+00
                               -3.5001E-01  2.9710E+01 -3.6964E+01  2.5147E+03

           1    2.21003E+01     2.1269E-02 -3.3633E-03  6.5288E-01  6.5324E-01
ac ID =   33377                -2.1929E-01 -8.3218E+00 -4.1016E-01  8.3348E+00
                               -3.5079E-01  2.9862E+01 -3.6933E+01  2.5147E+03

           1    2.22003E+01     7.3047E-02 -8.4462E-03  6.0269E-01  6.0716E-01
ac ID =   33377                 1.3151E-01 -7.6832E+00 -4.2709E-02  7.6845E+00
                               -3.5157E-01  3.0015E+01 -3.6904E+01  2.5147E+03

           1    2.23003E+01     5.7446E-02 -1.3814E-03  5.7888E-01  5.8172E-01
ac ID =   33377                -4.7619E-01 -7.9549E+00 -7.2654E-02  7.9694E+00
                               -3.5243E-01  3.0168E+01 -3.6876E+01  2.5147E+03

           1    2.24003E+01     3.7354E-02  5.1315E-03  5.5389E-01  5.5518E-01
ac ID =   33377                -7.8680E-02 -8.6643E+00 -5.1760E-02  8.6648E+00
                               -3.5330E-01  3.0321E+01 -3.6850E+01  2.5147E+03

           1    2.25002E+01     7.4566E-02 -1.4545E-02  4.9992E-01  5.0566E-01
ac ID =   33377                 5.3598E-02 -8.2259E+00 -3.3251E-01  8.2328E+00
                               -3.5413E-01  3.0474E+01 -3.6825E+01  2.5147E+03

           1    2.26002E+01     6.4703E-02 -3.7613E-03  4.8194E-01  4.8628E-01
ac ID =   33377                -2.9721E-02 -8.8668E+00 -2.9815E-01  8.8719E+00
                               -3.5502E-01  3.0627E+01 -3.6801E+01  2.5147E+03

           1    2.27002E+01     4.0124E-02  7.5876E-03  4.3756E-01  4.3946E-01
ac ID =   33377                 1.4010E-01 -9.9043E+00 -2.3588E-01  9.9081E+00
                               -3.5594E-01  3.0780E+01 -3.6779E+01  2.5147E+03

           1    2.28002E+01     6.1057E-02 -1.0550E-02  4.1237E-01  4.1700E-01
ac ID =   33377                 2.3021E-01 -9.4441E+00 -1.5163E-01  9.4481E+00
                               -3.5682E-01  3.0934E+01 -3.6757E+01  2.5147E+03

           1    2.29002E+01     7.1029E-02  1.2142E-03  3.6114E-01  3.6807E-01
ac ID =   33377                 7.4599E-02 -9.6452E+00 -1.1403E-01  9.6462E+00
                               -3.5769E-01  3.1087E+01 -3.6736E+01  2.5147E+03

           1    2.30002E+01     3.5402E-02 -1.4174E-02  3.2909E-01  3.3129E-01
ac ID =   33377                 2.3112E-01 -1.0511E+01 -2.9498E-01  1.0517E+01
                               -3.5861E-01  3.1241E+01 -3.6716E+01  2.5147E+03

           1    2.31002E+01     6.9271E-02  4.5027E-03  3.0336E-01  3.1120E-01
ac ID =   33377                 1.1920E-01 -1.0616E+01  4.3629E-02  1.0616E+01
                               -3.5953E-01  3.1395E+01 -3.6697E+01  2.5147E+03

           1    2.32002E+01     7.9829E-02 -9.1421E-05  2.6164E-01  2.7355E-01
ac ID =   33377                -9.5672E-02 -1.0483E+01  7.5320E-02  1.0484E+01
                               -3.6045E-01  3.1548E+01 -3.6678E+01  2.5147E+03

           1    2.33002E+01     3.9679E-02 -1.5270E-03  2.2051E-01  2.2406E-01
ac ID =   33377                 1.8147E-01 -1.1387E+01  1.1319E-01  1.1389E+01
                               -3.6133E-01  3.1702E+01 -3.6660E+01  2.5147E+03

           1    2.34002E+01     6.3958E-02 -5.4621E-03  1.7225E-01  1.8382E-01
ac ID =   33377                 2.4363E-02 -1.1357E+01  2.2717E-02  1.1357E+01
                               -3.6228E-01  3.1856E+01 -3.6643E+01  2.5147E+03

           1    2.35001E+01     8.5273E-02  1.6472E-03  1.4792E-01  1.7075E-01
ac ID =   33377                 2.2170E-01 -1.1353E+01 -9.4955E-02  1.1356E+01
                               -3.6317E-01  3.2009E+01 -3.6626E+01  2.5147E+03

           1    2.36001E+01     7.0403E-02 -8.7011E-03  1.0885E-01  1.2992E-01
ac ID =   33377                 1.0085E-01 -1.1994E+01 -1.8722E-01  1.1996E+01
                               -3.6407E-01  3.2163E+01 -3.6609E+01  2.5147E+03

           1    2.37001E+01     5.8134E-02 -3.6500E-03  7.4413E-02  9.4500E-02
ac ID =   33377                 1.3941E-01 -1.2315E+01 -1.6682E-01  1.2317E+01
                               -3.6495E-01  3.2316E+01 -3.6592E+01  2.5147E+03

           1    2.38001E+01     9.7195E-02 -7.0273E-03  2.6298E-02  1.0094E-01
ac ID =   33377                 3.0639E-01 -1.1658E+01 -2.1150E-01  1.1664E+01
                               -3.6585E-01  3.2470E+01 -3.6575E+01  2.5147E+03

           1    2.39001E+01     7.5128E-02 -7.4102E-03 -3.9415E-04  7.5494E-02
ac ID =   33377                 3.3285E-01 -1.2191E+01 -6.9557E-02  1.2196E+01
                               -3.6671E-01  3.2623E+01 -3.6559E+01  2.5147E+03

           1    2.40001E+01     8.0037E-02  8.3606E-03 -2.2487E-02  8.3555E-02
ac ID =   33377                 1.3152E-01 -1.2285E+01  2.2062E-01  1.2288E+01
                               -3.6758E-01  3.2776E+01 -3.6542E+01  2.5147E+03

           1    2.41001E+01     1.1022E-01 -2.4171E-03 -6.3053E-02  1.2700E-01
ac ID =   33377                 1.4559E-01 -1.1822E+01 -5.0497E-02  1.1823E+01
                               -3.6843E-01  3.2929E+01 -3.6525E+01  2.5147E+03

           1    2.42001E+01     1.0059E-01 -4.0998E-03 -1.0369E-01  1.4452E-01
ac ID =   33377                 2.0900E-01 -1.2024E+01 -1.2033E-01  1.2027E+01
                               -3.6925E-01  3.3082E+01 -3.6508E+01  2.5147E+03

           1    2.43001E+01     9.7315E-02 -1.1858E-02 -1.3393E-01  1.6598E-01
ac ID =   33377                 2.4371E-01 -1.2238E+01 -2.0136E-01  1.2242E+01
                               -3.7007E-01  3.3234E+01 -3.6491E+01  2.5147E+03

           1    2.44001E+01     1.1427E-01  1.5253E-02 -1.6791E-01  2.0368E-01
ac ID =   33377                -3.1188E-03 -1.1922E+01 -2.7782E-01  1.1925E+01
                               -3.7092E-01  3.3386E+01 -3.6473E+01  2.5147E+03

           1    2.45005E+01     1.3086E-01 -2.0194E-02 -2.1340E-01  2.5114E-01
ac ID =   33377                 5.0372E-01 -1.1674E+01 -3.6514E-01  1.1691E+01
                               -3.7173E-01  3.3539E+01 -3.6455E+01  2.5147E+03

           1    2.46005E+01     1.1611E-01  5.3500E-03 -2.4833E-01  2.7418E-01
ac ID =   33377                 3.4358E-01 -1.1919E+01 -2.8242E-01  1.1927E+01
                               -3.7256E-01  3.3690E+01 -3.6437E+01  2.5147E+03

           1    2.47005E+01     1.3188E-01 -9.7659E-03 -2.6593E-01  2.9700E-01
ac ID =   33377                 2.8095E-01 -1.1629E+01 -8.7212E-02  1.1633E+01
                               -3.7335E-01  3.3842E+01 -3.6417E+01  2.5147E+03

           1    2.48005E+01     1.4544E-01  6.4141E-03 -3.1046E-01  3.4290E-01
ac ID =   33377                 3.5256E-01 -1.1348E+01  4.6305E-02  1.1354E+01
                               -3.7417E-01  3.3992E+01 -3.6397E+01  2.5147E+03

           1    2.49005E+01     1.2315E-01 -9.6094E-03 -3.2183E-01  3.4472E-01
ac ID =   33377                 3.4534E-01 -1.1731E+01  6.0111E-02  1.1737E+01
                               -3.7493E-01  3.4143E+01 -3.6377E+01  2.5147E+03

