 LSTC 50th% Full_FE H-III Dummy (Beta Version, February 17, 2019)        
                    ls-dyna smp s R16 R16.0_619_d222963 date 03/18/2025

{BEGIN LEGEND}
 Entity #        Title
    22626                                                                                     
{END LEGEND}




 n o d a l   p r i n t   o u t   f o r   t i m e  s t e p       1                              ( at time 0.0000000E+00 )

 nodal point  x-disp     y-disp      z-disp      x-vel       y-vel       z-vel      x-accl      y-accl      z-accl      x-coor      y-coor      z-coor
    22626  0.00000E+00 0.00000E+00 0.00000E+00 0.00000E+00 0.00000E+00-3.12000E+00 0.00000E+00 0.00000E+00 0.00000E+00 4.79642E+01-2.20298E+01 7.33850E+00



 n o d a l   p r i n t   o u t   f o r   t i m e  s t e p       1                              ( at time 0.0000000E+00 )

 nodal point  x-rot      y-rot       z-rot       x-rot vel   y-rot vel   z-rot vel   x-rot acc   y-rot acc   z-rot acc
    22626  0.00000E+00 0.00000E+00 0.00000E+00 0.00000E+00 0.00000E+00 0.00000E+00 0.00000E+00 0.00000E+00 0.00000E+00



 n o d a l   p r i n t   o u t   f o r   t i m e  s t e p     201                              ( at time 9.9989993E-02 )

 nodal point  x-disp     y-disp      z-disp      x-vel       y-vel       z-vel      x-accl      y-accl      z-accl      x-coor      y-coor      z-coor
    22626  8.34103E-07-4.04536E-06-3.12016E-01 4.76544E-05-4.96495E-04-3.12074E+00 4.76591E-04-4.96544E-03-7.42748E-03 4.79642E+01-2.20298E+01 7.02648E+00



 n o d a l   p r i n t   o u t   f o r   t i m e  s t e p     201                              ( at time 9.9989993E-02 )

 nodal point  x-rot      y-rot       z-rot       x-rot vel   y-rot vel   z-rot vel   x-rot acc   y-rot acc   z-rot acc
    22626  9.61239E-09 3.04030E-08 5.27062E-08 1.30675E-06 2.72147E-06 5.21171E-06 1.30688E-05 2.72174E-05 5.21223E-05



 n o d a l   p r i n t   o u t   f o r   t i m e  s t e p     401                              ( at time 1.9997999E-01 )

 nodal point  x-disp     y-disp      z-disp      x-vel       y-vel       z-vel      x-accl      y-accl      z-accl      x-coor      y-coor      z-coor
    22626 -5.12686E-05-5.21560E-04-6.23853E-01-1.09578E-03-1.11151E-02-3.11558E+00-1.14355E-02-1.06197E-01 5.16180E-02 4.79641E+01-2.20303E+01 6.71465E+00



 n o d a l   p r i n t   o u t   f o r   t i m e  s t e p     401                              ( at time 1.9997999E-01 )

 nodal point  x-rot      y-rot       z-rot       x-rot vel   y-rot vel   z-rot vel   x-rot acc   y-rot acc   z-rot acc
    22626  4.60440E-07 1.33000E-06 2.50259E-06 2.66510E-06 1.90634E-05 3.49694E-05 1.35849E-05 1.63436E-04 2.97607E-04



 n o d a l   p r i n t   o u t   f o r   t i m e  s t e p     601                              ( at time 2.9996998E-01 )

 nodal point  x-disp     y-disp      z-disp      x-vel       y-vel       z-vel      x-accl      y-accl      z-accl      x-coor      y-coor      z-coor
    22626 -2.42953E-05-1.97612E-03-9.35238E-01 1.67258E-03-1.60364E-02-3.11415E+00 2.76863E-02-4.92178E-02 1.42899E-02 4.79642E+01-2.20318E+01 6.40326E+00



 n o d a l   p r i n t   o u t   f o r   t i m e  s t e p     601                              ( at time 2.9996998E-01 )

 nodal point  x-rot      y-rot       z-rot       x-rot vel   y-rot vel   z-rot vel   x-rot acc   y-rot acc   z-rot acc
    22626  6.74009E-07 2.40899E-06 4.82379E-06 8.26027E-06 5.30058E-06 1.45242E-05 5.59573E-05-1.37642E-04-2.04473E-04



 n o d a l   p r i n t   o u t   f o r   t i m e  s t e p     801                              ( at time 3.9995997E-01 )

 nodal point  x-disp     y-disp      z-disp      x-vel       y-vel       z-vel      x-accl      y-accl      z-accl      x-coor      y-coor      z-coor
    22626  6.34025E-05-3.57093E-03-1.24663E+00 2.70243E-04-1.73380E-02-3.11356E+00-1.40248E-02-1.30173E-02 5.89907E-03 4.79642E+01-2.20334E+01 6.09187E+00



 n o d a l   p r i n t   o u t   f o r   t i m e  s t e p     801                              ( at time 3.9995997E-01 )

 nodal point  x-rot      y-rot       z-rot       x-rot vel   y-rot vel   z-rot vel   x-rot acc   y-rot acc   z-rot acc
    22626  1.57507E-06 3.64911E-06 6.61832E-06 6.17828E-06 2.36518E-05 3.70974E-05-2.08220E-05 1.83531E-04 2.25755E-04



 n o d a l   p r i n t   o u t   f o r   t i m e  s t e p    1001                              ( at time 4.9994997E-01 )

 nodal point  x-disp     y-disp      z-disp      x-vel       y-vel       z-vel      x-accl      y-accl      z-accl      x-coor      y-coor      z-coor
    22626  8.60176E-05-5.61949E-03-1.55783E+00 9.81104E-04-2.37019E-02-3.11093E+00 7.10933E-03-6.36457E-02 2.63288E-02 4.79643E+01-2.20354E+01 5.78067E+00



 n o d a l   p r i n t   o u t   f o r   t i m e  s t e p    1001                              ( at time 4.9994997E-01 )

 nodal point  x-rot      y-rot       z-rot       x-rot vel   y-rot vel   z-rot vel   x-rot acc   y-rot acc   z-rot acc
    22626  1.46896E-06 6.48104E-06 1.15187E-05-5.03828E-06 4.17716E-05 6.82638E-05-1.12177E-04 1.81217E-04 3.11695E-04



 n o d a l   p r i n t   o u t   f o r   t i m e  s t e p    1201                              ( at time 5.9993996E-01 )

 nodal point  x-disp     y-disp      z-disp      x-vel       y-vel       z-vel      x-accl      y-accl      z-accl      x-coor      y-coor      z-coor
    22626  8.07144E-05-8.10606E-03-1.86890E+00-3.25094E-04-2.59038E-02-3.11096E+00-1.30633E-02-2.20210E-02-3.19513E-04 4.79643E+01-2.20379E+01 5.46960E+00



 n o d a l   p r i n t   o u t   f o r   t i m e  s t e p    1201                              ( at time 5.9993996E-01 )

 nodal point  x-rot      y-rot       z-rot       x-rot vel   y-rot vel   z-rot vel   x-rot acc   y-rot acc   z-rot acc
    22626  1.21358E-06 9.47027E-06 1.69787E-05-2.64379E-06 2.34227E-05 4.74772E-05 2.39473E-05-1.83508E-04-2.07886E-04



 n o d a l   p r i n t   o u t   f o r   t i m e  s t e p    1401                              ( at time 6.9992995E-01 )

 nodal point  x-disp     y-disp      z-disp      x-vel       y-vel       z-vel      x-accl      y-accl      z-accl      x-coor      y-coor      z-coor
    22626  7.72533E-05-1.09673E-02-2.17979E+00 1.02676E-03-3.20111E-02-3.10784E+00 1.35199E-02-6.10790E-02 3.12646E-02 4.79643E+01-2.20408E+01 5.15871E+00



 n o d a l   p r i n t   o u t   f o r   t i m e  s t e p    1401                              ( at time 6.9992995E-01 )

 nodal point  x-rot      y-rot       z-rot       x-rot vel   y-rot vel   z-rot vel   x-rot acc   y-rot acc   z-rot acc
    22626  9.91442E-07 1.23080E-05 2.12787E-05-2.99173E-06 3.36793E-05 5.15852E-05-3.47965E-06 1.02576E-04 4.10840E-05



 n o d a l   p r i n t   o u t   f o r   t i m e  s t e p    1601                              ( at time 7.9991994E-01 )

 nodal point  x-disp     y-disp      z-disp      x-vel       y-vel       z-vel      x-accl      y-accl      z-accl      x-coor      y-coor      z-coor
    22626  2.23376E-04-1.44817E-02-2.49043E+00 1.73152E-03-3.63264E-02-3.10629E+00 7.04833E-03-4.31575E-02 1.54248E-02 4.79644E+01-2.20443E+01 4.84807E+00



 n o d a l   p r i n t   o u t   f o r   t i m e  s t e p    1601                              ( at time 7.9991994E-01 )

 nodal point  x-rot      y-rot       z-rot       x-rot vel   y-rot vel   z-rot vel   x-rot acc   y-rot acc   z-rot acc
    22626  8.46720E-07 1.59199E-05 2.72638E-05 2.13594E-06 4.20150E-05 6.43605E-05 5.12818E-05 8.33661E-05 1.27765E-04



 n o d a l   p r i n t   o u t   f o r   t i m e  s t e p    1801                              ( at time 8.9990994E-01 )

 nodal point  x-disp     y-disp      z-disp      x-vel       y-vel       z-vel      x-accl      y-accl      z-accl      x-coor      y-coor      z-coor
    22626  3.44100E-04-1.80645E-02-2.80112E+00 6.84564E-05-3.57439E-02-3.10781E+00-1.66323E-02 5.82537E-03-1.51745E-02 4.79645E+01-2.20479E+01 4.53738E+00



 n o d a l   p r i n t   o u t   f o r   t i m e  s t e p    1801                              ( at time 8.9990994E-01 )

 nodal point  x-rot      y-rot       z-rot       x-rot vel   y-rot vel   z-rot vel   x-rot acc   y-rot acc   z-rot acc
    22626  7.09150E-07 1.91980E-05 3.27757E-05-3.87898E-06 2.85306E-05 5.09335E-05-6.01552E-05-1.34858E-04-1.34283E-04



 n o d a l   p r i n t   o u t   f o r   t i m e  s t e p    2001                              ( at time 9.9989993E-01 )

 nodal point  x-disp     y-disp      z-disp      x-vel       y-vel       z-vel      x-accl      y-accl      z-accl      x-coor      y-coor      z-coor
    22626  3.13866E-04-2.17054E-02-3.11188E+00-8.68177E-05-3.76024E-02-3.10803E+00-1.55290E-03-1.85866E-02-2.19367E-03 4.79645E+01-2.20515E+01 4.22662E+00



 n o d a l   p r i n t   o u t   f o r   t i m e  s t e p    2001                              ( at time 9.9989993E-01 )

 nodal point  x-rot      y-rot       z-rot       x-rot vel   y-rot vel   z-rot vel   x-rot acc   y-rot acc   z-rot acc
    22626  3.75510E-07 2.23560E-05 3.80032E-05-2.17079E-06 3.42328E-05 6.39760E-05 1.70836E-05 5.70277E-05 1.30438E-04



 n o d a l   p r i n t   o u t   f o r   t i m e  s t e p    2201                              ( at time 1.0998899E+00 )

 nodal point  x-disp     y-disp      z-disp      x-vel       y-vel       z-vel      x-accl      y-accl      z-accl      x-coor      y-coor      z-coor
    22626  3.77436E-04-2.55641E-02-3.42263E+00 6.95194E-04-3.92777E-02-3.10765E+00 7.82091E-03-1.67548E-02 3.76739E-03 4.79646E+01-2.20554E+01 3.91587E+00



 n o d a l   p r i n t   o u t   f o r   t i m e  s t e p    2201                              ( at time 1.0998899E+00 )

 nodal point  x-rot      y-rot       z-rot       x-rot vel   y-rot vel   z-rot vel   x-rot acc   y-rot acc   z-rot acc
    22626  2.88354E-07 2.58360E-05 4.41793E-05 3.05184E-06 3.22049E-05 4.76675E-05 5.22315E-05-2.02812E-05-1.63101E-04



 n o d a l   p r i n t   o u t   f o r   t i m e  s t e p    2401                              ( at time 1.1998799E+00 )

 nodal point  x-disp     y-disp      z-disp      x-vel       y-vel       z-vel      x-accl      y-accl      z-accl      x-coor      y-coor      z-coor
    22626  5.14568E-04-2.94699E-02-3.73344E+00 1.68861E-03-3.85730E-02-3.10922E+00 9.93519E-03 7.04746E-03-1.56657E-02 4.79647E+01-2.20593E+01 3.60506E+00



 n o d a l   p r i n t   o u t   f o r   t i m e  s t e p    2401                              ( at time 1.1998799E+00 )

 nodal point  x-rot      y-rot       z-rot       x-rot vel   y-rot vel   z-rot vel   x-rot acc   y-rot acc   z-rot acc
    22626  4.27907E-07 2.83733E-05 4.79969E-05 2.01534E-06 2.16954E-05 3.21762E-05-1.03661E-05-1.05105E-04-1.54928E-04



 n o d a l   p r i n t   o u t   f o r   t i m e  s t e p    2601                              ( at time 1.2998699E+00 )

 nodal point  x-disp     y-disp      z-disp      x-vel       y-vel       z-vel      x-accl      y-accl      z-accl      x-coor      y-coor      z-coor
    22626  6.30233E-04-3.31700E-02-4.04446E+00 7.10905E-04-3.50475E-02-3.11221E+00-9.77806E-03 3.52591E-02-2.99317E-02 4.79648E+01-2.20630E+01 3.29405E+00



 n o d a l   p r i n t   o u t   f o r   t i m e  s t e p    2601                              ( at time 1.2998699E+00 )

 nodal point  x-rot      y-rot       z-rot       x-rot vel   y-rot vel   z-rot vel   x-rot acc   y-rot acc   z-rot acc
    22626  3.82346E-07 3.04465E-05 5.11778E-05-5.63129E-06 2.43607E-05 4.08995E-05-7.64740E-05 2.66557E-05 8.72414E-05



 n o d a l   p r i n t   o u t   f o r   t i m e  s t e p    2801                              ( at time 1.3998599E+00 )

 nodal point  x-disp     y-disp      z-disp      x-vel       y-vel       z-vel      x-accl      y-accl      z-accl      x-coor      y-coor      z-coor
    22626  6.38477E-04-3.64024E-02-4.35584E+00-1.95266E-06-2.98003E-02-3.11600E+00-7.12929E-03 5.24772E-02-3.79171E-02 4.79648E+01-2.20662E+01 2.98266E+00



 n o d a l   p r i n t   o u t   f o r   t i m e  s t e p    2801                              ( at time 1.3998599E+00 )

 nodal point  x-rot      y-rot       z-rot       x-rot vel   y-rot vel   z-rot vel   x-rot acc   y-rot acc   z-rot acc
    22626 -3.63306E-07 3.26736E-05 5.48169E-05-7.94949E-06 2.12155E-05 2.84850E-05-2.31842E-05-3.14554E-05-1.24157E-04



 n o d a l   p r i n t   o u t   f o r   t i m e  s t e p    3001                              ( at time 1.4998499E+00 )

 nodal point  x-disp     y-disp      z-disp      x-vel       y-vel       z-vel      x-accl      y-accl      z-accl      x-coor      y-coor      z-coor
    22626  6.65856E-04-3.92839E-02-4.66753E+00 8.79560E-04-2.81062E-02-3.11806E+00 8.81601E-03 1.69423E-02-2.05275E-02 4.79648E+01-2.20691E+01 2.67097E+00



 n o d a l   p r i n t   o u t   f o r   t i m e  s t e p    3001                              ( at time 1.4998499E+00 )

 nodal point  x-rot      y-rot       z-rot       x-rot vel   y-rot vel   z-rot vel   x-rot acc   y-rot acc   z-rot acc
    22626 -1.10895E-06 3.40844E-05 5.66543E-05-5.52551E-06 5.77490E-06 8.73765E-06 2.42422E-05-1.54422E-04-1.97493E-04



 n o d a l   p r i n t   o u t   f o r   t i m e  s t e p    3201                              ( at time 1.5998399E+00 )

 nodal point  x-disp     y-disp      z-disp      x-vel       y-vel       z-vel      x-accl      y-accl      z-accl      x-coor      y-coor      z-coor
    22626  7.52763E-04-4.19960E-02-4.97939E+00 5.86281E-04-2.55607E-02-3.12048E+00-2.93308E-03 2.54578E-02-2.42234E-02 4.79649E+01-2.20718E+01 2.35911E+00



 n o d a l   p r i n t   o u t   f o r   t i m e  s t e p    3201                              ( at time 1.5998399E+00 )

 nodal point  x-rot      y-rot       z-rot       x-rot vel   y-rot vel   z-rot vel   x-rot acc   y-rot acc   z-rot acc
    22626 -1.81073E-06 3.44568E-05 5.65856E-05-5.58739E-06 4.76769E-06-3.32763E-06-6.18882E-07-1.00731E-05-1.20665E-04



 n o d a l   p r i n t   o u t   f o r   t i m e  s t e p    3401                              ( at time 1.6998299E+00 )

 nodal point  x-disp     y-disp      z-disp      x-vel       y-vel       z-vel      x-accl      y-accl      z-accl      x-coor      y-coor      z-coor
    22626  8.00257E-04-4.43088E-02-5.29160E+00 3.15338E-04-2.04053E-02-3.12443E+00-2.70970E-03 5.15587E-02-3.95409E-02 4.79650E+01-2.20741E+01 2.04690E+00



 n o d a l   p r i n t   o u t   f o r   t i m e  s t e p    3401                              ( at time 1.6998299E+00 )

 nodal point  x-rot      y-rot       z-rot       x-rot vel   y-rot vel   z-rot vel   x-rot acc   y-rot acc   z-rot acc
    22626 -2.45624E-06 3.46690E-05 5.62762E-05-7.93627E-06 1.43737E-07-7.13949E-06-2.34911E-05-4.62441E-05-3.81224E-05



 n o d a l   p r i n t   o u t   f o r   t i m e  s t e p    3601                              ( at time 1.7998199E+00 )

 nodal point  x-disp     y-disp      z-disp      x-vel       y-vel       z-vel      x-accl      y-accl      z-accl      x-coor      y-coor      z-coor
    22626  8.44032E-04-4.60999E-02-5.60422E+00 7.08294E-05-1.57547E-02-3.12843E+00-2.44534E-03 4.65114E-02-4.00011E-02 4.79650E+01-2.20759E+01 1.73428E+00



 n o d a l   p r i n t   o u t   f o r   t i m e  s t e p    3601                              ( at time 1.7998199E+00 )

 nodal point  x-rot      y-rot       z-rot       x-rot vel   y-rot vel   z-rot vel   x-rot acc   y-rot acc   z-rot acc
    22626 -3.01332E-06 3.45092E-05 5.54927E-05-4.42786E-06-8.09063E-06-1.35981E-05 3.50876E-05-8.23520E-05-6.45929E-05



 n o d a l   p r i n t   o u t   f o r   t i m e  s t e p    3801                              ( at time 1.8998099E+00 )

 nodal point  x-disp     y-disp      z-disp      x-vel       y-vel       z-vel      x-accl      y-accl      z-accl      x-coor      y-coor      z-coor
    22626  7.92788E-04-4.75452E-02-5.91715E+00-8.26479E-04-1.33103E-02-3.13087E+00-8.97398E-03 2.44462E-02-2.44046E-02 4.79650E+01-2.20773E+01 1.42135E+00



 n o d a l   p r i n t   o u t   f o r   t i m e  s t e p    3801                              ( at time 1.8998099E+00 )

 nodal point  x-rot      y-rot       z-rot       x-rot vel   y-rot vel   z-rot vel   x-rot acc   y-rot acc   z-rot acc
    22626 -3.66875E-06 3.34823E-05 5.33523E-05-2.59184E-06-1.34894E-05-2.80802E-05 1.83620E-05-5.39932E-05-1.44835E-04



 n o d a l   p r i n t   o u t   f o r   t i m e  s t e p    4001                              ( at time 1.9997999E+00 )

 nodal point  x-disp     y-disp      z-disp      x-vel       y-vel       z-vel      x-accl      y-accl      z-accl      x-coor      y-coor      z-coor
    22626  7.49888E-04-4.87528E-02-6.23033E+00-3.38515E-04-1.09308E-02-3.13316E+00 4.88013E-03 2.37975E-02-2.28905E-02 4.79649E+01-2.20785E+01 1.10817E+00



 n o d a l   p r i n t   o u t   f o r   t i m e  s t e p    4001                              ( at time 1.9997999E+00 )

 nodal point  x-rot      y-rot       z-rot       x-rot vel   y-rot vel   z-rot vel   x-rot acc   y-rot acc   z-rot acc
    22626 -3.93414E-06 3.18767E-05 5.01788E-05-2.08644E-06-1.57618E-05-3.40641E-05 5.05449E-06-2.27259E-05-5.98450E-05



 n o d a l   p r i n t   o u t   f o r   t i m e  s t e p    4201                              ( at time 2.0997899E+00 )

 nodal point  x-disp     y-disp      z-disp      x-vel       y-vel       z-vel      x-accl      y-accl      z-accl      x-coor      y-coor      z-coor
    22626  7.09292E-04-4.96540E-02-6.54377E+00-6.11055E-04-7.31554E-03-3.13625E+00-2.72567E-03 3.61561E-02-3.08544E-02 4.79649E+01-2.20794E+01 7.94727E-01



 n o d a l   p r i n t   o u t   f o r   t i m e  s t e p    4201                              ( at time 2.0997899E+00 )

 nodal point  x-rot      y-rot       z-rot       x-rot vel   y-rot vel   z-rot vel   x-rot acc   y-rot acc   z-rot acc
    22626 -4.22709E-06 2.97164E-05 4.58039E-05-7.07727E-06-2.35477E-05-5.23958E-05-4.99133E-05-7.78673E-05-1.83336E-04



 n o d a l   p r i n t   o u t   f o r   t i m e  s t e p    4401                              ( at time 2.1997798E+00 )

 nodal point  x-disp     y-disp      z-disp      x-vel       y-vel       z-vel      x-accl      y-accl      z-accl      x-coor      y-coor      z-coor
    22626  5.87041E-04-5.01665E-02-6.85754E+00-1.62534E-03-2.74349E-03-3.13991E+00-1.01438E-02 4.57251E-02-3.65986E-02 4.79648E+01-2.20800E+01 4.80960E-01



 n o d a l   p r i n t   o u t   f o r   t i m e  s t e p    4401                              ( at time 2.1997798E+00 )

 nodal point  x-rot      y-rot       z-rot       x-rot vel   y-rot vel   z-rot vel   x-rot acc   y-rot acc   z-rot acc
    22626 -5.03738E-06 2.70678E-05 4.04126E-05-7.92314E-06-2.80114E-05-5.52914E-05-8.45950E-06-4.46408E-05-2.89584E-05



 n o d a l   p r i n t   o u t   f o r   t i m e  s t e p    4601                              ( at time 2.2997698E+00 )

 nodal point  x-disp     y-disp      z-disp      x-vel       y-vel       z-vel      x-accl      y-accl      z-accl      x-coor      y-coor      z-coor
    22626  3.89550E-04-5.02000E-02-7.17168E+00-2.37593E-03 1.45538E-03-3.14316E+00-7.50662E-03 4.19928E-02-3.25807E-02 4.79646E+01-2.20800E+01 1.66819E-01



 n o d a l   p r i n t   o u t   f o r   t i m e  s t e p    4601                              ( at time 2.2997698E+00 )

 nodal point  x-rot      y-rot       z-rot       x-rot vel   y-rot vel   z-rot vel   x-rot acc   y-rot acc   z-rot acc
    22626 -6.12058E-06 2.42116E-05 3.48447E-05-1.18062E-05-3.49301E-05-6.39581E-05-3.88342E-05-6.91937E-05-8.66756E-05



 n o d a l   p r i n t   o u t   f o r   t i m e  s t e p    4801                              ( at time 2.3997598E+00 )

 nodal point  x-disp     y-disp      z-disp      x-vel       y-vel       z-vel      x-accl      y-accl      z-accl      x-coor      y-coor      z-coor
    22626  1.28712E-04-4.99736E-02-7.48606E+00-2.60200E-03 3.13115E-03-3.14519E+00-2.26099E-03 1.67594E-02-2.02223E-02 4.79643E+01-2.20798E+01-1.47561E-01



 n o d a l   p r i n t   o u t   f o r   t i m e  s t e p    4801                              ( at time 2.3997598E+00 )

 nodal point  x-rot      y-rot       z-rot       x-rot vel   y-rot vel   z-rot vel   x-rot acc   y-rot acc   z-rot acc
    22626 -7.51310E-06 2.05817E-05 2.75387E-05-1.55817E-05-3.80386E-05-7.93665E-05-3.77594E-05-3.10888E-05-1.54100E-04



 n o d a l   p r i n t   o u t   f o r   t i m e  s t e p    5001                              ( at time 2.4997498E+00 )

 nodal point  x-disp     y-disp      z-disp      x-vel       y-vel       z-vel      x-accl      y-accl      z-accl      x-coor      y-coor      z-coor
    22626 -1.72683E-04-4.95387E-02-7.80067E+00-3.39241E-03 6.23494E-03-3.14792E+00-7.90491E-03 3.10410E-02-2.73898E-02 4.79640E+01-2.20793E+01-4.62168E-01



 n o d a l   p r i n t   o u t   f o r   t i m e  s t e p    5001                              ( at time 2.4997498E+00 )

 nodal point  x-rot      y-rot       z-rot       x-rot vel   y-rot vel   z-rot vel   x-rot acc   y-rot acc   z-rot acc
    22626 -9.00826E-06 1.62838E-05 1.90226E-05-1.50715E-05-4.63645E-05-9.41897E-05 5.10229E-06-8.32666E-05-1.48247E-04



 n o d a l   p r i n t   o u t   f o r   t i m e  s t e p    5201                              ( at time 2.5997398E+00 )

 nodal point  x-disp     y-disp      z-disp      x-vel       y-vel       z-vel      x-accl      y-accl      z-accl      x-coor      y-coor      z-coor
    22626 -5.61394E-04-4.87013E-02-8.11561E+00-4.43982E-03 1.03771E-02-3.15137E+00-1.04751E-02 4.14263E-02-3.44955E-02 4.79636E+01-2.20785E+01-7.77110E-01



 n o d a l   p r i n t   o u t   f o r   t i m e  s t e p    5201                              ( at time 2.5997398E+00 )

 nodal point  x-rot      y-rot       z-rot       x-rot vel   y-rot vel   z-rot vel   x-rot acc   y-rot acc   z-rot acc
    22626 -1.05401E-05 1.12426E-05 9.13830E-06-1.71507E-05-5.35199E-05-1.04097E-04-2.07935E-05-7.15618E-05-9.90835E-05



 n o d a l   p r i n t   o u t   f o r   t i m e  s t e p    5401                              ( at time 2.6997298E+00 )

 nodal point  x-disp     y-disp      z-disp      x-vel       y-vel       z-vel      x-accl      y-accl      z-accl      x-coor      y-coor      z-coor
    22626 -1.05278E-03-4.74726E-02-8.43089E+00-5.67112E-03 1.37515E-02-3.15475E+00-1.23142E-02 3.37465E-02-3.37825E-02 4.79631E+01-2.20773E+01-1.09239E+00



 n o d a l   p r i n t   o u t   f o r   t i m e  s t e p    5401                              ( at time 2.6997298E+00 )

 nodal point  x-rot      y-rot       z-rot       x-rot vel   y-rot vel   z-rot vel   x-rot acc   y-rot acc   z-rot acc
    22626 -1.22241E-05 5.80813E-06-1.25065E-06-1.74599E-05-5.59847E-05-1.02812E-04-3.09273E-06-2.46498E-05 1.28553E-05



 n o d a l   p r i n t   o u t   f o r   t i m e  s t e p    5601                              ( at time 2.7997198E+00 )

 nodal point  x-disp     y-disp      z-disp      x-vel       y-vel       z-vel      x-accl      y-accl      z-accl      x-coor      y-coor      z-coor
    22626 -1.69671E-03-4.59871E-02-8.74645E+00-7.00714E-03 1.56675E-02-3.15683E+00-1.33615E-02 1.91627E-02-2.08232E-02 4.79625E+01-2.20758E+01-1.40795E+00



 n o d a l   p r i n t   o u t   f o r   t i m e  s t e p    5601                              ( at time 2.7997198E+00 )

 nodal point  x-rot      y-rot       z-rot       x-rot vel   y-rot vel   z-rot vel   x-rot acc   y-rot acc   z-rot acc
    22626 -1.40046E-05-4.34977E-07-1.27556E-05-1.68254E-05-6.97317E-05-1.29962E-04 6.34551E-06-1.37484E-04-2.71535E-04



 n o d a l   p r i n t   o u t   f o r   t i m e  s t e p    5801                              ( at time 2.8997098E+00 )

 nodal point  x-disp     y-disp      z-disp      x-vel       y-vel       z-vel      x-accl      y-accl      z-accl      x-coor      y-coor      z-coor
    22626 -2.40421E-03-4.43720E-02-9.06218E+00-7.19492E-03 1.64976E-02-3.15842E+00-1.87800E-03 8.30177E-03-1.59089E-02 4.79618E+01-2.20742E+01-1.72368E+00



 n o d a l   p r i n t   o u t   f o r   t i m e  s t e p    5801                              ( at time 2.8997098E+00 )

 nodal point  x-rot      y-rot       z-rot       x-rot vel   y-rot vel   z-rot vel   x-rot acc   y-rot acc   z-rot acc
    22626 -1.56293E-05-7.90638E-06-2.65724E-05-1.76664E-05-7.51301E-05-1.41311E-04-8.41075E-06-5.39899E-05-1.13500E-04



 n o d a l   p r i n t   o u t   f o r   t i m e  s t e p    6001                              ( at time 2.9996998E+00 )

 nodal point  x-disp     y-disp      z-disp      x-vel       y-vel       z-vel      x-accl      y-accl      z-accl      x-coor      y-coor      z-coor
    22626 -3.16724E-03-4.26174E-02-9.37810E+00-8.32067E-03 1.87332E-02-3.16071E+00-1.12586E-02 2.23579E-02-2.28141E-02 4.79610E+01-2.20724E+01-2.03960E+00



 n o d a l   p r i n t   o u t   f o r   t i m e  s t e p    6001                              ( at time 2.9996998E+00 )

 nodal point  x-rot      y-rot       z-rot       x-rot vel   y-rot vel   z-rot vel   x-rot acc   y-rot acc   z-rot acc
    22626 -1.75759E-05-1.54391E-05-4.04488E-05-2.27877E-05-7.47218E-05-1.40265E-04-5.12178E-05 4.08389E-06 1.04643E-05



 n o d a l   p r i n t   o u t   f o r   t i m e  s t e p    6201                              ( at time 3.0996898E+00 )

 nodal point  x-disp     y-disp      z-disp      x-vel       y-vel       z-vel      x-accl      y-accl      z-accl      x-coor      y-coor      z-coor
    22626 -4.08564E-03-4.06399E-02-9.69425E+00-9.96260E-03 2.03282E-02-3.16254E+00-1.64209E-02 1.59517E-02-1.83243E-02 4.79601E+01-2.20704E+01-2.35574E+00



 n o d a l   p r i n t   o u t   f o r   t i m e  s t e p    6201                              ( at time 3.0996898E+00 )

 nodal point  x-rot      y-rot       z-rot       x-rot vel   y-rot vel   z-rot vel   x-rot acc   y-rot acc   z-rot acc
    22626 -2.00821E-05-2.30976E-05-5.47307E-05-2.82090E-05-7.70386E-05-1.46101E-04-5.42189E-05-2.31707E-05-5.83694E-05



 n o d a l   p r i n t   o u t   f o r   t i m e  s t e p    6401                              ( at time 3.1996798E+00 )

 nodal point  x-disp     y-disp      z-disp      x-vel       y-vel       z-vel      x-accl      y-accl      z-accl      x-coor      y-coor      z-coor
    22626 -5.11088E-03-3.86522E-02-1.00105E+01-1.04577E-02 1.91521E-02-3.16292E+00-4.95139E-03-1.17627E-02-3.77931E-03 4.79591E+01-2.20684E+01-2.67200E+00



 n o d a l   p r i n t   o u t   f o r   t i m e  s t e p    6401                              ( at time 3.1996798E+00 )

 nodal point  x-rot      y-rot       z-rot       x-rot vel   y-rot vel   z-rot vel   x-rot acc   y-rot acc   z-rot acc
    22626 -2.29359E-05-3.10454E-05-6.91846E-05-3.00506E-05-8.07819E-05-1.48182E-04-1.84174E-05-3.74362E-05-2.08120E-05



 n o d a l   p r i n t   o u t   f o r   t i m e  s t e p    6601                              ( at time 3.2996698E+00 )

 nodal point  x-disp     y-disp      z-disp      x-vel       y-vel       z-vel      x-accl      y-accl      z-accl      x-coor      y-coor      z-coor
    22626 -6.17028E-03-3.68429E-02-1.03267E+01-1.07222E-02 1.70589E-02-3.16257E+00-2.64528E-03-2.09337E-02 3.46457E-03 4.79580E+01-2.20666E+01-2.98824E+00



 n o d a l   p r i n t   o u t   f o r   t i m e  s t e p    6601                              ( at time 3.2996698E+00 )

 nodal point  x-rot      y-rot       z-rot       x-rot vel   y-rot vel   z-rot vel   x-rot acc   y-rot acc   z-rot acc
    22626 -2.62102E-05-3.90677E-05-8.40328E-05-3.44118E-05-8.12450E-05-1.49902E-04-4.36166E-05-4.63111E-06-1.71970E-05



 n o d a l   p r i n t   o u t   f o r   t i m e  s t e p    6801                              ( at time 3.3996598E+00 )

 nodal point  x-disp     y-disp      z-disp      x-vel       y-vel       z-vel      x-accl      y-accl      z-accl      x-coor      y-coor      z-coor
    22626 -7.27713E-03-3.52434E-02-1.06430E+01-1.13204E-02 1.50088E-02-3.16239E+00-5.98233E-03-2.05032E-02 1.78116E-03 4.79569E+01-2.20650E+01-3.30446E+00



 n o d a l   p r i n t   o u t   f o r   t i m e  s t e p    6801                              ( at time 3.3996598E+00 )

 nodal point  x-rot      y-rot       z-rot       x-rot vel   y-rot vel   z-rot vel   x-rot acc   y-rot acc   z-rot acc
    22626 -2.96067E-05-4.69021E-05-9.86571E-05-3.70278E-05-7.50382E-05-1.41977E-04-2.61627E-05 6.20741E-05 7.92562E-05



 n o d a l   p r i n t   o u t   f o r   t i m e  s t e p    7001                              ( at time 3.4996498E+00 )

 nodal point  x-disp     y-disp      z-disp      x-vel       y-vel       z-vel      x-accl      y-accl      z-accl      x-coor      y-coor      z-coor
    22626 -8.44076E-03-3.38299E-02-1.09592E+01-1.20042E-02 1.31777E-02-3.16242E+00-6.83928E-03-1.83130E-02-2.98053E-04 4.79557E+01-2.20636E+01-3.62067E+00



 n o d a l   p r i n t   o u t   f o r   t i m e  s t e p    7001                              ( at time 3.4996498E+00 )

 nodal point  x-rot      y-rot       z-rot       x-rot vel   y-rot vel   z-rot vel   x-rot acc   y-rot acc   z-rot acc
    22626 -3.32422E-05-5.40439E-05-1.11963E-04-3.67395E-05-6.93204E-05-1.27942E-04 2.88408E-06 5.71828E-05 1.40365E-04



 n o d a l   p r i n t   o u t   f o r   t i m e  s t e p    7201                              ( at time 3.5996397E+00 )

 nodal point  x-disp     y-disp      z-disp      x-vel       y-vel       z-vel      x-accl      y-accl      z-accl      x-coor      y-coor      z-coor
    22626 -9.65777E-03-3.26341E-02-1.12754E+01-1.20439E-02 1.04738E-02-3.16212E+00-3.96644E-04-2.70417E-02 3.04968E-03 4.79545E+01-2.20624E+01-3.93688E+00



 n o d a l   p r i n t   o u t   f o r   t i m e  s t e p    7201                              ( at time 3.5996397E+00 )

 nodal point  x-rot      y-rot       z-rot       x-rot vel   y-rot vel   z-rot vel   x-rot acc   y-rot acc   z-rot acc
    22626 -3.70997E-05-6.06828E-05-1.24157E-04-3.69635E-05-6.32319E-05-1.11682E-04-2.24064E-06 6.08921E-05 1.62616E-04



 n o d a l   p r i n t   o u t   f o r   t i m e  s t e p    7401                              ( at time 3.6996297E+00 )

 nodal point  x-disp     y-disp      z-disp      x-vel       y-vel       z-vel      x-accl      y-accl      z-accl      x-coor      y-coor      z-coor
    22626 -1.08417E-02-3.17566E-02-1.15915E+01-1.17098E-02 7.00995E-03-3.16100E+00 3.34126E-03-3.46416E-02 1.11567E-02 4.79533E+01-2.20615E+01-4.25300E+00



 n o d a l   p r i n t   o u t   f o r   t i m e  s t e p    7401                              ( at time 3.6996297E+00 )

 nodal point  x-rot      y-rot       z-rot       x-rot vel   y-rot vel   z-rot vel   x-rot acc   y-rot acc   z-rot acc
    22626 -4.09201E-05-6.66176E-05-1.34932E-04-3.91137E-05-5.57048E-05-1.03226E-04-2.15045E-05 7.52779E-05 8.45697E-05



 n o d a l   p r i n t   o u t   f o r   t i m e  s t e p    7601                              ( at time 3.7996197E+00 )

 nodal point  x-disp     y-disp      z-disp      x-vel       y-vel       z-vel      x-accl      y-accl      z-accl      x-coor      y-coor      z-coor
    22626 -1.19837E-02-3.12058E-02-1.19075E+01-1.11480E-02 4.13027E-03-3.16028E+00 5.61833E-03-2.87997E-02 7.21766E-03 4.79522E+01-2.20610E+01-4.56903E+00



 n o d a l   p r i n t   o u t   f o r   t i m e  s t e p    7601                              ( at time 3.7996197E+00 )

 nodal point  x-rot      y-rot       z-rot       x-rot vel   y-rot vel   z-rot vel   x-rot acc   y-rot acc   z-rot acc
    22626 -4.47680E-05-7.17307E-05-1.44456E-04-3.87384E-05-4.37237E-05-8.00762E-05 3.75361E-06 1.19823E-04 2.31519E-04



 n o d a l   p r i n t   o u t   f o r   t i m e  s t e p    7801                              ( at time 3.8996097E+00 )

 nodal point  x-disp     y-disp      z-disp      x-vel       y-vel       z-vel      x-accl      y-accl      z-accl      x-coor      y-coor      z-coor
    22626 -1.30659E-02-3.08911E-02-1.22235E+01-1.04676E-02 2.40721E-03-3.16016E+00 6.80483E-03-1.72323E-02 1.13975E-03 4.79511E+01-2.20607E+01-4.88502E+00



 n o d a l   p r i n t   o u t   f o r   t i m e  s t e p    7801                              ( at time 3.8996097E+00 )

 nodal point  x-rot      y-rot       z-rot       x-rot vel   y-rot vel   z-rot vel   x-rot acc   y-rot acc   z-rot acc
    22626 -4.87275E-05-7.53655E-05-1.51155E-04-4.23198E-05-2.71054E-05-5.02074E-05-3.58170E-05 1.66199E-04 2.98718E-04



 n o d a l   p r i n t   o u t   f o r   t i m e  s t e p    8001                              ( at time 3.9995997E+00 )

 nodal point  x-disp     y-disp      z-disp      x-vel       y-vel       z-vel      x-accl      y-accl      z-accl      x-coor      y-coor      z-coor
    22626 -1.40814E-02-3.07068E-02-1.25395E+01-9.81465E-03 1.23572E-03-3.16057E+00 6.53017E-03-1.17162E-02-4.08929E-03 4.79501E+01-2.20605E+01-5.20103E+00



 n o d a l   p r i n t   o u t   f o r   t i m e  s t e p    8001                              ( at time 3.9995997E+00 )

 nodal point  x-rot      y-rot       z-rot       x-rot vel   y-rot vel   z-rot vel   x-rot acc   y-rot acc   z-rot acc
    22626 -5.28539E-05-7.75810E-05-1.55148E-04-4.24140E-05-1.71664E-05-3.16347E-05-9.42550E-07 9.94001E-05 1.85746E-04



 n o d a l   p r i n t   o u t   f o r   t i m e  s t e p    8201                              ( at time 4.0995897E+00 )

 nodal point  x-disp     y-disp      z-disp      x-vel       y-vel       z-vel      x-accl      y-accl      z-accl      x-coor      y-coor      z-coor
    22626 -1.49804E-02-3.07004E-02-1.28555E+01-8.09003E-03-1.31348E-03-3.16006E+00 1.72479E-02-2.54945E-02 5.09074E-03 4.79492E+01-2.20605E+01-5.51702E+00



 n o d a l   p r i n t   o u t   f o r   t i m e  s t e p    8201                              ( at time 4.0995897E+00 )

 nodal point  x-rot      y-rot       z-rot       x-rot vel   y-rot vel   z-rot vel   x-rot acc   y-rot acc   z-rot acc
    22626 -5.70571E-05-7.86005E-05-1.56987E-04-4.18897E-05 1.65877E-07-2.53683E-06 5.24350E-06 1.73340E-04 2.91007E-04



 n o d a l   p r i n t   o u t   f o r   t i m e  s t e p    8401                              ( at time 4.1995797E+00 )

 nodal point  x-disp     y-disp      z-disp      x-vel       y-vel       z-vel      x-accl      y-accl      z-accl      x-coor      y-coor      z-coor
    22626 -1.57031E-02-3.09496E-02-1.31715E+01-6.31781E-03-3.56528E-03-3.15950E+00 1.77239E-02-2.25203E-02 5.64155E-03 4.79485E+01-2.20607E+01-5.83297E+00



 n o d a l   p r i n t   o u t   f o r   t i m e  s t e p    8401                              ( at time 4.1995797E+00 )

 nodal point  x-rot      y-rot       z-rot       x-rot vel   y-rot vel   z-rot vel   x-rot acc   y-rot acc   z-rot acc
    22626 -6.11230E-05-7.77862E-05-1.55470E-04-4.03704E-05 1.69431E-05 3.10646E-05 1.51941E-05 1.67789E-04 3.36049E-04



 n o d a l   p r i n t   o u t   f o r   t i m e  s t e p    8601                              ( at time 4.2995697E+00 )

 nodal point  x-disp     y-disp      z-disp      x-vel       y-vel       z-vel      x-accl      y-accl      z-accl      x-coor      y-coor      z-coor
    22626 -1.62709E-02-3.14185E-02-1.34874E+01-4.86908E-03-5.47248E-03-3.15960E+00 1.44888E-02-1.90739E-02-9.87153E-04 4.79479E+01-2.20612E+01-6.14888E+00



 n o d a l   p r i n t   o u t   f o r   t i m e  s t e p    8601                              ( at time 4.2995697E+00 )

 nodal point  x-rot      y-rot       z-rot       x-rot vel   y-rot vel   z-rot vel   x-rot acc   y-rot acc   z-rot acc
    22626 -6.50330E-05-7.52142E-05-1.50882E-04-3.77044E-05 3.18741E-05 5.90619E-05 2.66634E-05 1.49325E-04 2.80002E-04



 n o d a l   p r i n t   o u t   f o r   t i m e  s t e p    8801                              ( at time 4.3995597E+00 )

 nodal point  x-disp     y-disp      z-disp      x-vel       y-vel       z-vel      x-accl      y-accl      z-accl      x-coor      y-coor      z-coor
    22626 -1.66670E-02-3.19989E-02-1.38033E+01-3.10460E-03-6.22518E-03-3.16013E+00 1.76466E-02-7.52784E-03-5.35304E-03 4.79475E+01-2.20618E+01-6.46483E+00



 n o d a l   p r i n t   o u t   f o r   t i m e  s t e p    8801                              ( at time 4.3995597E+00 )

 nodal point  x-rot      y-rot       z-rot       x-rot vel   y-rot vel   z-rot vel   x-rot acc   y-rot acc   z-rot acc
    22626 -6.88326E-05-7.10362E-05-1.43011E-04-3.71723E-05 5.09301E-05 9.50565E-05 5.32181E-06 1.90580E-04 3.59982E-04



 n o d a l   p r i n t   o u t   f o r   t i m e  s t e p    9001                              ( at time 4.4995497E+00 )

 nodal point  x-disp     y-disp      z-disp      x-vel       y-vel       z-vel      x-accl      y-accl      z-accl      x-coor      y-coor      z-coor
    22626 -1.68922E-02-3.27168E-02-1.41193E+01-1.29129E-03-8.31845E-03-3.15984E+00 1.81348E-02-2.09346E-02 2.95668E-03 4.79473E+01-2.20625E+01-6.78080E+00



 n o d a l   p r i n t   o u t   f o r   t i m e  s t e p    9001                              ( at time 4.4995497E+00 )

 nodal point  x-rot      y-rot       z-rot       x-rot vel   y-rot vel   z-rot vel   x-rot acc   y-rot acc   z-rot acc
    22626 -7.22351E-05-6.48560E-05-1.31460E-04-3.04107E-05 6.83538E-05 1.28406E-04 6.76224E-05 1.74254E-04 3.33529E-04



 n o d a l   p r i n t   o u t   f o r   t i m e  s t e p    9201                              ( at time 4.5995397E+00 )

 nodal point  x-disp     y-disp      z-disp      x-vel       y-vel       z-vel      x-accl      y-accl      z-accl      x-coor      y-coor      z-coor
    22626 -1.69147E-02-3.36900E-02-1.44352E+01 6.96997E-04-1.09614E-02-3.15936E+00 1.98849E-02-2.64324E-02 4.75932E-03 4.79473E+01-2.20635E+01-7.09673E+00



 n o d a l   p r i n t   o u t   f o r   t i m e  s t e p    9201                              ( at time 4.5995397E+00 )

 nodal point  x-rot      y-rot       z-rot       x-rot vel   y-rot vel   z-rot vel   x-rot acc   y-rot acc   z-rot acc
    22626 -7.52858E-05-5.72283E-05-1.17196E-04-2.90556E-05 8.30763E-05 1.53046E-04 1.35518E-05 1.47239E-04 2.46423E-04



 n o d a l   p r i n t   o u t   f o r   t i m e  s t e p    9401                              ( at time 4.6995297E+00 )

 nodal point  x-disp     y-disp      z-disp      x-vel       y-vel       z-vel      x-accl      y-accl      z-accl      x-coor      y-coor      z-coor
    22626 -1.67238E-02-3.48549E-02-1.47511E+01 2.98104E-03-1.22867E-02-3.15946E+00 2.28427E-02-1.32542E-02-9.25158E-04 4.79475E+01-2.20646E+01-7.41264E+00



 n o d a l   p r i n t   o u t   f o r   t i m e  s t e p    9401                              ( at time 4.6995297E+00 )

 nodal point  x-rot      y-rot       z-rot       x-rot vel   y-rot vel   z-rot vel   x-rot acc   y-rot acc   z-rot acc
    22626 -7.81320E-05-4.79283E-05-1.00036E-04-2.87908E-05 1.03756E-04 1.90259E-04 2.64850E-06 2.06814E-04 3.72167E-04



 n o d a l   p r i n t   o u t   f o r   t i m e  s t e p    9601                              ( at time 4.7995197E+00 )

 nodal point  x-disp     y-disp      z-disp      x-vel       y-vel       z-vel      x-accl      y-accl      z-accl      x-coor      y-coor      z-coor
    22626 -1.63213E-02-3.61364E-02-1.50671E+01 4.92903E-03-1.31876E-02-3.15989E+00 1.94819E-02-9.00950E-03-4.34443E-03 4.79479E+01-2.20659E+01-7.72857E+00



 n o d a l   p r i n t   o u t   f o r   t i m e  s t e p    9601                              ( at time 4.7995197E+00 )

 nodal point  x-rot      y-rot       z-rot       x-rot vel   y-rot vel   z-rot vel   x-rot acc   y-rot acc   z-rot acc
    22626 -8.09069E-05-3.66809E-05-7.92379E-05-2.98382E-05 1.21945E-04 2.26538E-04-1.04750E-05 1.81908E-04 3.62825E-04



 n o d a l   p r i n t   o u t   f o r   t i m e  s t e p    9801                              ( at time 4.8995097E+00 )

 nodal point  x-disp     y-disp      z-disp      x-vel       y-vel       z-vel      x-accl      y-accl      z-accl      x-coor      y-coor      z-coor
    22626 -1.57304E-02-3.74889E-02-1.53831E+01 6.93222E-03-1.40007E-02-3.16027E+00 2.00339E-02-8.13239E-03-3.76978E-03 4.79484E+01-2.20673E+01-8.04455E+00



 n o d a l   p r i n t   o u t   f o r   t i m e  s t e p    9801                              ( at time 4.8995097E+00 )

 nodal point  x-rot      y-rot       z-rot       x-rot vel   y-rot vel   z-rot vel   x-rot acc   y-rot acc   z-rot acc
    22626 -8.37181E-05-2.37483E-05-5.54326E-05-2.86620E-05 1.35129E-04 2.48070E-04 1.17630E-05 1.31856E-04 2.15339E-04



 n o d a l   p r i n t   o u t   f o r   t i m e  s t e p   10001                              ( at time 4.9994997E+00 )

 nodal point  x-disp     y-disp      z-disp      x-vel       y-vel       z-vel      x-accl      y-accl      z-accl      x-coor      y-coor      z-coor
    22626 -1.49261E-02-3.89712E-02-1.56990E+01 9.17604E-03-1.56356E-02-3.16029E+00 2.24404E-02-1.63508E-02-2.62286E-04 4.79493E+01-2.20688E+01-8.36055E+00



 n o d a l   p r i n t   o u t   f o r   t i m e  s t e p   10001                              ( at time 4.9994997E+00 )

 nodal point  x-rot      y-rot       z-rot       x-rot vel   y-rot vel   z-rot vel   x-rot acc   y-rot acc   z-rot acc
    22626 -8.65286E-05-9.67702E-06-2.93461E-05-2.76180E-05 1.46874E-04 2.72900E-04 1.04413E-05 1.17467E-04 2.48327E-04



 n o d a l   p r i n t   o u t   f o r   t i m e  s t e p   10202                              ( at time 5.0999896E+00 )

 nodal point  x-disp     y-disp      z-disp      x-vel       y-vel       z-vel      x-accl      y-accl      z-accl      x-coor      y-coor      z-coor
    22626 -1.38938E-02-4.05872E-02-1.60166E+01 1.12965E-02-1.63867E-02-3.16072E+00 2.11016E-02-7.47369E-03-4.24690E-03 4.79503E+01-2.20704E+01-8.67814E+00



 n o d a l   p r i n t   o u t   f o r   t i m e  s t e p   10202                              ( at time 5.0999896E+00 )

 nodal point  x-rot      y-rot       z-rot       x-rot vel   y-rot vel   z-rot vel   x-rot acc   y-rot acc   z-rot acc
    22626 -8.92976E-05 5.94738E-06-5.80231E-07-2.78058E-05 1.61350E-04 2.99034E-04-1.86865E-06 1.44047E-04 2.60067E-04



 n o d a l   p r i n t   o u t   f o r   t i m e  s t e p   10402                              ( at time 5.1999796E+00 )

 nodal point  x-disp     y-disp      z-disp      x-vel       y-vel       z-vel      x-accl      y-accl      z-accl      x-coor      y-coor      z-coor
    22626 -1.26804E-02-4.22045E-02-1.63327E+01 1.29115E-02-1.56882E-02-3.16199E+00 1.61515E-02 6.98569E-03-1.27471E-02 4.79515E+01-2.20720E+01-8.99424E+00



 n o d a l   p r i n t   o u t   f o r   t i m e  s t e p   10402                              ( at time 5.1999796E+00 )

 nodal point  x-rot      y-rot       z-rot       x-rot vel   y-rot vel   z-rot vel   x-rot acc   y-rot acc   z-rot acc
    22626 -9.19989E-05 2.27671E-05 3.02906E-05-2.68913E-05 1.71466E-04 3.17570E-04 9.14525E-06 1.01179E-04 1.85378E-04



 n o d a l   p r i n t   o u t   f o r   t i m e  s t e p   10602                              ( at time 5.2999696E+00 )

 nodal point  x-disp     y-disp      z-disp      x-vel       y-vel       z-vel      x-accl      y-accl      z-accl      x-coor      y-coor      z-coor
    22626 -1.13284E-02-4.37215E-02-1.66490E+01 1.40696E-02-1.47107E-02-3.16371E+00 1.15817E-02 9.77565E-03-1.71464E-02 4.79529E+01-2.20735E+01-9.31050E+00



 n o d a l   p r i n t   o u t   f o r   t i m e  s t e p   10602                              ( at time 5.2999696E+00 )

 nodal point  x-rot      y-rot       z-rot       x-rot vel   y-rot vel   z-rot vel   x-rot acc   y-rot acc   z-rot acc
    22626 -9.45897E-05 4.02649E-05 6.27022E-05-2.68907E-05 1.77279E-04 3.28960E-04 5.96689E-09 5.81300E-05 1.13913E-04



 n o d a l   p r i n t   o u t   f o r   t i m e  s t e p   10802                              ( at time 5.3999596E+00 )

 nodal point  x-disp     y-disp      z-disp      x-vel       y-vel       z-vel      x-accl      y-accl      z-accl      x-coor      y-coor      z-coor
    22626 -9.86560E-03-4.51434E-02-1.69654E+01 1.53088E-02-1.37020E-02-3.16532E+00 1.23938E-02 1.00884E-02-1.61140E-02 4.79543E+01-2.20749E+01-9.62692E+00



 n o d a l   p r i n t   o u t   f o r   t i m e  s t e p   10802                              ( at time 5.3999596E+00 )

 nodal point  x-rot      y-rot       z-rot       x-rot vel   y-rot vel   z-rot vel   x-rot acc   y-rot acc   z-rot acc
    22626 -9.70661E-05 5.83009E-05 9.61541E-05-2.20364E-05 1.80551E-04 3.35787E-04 4.85481E-05 3.27250E-05 6.82810E-05



 n o d a l   p r i n t   o u t   f o r   t i m e  s t e p   11002                              ( at time 5.4999496E+00 )

 nodal point  x-disp     y-disp      z-disp      x-vel       y-vel       z-vel      x-accl      y-accl      z-accl      x-coor      y-coor      z-coor
    22626 -8.26211E-03-4.64377E-02-1.72820E+01 1.66367E-02-1.20883E-02-3.16725E+00 1.32803E-02 1.61378E-02-1.93305E-02 4.79559E+01-2.20762E+01-9.94351E+00



 n o d a l   p r i n t   o u t   f o r   t i m e  s t e p   11002                              ( at time 5.4999496E+00 )

 nodal point  x-rot      y-rot       z-rot       x-rot vel   y-rot vel   z-rot vel   x-rot acc   y-rot acc   z-rot acc
    22626 -9.92797E-05 7.65617E-05 1.30285E-04-2.12185E-05 1.83331E-04 3.43650E-04 8.17957E-06 2.78024E-05 7.86340E-05



 n o d a l   p r i n t   o u t   f o r   t i m e  s t e p   11202                              ( at time 5.5999396E+00 )

 nodal point  x-disp     y-disp      z-disp      x-vel       y-vel       z-vel      x-accl      y-accl      z-accl      x-coor      y-coor      z-coor
    22626 -6.56039E-03-4.75341E-02-1.75988E+01 1.73434E-02-9.74838E-03-3.16941E+00 7.06740E-03 2.34019E-02-2.15838E-02 4.79576E+01-2.20773E+01-1.02603E+01



 n o d a l   p r i n t   o u t   f o r   t i m e  s t e p   11202                              ( at time 5.5999396E+00 )

 nodal point  x-rot      y-rot       z-rot       x-rot vel   y-rot vel   z-rot vel   x-rot acc   y-rot acc   z-rot acc
    22626 -1.01414E-04 9.50964E-05 1.64950E-04-2.37353E-05 1.87720E-04 3.49709E-04-2.51707E-05 4.38911E-05 6.05959E-05



 n o d a l   p r i n t   o u t   f o r   t i m e  s t e p   11402                              ( at time 5.6999296E+00 )

 nodal point  x-disp     y-disp      z-disp      x-vel       y-vel       z-vel      x-accl      y-accl      z-accl      x-coor      y-coor      z-coor
    22626 -4.78878E-03-4.83950E-02-1.79158E+01 1.77764E-02-7.30996E-03-3.17092E+00 4.33068E-03 2.43866E-02-1.50743E-02 4.79594E+01-2.20782E+01-1.05773E+01



 n o d a l   p r i n t   o u t   f o r   t i m e  s t e p   11402                              ( at time 5.6999296E+00 )

 nodal point  x-rot      y-rot       z-rot       x-rot vel   y-rot vel   z-rot vel   x-rot acc   y-rot acc   z-rot acc
    22626 -1.04141E-04 1.14363E-04 2.00464E-04-3.13988E-05 1.98703E-04 3.54213E-04-7.66415E-05 1.09841E-04 4.50428E-05



 n o d a l   p r i n t   o u t   f o r   t i m e  s t e p   11602                              ( at time 5.7999195E+00 )

 nodal point  x-disp     y-disp      z-disp      x-vel       y-vel       z-vel      x-accl      y-accl      z-accl      x-coor      y-coor      z-coor
    22626 -3.01183E-03-4.89938E-02-1.82329E+01 1.78546E-02-5.20563E-03-3.17079E+00 7.81533E-04 2.10454E-02 1.30667E-03 4.79612E+01-2.20788E+01-1.08944E+01



 n o d a l   p r i n t   o u t   f o r   t i m e  s t e p   11602                              ( at time 5.7999195E+00 )

 nodal point  x-rot      y-rot       z-rot       x-rot vel   y-rot vel   z-rot vel   x-rot acc   y-rot acc   z-rot acc
    22626 -1.07236E-04 1.35562E-04 2.35721E-04-3.44280E-05 2.32510E-04 3.54031E-04-3.02959E-05 3.38109E-04-1.81888E-06



 n o d a l   p r i n t   o u t   f o r   t i m e  s t e p   11802                              ( at time 5.8999095E+00 )

 nodal point  x-disp     y-disp      z-disp      x-vel       y-vel       z-vel      x-accl      y-accl      z-accl      x-coor      y-coor      z-coor
    22626 -1.25050E-03-4.94754E-02-1.85498E+01 1.77764E-02-4.44089E-03-3.16788E+00-7.81757E-04 7.64817E-03 2.90447E-02 4.79629E+01-2.20793E+01-1.12113E+01



 n o d a l   p r i n t   o u t   f o r   t i m e  s t e p   11802                              ( at time 5.8999095E+00 )

 nodal point  x-rot      y-rot       z-rot       x-rot vel   y-rot vel   z-rot vel   x-rot acc   y-rot acc   z-rot acc
    22626 -1.10988E-04 1.61257E-04 2.70558E-04-3.82683E-05 2.84356E-04 3.49463E-04-3.84065E-05 5.18507E-04-4.56845E-05



 n o d a l   p r i n t   o u t   f o r   t i m e  s t e p   12002                              ( at time 5.9998995E+00 )

 nodal point  x-disp     y-disp      z-disp      x-vel       y-vel       z-vel      x-accl      y-accl      z-accl      x-coor      y-coor      z-coor
    22626  5.17583E-04-4.98442E-02-1.88663E+01 1.74448E-02-3.02440E-03-3.16357E+00-3.31618E-03 1.41663E-02 4.31367E-02 4.79647E+01-2.20796E+01-1.15278E+01



 n o d a l   p r i n t   o u t   f o r   t i m e  s t e p   12002                              ( at time 5.9998995E+00 )

 nodal point  x-rot      y-rot       z-rot       x-rot vel   y-rot vel   z-rot vel   x-rot acc   y-rot acc   z-rot acc
    22626 -1.14645E-04 1.93367E-04 3.04289E-04-3.37090E-05 3.58640E-04 3.30544E-04 4.55978E-05 7.42918E-04-1.89204E-04



 n o d a l   p r i n t   o u t   f o r   t i m e  s t e p   12202                              ( at time 6.0998895E+00 )

 nodal point  x-disp     y-disp      z-disp      x-vel       y-vel       z-vel      x-accl      y-accl      z-accl      x-coor      y-coor      z-coor
    22626  2.24970E-03-5.00878E-02-1.91823E+01 1.68325E-02-1.78917E-03-3.15616E+00-6.12392E-03 1.23535E-02 7.41243E-02 4.79664E+01-2.20799E+01-1.18438E+01



 n o d a l   p r i n t   o u t   f o r   t i m e  s t e p   12202                              ( at time 6.0998895E+00 )

 nodal point  x-rot      y-rot       z-rot       x-rot vel   y-rot vel   z-rot vel   x-rot acc   y-rot acc   z-rot acc
    22626 -1.18773E-04 2.33980E-04 3.36776E-04-4.22995E-05 4.62347E-04 3.14294E-04-8.59136E-05 1.03717E-03-1.62522E-04



 n o d a l   p r i n t   o u t   f o r   t i m e  s t e p   12402                              ( at time 6.1998795E+00 )

 nodal point  x-disp     y-disp      z-disp      x-vel       y-vel       z-vel      x-accl      y-accl      z-accl      x-coor      y-coor      z-coor
    22626  3.85388E-03-5.02059E-02-1.94975E+01 1.53066E-02-4.00361E-04-3.14683E+00-1.52607E-02 1.38895E-02 9.32835E-02 4.79680E+01-2.20800E+01-1.21590E+01



 n o d a l   p r i n t   o u t   f o r   t i m e  s t e p   12402                              ( at time 6.1998795E+00 )

 nodal point  x-rot      y-rot       z-rot       x-rot vel   y-rot vel   z-rot vel   x-rot acc   y-rot acc   z-rot acc
    22626 -1.22075E-04 2.86617E-04 3.67151E-04-1.74773E-05 5.98318E-04 2.85568E-04 2.48247E-04 1.35985E-03-2.87285E-04



 n o d a l   p r i n t   o u t   f o r   t i m e  s t e p   12602                              ( at time 6.2998695E+00 )

 nodal point  x-disp     y-disp      z-disp      x-vel       y-vel       z-vel      x-accl      y-accl      z-accl      x-coor      y-coor      z-coor
    22626  5.31480E-03-5.01897E-02-1.98114E+01 1.42955E-02 5.49451E-04-3.13304E+00-1.01117E-02 9.49908E-03 1.37963E-01 4.79695E+01-2.20800E+01-1.24729E+01



 n o d a l   p r i n t   o u t   f o r   t i m e  s t e p   12602                              ( at time 6.2998695E+00 )

 nodal point  x-rot      y-rot       z-rot       x-rot vel   y-rot vel   z-rot vel   x-rot acc   y-rot acc   z-rot acc
    22626 -1.22863E-04 3.54795E-04 3.94060E-04 4.19044E-06 7.74798E-04 2.47608E-04 2.16699E-04 1.76498E-03-3.79641E-04



 n o d a l   p r i n t   o u t   f o r   t i m e  s t e p   12802                              ( at time 6.3998595E+00 )

 nodal point  x-disp     y-disp      z-disp      x-vel       y-vel       z-vel      x-accl      y-accl      z-accl      x-coor      y-coor      z-coor
    22626  6.65048E-03-5.00494E-02-2.01239E+01 1.21596E-02 2.32621E-03-3.11613E+00-2.13616E-02 1.77694E-02 1.69101E-01 4.79708E+01-2.20798E+01-1.27854E+01



 n o d a l   p r i n t   o u t   f o r   t i m e  s t e p   12802                              ( at time 6.3998595E+00 )

 nodal point  x-rot      y-rot       z-rot       x-rot vel   y-rot vel   z-rot vel   x-rot acc   y-rot acc   z-rot acc
    22626 -1.20358E-04 4.43992E-04 4.16882E-04 4.50894E-05 1.00938E-03 2.13071E-04 4.09031E-04 2.34603E-03-3.45403E-04



 n o d a l   p r i n t   o u t   f o r   t i m e  s t e p   13002                              ( at time 6.4998495E+00 )

 nodal point  x-disp     y-disp      z-disp      x-vel       y-vel       z-vel      x-accl      y-accl      z-accl      x-coor      y-coor      z-coor
    22626  7.75452E-03-4.97285E-02-2.04345E+01 9.46113E-03 4.14643E-03-3.09644E+00-2.69871E-02 1.82040E-02 1.96882E-01 4.79719E+01-2.20795E+01-1.30960E+01



 n o d a l   p r i n t   o u t   f o r   t i m e  s t e p   13002                              ( at time 6.4998495E+00 )

 nodal point  x-rot      y-rot       z-rot       x-rot vel   y-rot vel   z-rot vel   x-rot acc   y-rot acc   z-rot acc
    22626 -1.14792E-04 5.58530E-04 4.36822E-04 7.06056E-05 1.28118E-03 1.79953E-04 2.55188E-04 2.71832E-03-3.31215E-04



 n o d a l   p r i n t   o u t   f o r   t i m e  s t e p   13202                              ( at time 6.5998395E+00 )

 nodal point  x-disp     y-disp      z-disp      x-vel       y-vel       z-vel      x-accl      y-accl      z-accl      x-coor      y-coor      z-coor
    22626  8.53127E-03-4.92042E-02-2.07430E+01 5.81806E-03 7.09514E-03-3.07375E+00-3.64342E-02 2.94899E-02 2.26920E-01 4.79727E+01-2.20790E+01-1.34045E+01



 n o d a l   p r i n t   o u t   f o r   t i m e  s t e p   13202                              ( at time 6.5998395E+00 )

 nodal point  x-rot      y-rot       z-rot       x-rot vel   y-rot vel   z-rot vel   x-rot acc   y-rot acc   z-rot acc
    22626 -1.04916E-04 7.03167E-04 4.51915E-04 1.33859E-04 1.61797E-03 1.20154E-04 6.32592E-04 3.36823E-03-5.98051E-04



 n o d a l   p r i n t   o u t   f o r   t i m e  s t e p   13402                              ( at time 6.6998295E+00 )

 nodal point  x-disp     y-disp      z-disp      x-vel       y-vel       z-vel      x-accl      y-accl      z-accl      x-coor      y-coor      z-coor
    22626  8.88593E-03-4.83993E-02-2.10491E+01 1.62956E-03 9.16924E-03-3.04716E+00-4.18893E-02 2.07431E-02 2.65897E-01 4.79731E+01-2.20782E+01-1.37106E+01



 n o d a l   p r i n t   o u t   f o r   t i m e  s t e p   13402                              ( at time 6.6998295E+00 )

 nodal point  x-rot      y-rot       z-rot       x-rot vel   y-rot vel   z-rot vel   x-rot acc   y-rot acc   z-rot acc
    22626 -8.81667E-05 8.82687E-04 4.61265E-04 1.93529E-04 1.98044E-03 6.64495E-05 5.96768E-04 3.62501E-03-5.37097E-04



 n o d a l   p r i n t   o u t   f o r   t i m e  s t e p   13602                              ( at time 6.7998195E+00 )

 nodal point  x-disp     y-disp      z-disp      x-vel       y-vel       z-vel      x-accl      y-accl      z-accl      x-coor      y-coor      z-coor
    22626  8.78817E-03-4.73920E-02-2.13523E+01-3.70062E-03 1.08571E-02-3.01794E+00-5.33072E-02 1.68803E-02 2.92235E-01 4.79730E+01-2.20772E+01-1.40138E+01



 n o d a l   p r i n t   o u t   f o r   t i m e  s t e p   13602                              ( at time 6.7998195E+00 )

 nodal point  x-rot      y-rot       z-rot       x-rot vel   y-rot vel   z-rot vel   x-rot acc   y-rot acc   z-rot acc
    22626 -6.54254E-05 1.10186E-03 4.65274E-04 2.57047E-04 2.40583E-03 2.35791E-05 6.35238E-04 4.25433E-03-4.28747E-04



 n o d a l   p r i n t   o u t   f o r   t i m e  s t e p   13802                              ( at time 6.8998095E+00 )

 nodal point  x-disp     y-disp      z-disp      x-vel       y-vel       z-vel      x-accl      y-accl      z-accl      x-coor      y-coor      z-coor
    22626  8.13453E-03-4.61976E-02-2.16525E+01-9.56758E-03 1.22235E-02-2.98564E+00-5.86755E-02 1.36655E-02 3.23035E-01 4.79723E+01-2.20760E+01-1.43140E+01



 n o d a l   p r i n t   o u t   f o r   t i m e  s t e p   13802                              ( at time 6.8998095E+00 )

 nodal point  x-rot      y-rot       z-rot       x-rot vel   y-rot vel   z-rot vel   x-rot acc   y-rot acc   z-rot acc
    22626 -3.59531E-05 1.36453E-03 4.65369E-04 3.29463E-04 2.85487E-03-1.84504E-05 7.24232E-04 4.49093E-03-4.20338E-04



 n o d a l   p r i n t   o u t   f o r   t i m e  s t e p   14002                              ( at time 6.9997995E+00 )

 nodal point  x-disp     y-disp      z-disp      x-vel       y-vel       z-vel      x-accl      y-accl      z-accl      x-coor      y-coor      z-coor
    22626  6.87049E-03-4.48323E-02-2.19493E+01-1.59835E-02 1.51041E-02-2.95085E+00-6.41652E-02 2.88087E-02 3.48017E-01 4.79711E+01-2.20746E+01-1.46108E+01



 n o d a l   p r i n t   o u t   f o r   t i m e  s t e p   14002                              ( at time 6.9997995E+00 )

 nodal point  x-rot      y-rot       z-rot       x-rot vel   y-rot vel   z-rot vel   x-rot acc   y-rot acc   z-rot acc
    22626  2.33806E-06 1.67268E-03 4.60381E-04 4.29179E-04 3.31108E-03-8.03108E-05 9.97260E-04 4.56250E-03-6.18666E-04



 n o d a l   p r i n t   o u t   f o r   t i m e  s t e p   14202                              ( at time 7.0997895E+00 )

 nodal point  x-disp     y-disp      z-disp      x-vel       y-vel       z-vel      x-accl      y-accl      z-accl      x-coor      y-coor      z-coor
    22626  4.96326E-03-4.33109E-02-2.22425E+01-2.24023E-02 1.54991E-02-2.91430E+00-6.41951E-02 3.95064E-03 3.65493E-01 4.79691E+01-2.20731E+01-1.49040E+01



 n o d a l   p r i n t   o u t   f o r   t i m e  s t e p   14202                              ( at time 7.0997895E+00 )

 nodal point  x-rot      y-rot       z-rot       x-rot vel   y-rot vel   z-rot vel   x-rot acc   y-rot acc   z-rot acc
    22626  4.79645E-05 2.02659E-03 4.52191E-04 5.00520E-04 3.76921E-03-9.66895E-05 7.13479E-04 4.58179E-03-1.63803E-04



 n o d a l   p r i n t   o u t   f o r   t i m e  s t e p   14402                              ( at time 7.1997794E+00 )

 nodal point  x-disp     y-disp      z-disp      x-vel       y-vel       z-vel      x-accl      y-accl      z-accl      x-coor      y-coor      z-coor
    22626  2.39961E-03-4.17624E-02-2.25319E+01-2.85227E-02 1.58813E-02-2.87455E+00-6.12094E-02 3.82188E-03 3.97582E-01 4.79666E+01-2.20716E+01-1.51934E+01



 n o d a l   p r i n t   o u t   f o r   t i m e  s t e p   14402                              ( at time 7.1997794E+00 )

 nodal point  x-rot      y-rot       z-rot       x-rot vel   y-rot vel   z-rot vel   x-rot acc   y-rot acc   z-rot acc
    22626  1.02979E-04 2.42725E-03 4.41574E-04 6.06257E-04 4.23913E-03-1.20306E-04 1.05748E-03 4.69962E-03-2.36191E-04



 n o d a l   p r i n t   o u t   f o r   t i m e  s t e p   14602                              ( at time 7.2997694E+00 )

 nodal point  x-disp     y-disp      z-disp      x-vel       y-vel       z-vel      x-accl      y-accl      z-accl      x-coor      y-coor      z-coor
    22626 -6.80995E-04-4.02242E-02-2.28171E+01-3.36326E-02 1.48637E-02-2.82969E+00-5.11049E-02-1.01763E-02 4.48606E-01 4.79635E+01-2.20700E+01-1.54786E+01



 n o d a l   p r i n t   o u t   f o r   t i m e  s t e p   14602                              ( at time 7.2997694E+00 )

 nodal point  x-rot      y-rot       z-rot       x-rot vel   y-rot vel   z-rot vel   x-rot acc   y-rot acc   z-rot acc
    22626  1.68749E-04 2.87335E-03 4.29640E-04 7.23170E-04 4.67035E-03-1.22513E-04 1.16925E-03 4.31262E-03-2.20715E-05



 n o d a l   p r i n t   o u t   f o r   t i m e  s t e p   14802                              ( at time 7.3997594E+00 )

 nodal point  x-disp     y-disp      z-disp      x-vel       y-vel       z-vel      x-accl      y-accl      z-accl      x-coor      y-coor      z-coor
    22626 -4.28084E-03-3.88182E-02-2.30978E+01-3.85304E-02 1.35010E-02-2.78353E+00-4.89823E-02-1.36284E-02 4.61682E-01 4.79599E+01-2.20686E+01-1.57593E+01



 n o d a l   p r i n t   o u t   f o r   t i m e  s t e p   14802                              ( at time 7.3997594E+00 )

 nodal point  x-rot      y-rot       z-rot       x-rot vel   y-rot vel   z-rot vel   x-rot acc   y-rot acc   z-rot acc
    22626  2.48294E-04 3.36121E-03 4.17374E-04 8.55056E-04 5.08929E-03-1.18409E-04 1.31900E-03 4.18985E-03 4.10487E-05



 n o d a l   p r i n t   o u t   f o r   t i m e  s t e p   15002                              ( at time 7.4997494E+00 )

 nodal point  x-disp     y-disp      z-disp      x-vel       y-vel       z-vel      x-accl      y-accl      z-accl      x-coor      y-coor      z-coor
    22626 -8.38377E-03-3.75419E-02-2.33737E+01-4.25633E-02 1.04579E-02-2.73520E+00-4.03332E-02-3.04342E-02 4.83314E-01 4.79558E+01-2.20673E+01-1.60352E+01



 n o d a l   p r i n t   o u t   f o r   t i m e  s t e p   15002                              ( at time 7.4997494E+00 )

 nodal point  x-rot      y-rot       z-rot       x-rot vel   y-rot vel   z-rot vel   x-rot acc   y-rot acc   z-rot acc
    22626  3.39995E-04 3.88951E-03 4.05984E-04 9.80673E-04 5.47229E-03-8.75656E-05 1.25628E-03 3.83033E-03 3.08460E-04



 n o d a l   p r i n t   o u t   f o r   t i m e  s t e p   15202                              ( at time 7.5997394E+00 )

 nodal point  x-disp     y-disp      z-disp      x-vel       y-vel       z-vel      x-accl      y-accl      z-accl      x-coor      y-coor      z-coor
    22626 -1.28079E-02-3.65858E-02-2.36446E+01-4.50816E-02 8.87481E-03-2.68360E+00-2.51854E-02-1.58327E-02 5.16076E-01 4.79514E+01-2.20664E+01-1.63061E+01



 n o d a l   p r i n t   o u t   f o r   t i m e  s t e p   15202                              ( at time 7.5997394E+00 )

 nodal point  x-rot      y-rot       z-rot       x-rot vel   y-rot vel   z-rot vel   x-rot acc   y-rot acc   z-rot acc
    22626  4.48225E-04 4.45375E-03 3.97248E-04 1.17839E-03 5.81196E-03-6.14911E-05 1.97737E-03 3.39713E-03 2.60771E-04



 n o d a l   p r i n t   o u t   f o r   t i m e  s t e p   15402                              ( at time 7.6997294E+00 )

 nodal point  x-disp     y-disp      z-disp      x-vel       y-vel       z-vel      x-accl      y-accl      z-accl      x-coor      y-coor      z-coor
    22626 -1.75529E-02-3.58401E-02-2.39103E+01-4.90063E-02 5.16719E-03-2.63124E+00-3.92510E-02-3.70799E-02 5.23603E-01 4.79466E+01-2.20656E+01-1.65718E+01



 n o d a l   p r i n t   o u t   f o r   t i m e  s t e p   15402                              ( at time 7.6997294E+00 )

 nodal point  x-rot      y-rot       z-rot       x-rot vel   y-rot vel   z-rot vel   x-rot acc   y-rot acc   z-rot acc
    22626  5.74627E-04 5.05247E-03 3.92331E-04 1.36603E-03 6.14501E-03-4.95044E-06 1.87655E-03 3.33076E-03 5.65464E-04



 n o d a l   p r i n t   o u t   f o r   t i m e  s t e p   15602                              ( at time 7.7997194E+00 )

 nodal point  x-disp     y-disp      z-disp      x-vel       y-vel       z-vel      x-accl      y-accl      z-accl      x-coor      y-coor      z-coor
    22626 -2.25457E-02-3.54209E-02-2.41706E+01-5.09341E-02 3.82936E-03-2.57523E+00-1.92798E-02-1.33797E-02 5.60219E-01 4.79416E+01-2.20652E+01-1.68321E+01



 n o d a l   p r i n t   o u t   f o r   t i m e  s t e p   15602                              ( at time 7.7997194E+00 )

 nodal point  x-rot      y-rot       z-rot       x-rot vel   y-rot vel   z-rot vel   x-rot acc   y-rot acc   z-rot acc
    22626  7.21667E-04 5.68180E-03 3.93129E-04 1.58107E-03 6.44348E-03 1.87715E-05 2.15062E-03 2.98506E-03 2.37244E-04



 n o d a l   p r i n t   o u t   f o r   t i m e  s t e p   15802                              ( at time 7.8997094E+00 )

 nodal point  x-disp     y-disp      z-disp      x-vel       y-vel       z-vel      x-accl      y-accl      z-accl      x-coor      y-coor      z-coor
    22626 -2.76511E-02-3.52229E-02-2.44253E+01-5.12497E-02 1.61920E-03-2.51793E+00-3.15694E-03-2.21038E-02 5.73042E-01 4.79365E+01-2.20650E+01-1.70868E+01



 n o d a l   p r i n t   o u t   f o r   t i m e  s t e p   15802                              ( at time 7.8997094E+00 )

 nodal point  x-rot      y-rot       z-rot       x-rot vel   y-rot vel   z-rot vel   x-rot acc   y-rot acc   z-rot acc
    22626  8.91873E-04 6.33605E-03 3.99623E-04 1.81496E-03 6.66397E-03 9.46733E-05 2.33919E-03 2.20509E-03 7.59094E-04



 n o d a l   p r i n t   o u t   f o r   t i m e  s t e p   16002                              ( at time 7.9996994E+00 )

 nodal point  x-disp     y-disp      z-disp      x-vel       y-vel       z-vel      x-accl      y-accl      z-accl      x-coor      y-coor      z-coor
    22626 -3.27632E-02-3.51932E-02-2.46741E+01-5.11412E-02-1.50643E-03-2.45993E+00 1.08532E-03-3.12593E-02 5.80021E-01 4.79314E+01-2.20650E+01-1.73356E+01



 n o d a l   p r i n t   o u t   f o r   t i m e  s t e p   16002                              ( at time 7.9996994E+00 )

 nodal point  x-rot      y-rot       z-rot       x-rot vel   y-rot vel   z-rot vel   x-rot acc   y-rot acc   z-rot acc
    22626  1.08781E-03 7.01485E-03 4.13106E-04 2.09743E-03 6.89643E-03 1.97525E-04 2.82501E-03 2.32482E-03 1.02861E-03



 n o d a l   p r i n t   o u t   f o r   t i m e  s t e p   16202                              ( at time 8.0996894E+00 )

 nodal point  x-disp     y-disp      z-disp      x-vel       y-vel       z-vel      x-accl      y-accl      z-accl      x-coor      y-coor      z-coor
    22626 -3.77497E-02-3.52518E-02-2.49169E+01-4.88443E-02-2.33411E-03-2.39772E+00 2.29719E-02-8.27763E-03 6.22145E-01 4.79264E+01-2.20650E+01-1.75784E+01



 n o d a l   p r i n t   o u t   f o r   t i m e  s t e p   16202                              ( at time 8.0996894E+00 )

 nodal point  x-rot      y-rot       z-rot       x-rot vel   y-rot vel   z-rot vel   x-rot acc   y-rot acc   z-rot acc
    22626  1.31189E-03 7.71368E-03 4.34035E-04 2.39039E-03 7.08287E-03 2.70141E-04 2.92988E-03 1.86456E-03 7.26239E-04



 n o d a l   p r i n t   o u t   f o r   t i m e  s t e p   16402                              ( at time 8.1996794E+00 )

 nodal point  x-disp     y-disp      z-disp      x-vel       y-vel       z-vel      x-accl      y-accl      z-accl      x-coor      y-coor      z-coor
    22626 -4.23911E-02-3.54125E-02-2.51535E+01-4.37620E-02-6.39305E-04-2.33221E+00 5.08280E-02 1.69498E-02 6.55159E-01 4.79218E+01-2.20652E+01-1.78150E+01



 n o d a l   p r i n t   o u t   f o r   t i m e  s t e p   16402                              ( at time 8.1996794E+00 )

 nodal point  x-rot      y-rot       z-rot       x-rot vel   y-rot vel   z-rot vel   x-rot acc   y-rot acc   z-rot acc
    22626  1.56751E-03 8.42875E-03 4.63130E-04 2.72778E-03 7.24296E-03 3.14276E-04 3.37423E-03 1.60111E-03 4.41393E-04



 n o d a l   p r i n t   o u t   f o r   t i m e  s t e p   16602                              ( at time 8.2996694E+00 )

 nodal point  x-disp     y-disp      z-disp      x-vel       y-vel       z-vel      x-accl      y-accl      z-accl      x-coor      y-coor      z-coor
    22626 -4.65115E-02-3.55666E-02-2.53834E+01-3.76882E-02-8.76763E-04-2.26815E+00 6.07434E-02-2.37482E-03 6.40679E-01 4.79177E+01-2.20654E+01-1.80449E+01



 n o d a l   p r i n t   o u t   f o r   t i m e  s t e p   16602                              ( at time 8.2996694E+00 )

 nodal point  x-rot      y-rot       z-rot       x-rot vel   y-rot vel   z-rot vel   x-rot acc   y-rot acc   z-rot acc
    22626  1.85652E-03 9.15839E-03 5.00441E-04 3.04229E-03 7.34139E-03 4.05280E-04 3.14536E-03 9.84386E-04 9.10130E-04



 n o d a l   p r i n t   o u t   f o r   t i m e  s t e p   16802                              ( at time 8.3996594E+00 )

 nodal point  x-disp     y-disp      z-disp      x-vel       y-vel       z-vel      x-accl      y-accl      z-accl      x-coor      y-coor      z-coor
    22626 -4.99316E-02-3.56306E-02-2.56066E+01-3.06801E-02-1.08965E-03-2.19853E+00 7.00882E-02-2.12906E-03 6.96336E-01 4.79142E+01-2.20654E+01-1.82681E+01



 n o d a l   p r i n t   o u t   f o r   t i m e  s t e p   16802                              ( at time 8.3996594E+00 )

 nodal point  x-rot      y-rot       z-rot       x-rot vel   y-rot vel   z-rot vel   x-rot acc   y-rot acc   z-rot acc
    22626  2.17955E-03 9.90005E-03 5.44895E-04 3.39994E-03 7.45483E-03 4.81529E-04 3.57689E-03 1.13453E-03 7.62563E-04



 n o d a l   p r i n t   o u t   f o r   t i m e  s t e p   17002                              ( at time 8.4996494E+00 )

 nodal point  x-disp     y-disp      z-disp      x-vel       y-vel       z-vel      x-accl      y-accl      z-accl      x-coor      y-coor      z-coor
    22626 -5.24738E-02-3.55824E-02-2.58227E+01-2.14112E-02 1.33246E-03-2.12203E+00 9.26982E-02 2.42236E-02 7.65008E-01 4.79117E+01-2.20654E+01-1.84842E+01



 n o d a l   p r i n t   o u t   f o r   t i m e  s t e p   17002                              ( at time 8.4996494E+00 )

 nodal point  x-rot      y-rot       z-rot       x-rot vel   y-rot vel   z-rot vel   x-rot acc   y-rot acc   z-rot acc
    22626  2.53928E-03 1.06533E-02 5.97050E-04 3.78686E-03 7.61439E-03 5.50728E-04 3.86958E-03 1.59580E-03 6.92061E-04



 n o d a l   p r i n t   o u t   f o r   t i m e  s t e p   17202                              ( at time 8.5996394E+00 )

 nodal point  x-disp     y-disp      z-disp      x-vel       y-vel       z-vel      x-accl      y-accl      z-accl      x-coor      y-coor      z-coor
    22626 -5.40972E-02-3.55655E-02-2.60315E+01-7.79380E-03 1.40971E-03-2.04929E+00 1.36188E-01 7.72571E-04 7.27481E-01 4.79101E+01-2.20654E+01-1.86930E+01



 n o d a l   p r i n t   o u t   f o r   t i m e  s t e p   17202                              ( at time 8.5996394E+00 )

 nodal point  x-rot      y-rot       z-rot       x-rot vel   y-rot vel   z-rot vel   x-rot acc   y-rot acc   z-rot acc
    22626  2.93597E-03 1.14135E-02 6.55246E-04 4.13841E-03 7.67352E-03 6.14323E-04 3.51583E-03 5.91338E-04 6.36017E-04



 n o d a l   p r i n t   o u t   f o r   t i m e  s t e p   17402                              ( at time 8.6996293E+00 )

 nodal point  x-disp     y-disp      z-disp      x-vel       y-vel       z-vel      x-accl      y-accl      z-accl      x-coor      y-coor      z-coor
    22626 -5.43859E-02-3.54259E-02-2.62327E+01 3.08874E-03 5.78235E-06-1.97461E+00 1.08835E-01-1.40406E-02 7.46929E-01 4.79098E+01-2.20652E+01-1.88942E+01



 n o d a l   p r i n t   o u t   f o r   t i m e  s t e p   17402                              ( at time 8.6996293E+00 )

 nodal point  x-rot      y-rot       z-rot       x-rot vel   y-rot vel   z-rot vel   x-rot acc   y-rot acc   z-rot acc
    22626  3.36722E-03 1.21837E-02 7.18115E-04 4.52575E-03 7.76347E-03 6.61824E-04 3.87382E-03 8.99572E-04 4.75054E-04



 n o d a l   p r i n t   o u t   f o r   t i m e  s t e p   17602                              ( at time 8.7996193E+00 )

 nodal point  x-disp     y-disp      z-disp      x-vel       y-vel       z-vel      x-accl      y-accl      z-accl      x-coor      y-coor      z-coor
    22626 -5.34145E-02-3.51123E-02-2.64259E+01 1.78564E-02 1.75200E-03-1.89574E+00 1.47691E-01 1.74640E-02 7.88734E-01 4.79108E+01-2.20649E+01-1.90874E+01



 n o d a l   p r i n t   o u t   f o r   t i m e  s t e p   17602                              ( at time 8.7996193E+00 )

 nodal point  x-rot      y-rot       z-rot       x-rot vel   y-rot vel   z-rot vel   x-rot acc   y-rot acc   z-rot acc
    22626  3.84123E-03 1.29614E-02 7.85550E-04 4.93162E-03 7.75308E-03 7.54949E-04 4.05905E-03-1.03937E-04 9.31341E-04



 n o d a l   p r i n t   o u t   f o r   t i m e  s t e p   17802                              ( at time 8.8996093E+00 )

 nodal point  x-disp     y-disp      z-disp      x-vel       y-vel       z-vel      x-accl      y-accl      z-accl      x-coor      y-coor      z-coor
    22626 -5.09833E-02-3.46714E-02-2.66110E+01 2.97394E-02 4.94630E-03-1.81009E+00 1.18842E-01 3.19462E-02 8.56591E-01 4.79132E+01-2.20645E+01-1.92725E+01



 n o d a l   p r i n t   o u t   f o r   t i m e  s t e p   17802                              ( at time 8.8996093E+00 )

 nodal point  x-rot      y-rot       z-rot       x-rot vel   y-rot vel   z-rot vel   x-rot acc   y-rot acc   z-rot acc
    22626  4.35223E-03 1.37442E-02 8.58500E-04 5.28223E-03 7.88314E-03 6.95503E-04 3.50644E-03 1.30079E-03-5.94515E-04



 n o d a l   p r i n t   o u t   f o r   t i m e  s t e p   18002                              ( at time 8.9995993E+00 )

 nodal point  x-disp     y-disp      z-disp      x-vel       y-vel       z-vel      x-accl      y-accl      z-accl      x-coor      y-coor      z-coor
    22626 -4.70717E-02-3.43571E-02-2.67881E+01 4.84487E-02 5.82296E-03-1.72363E+00 1.87113E-01 8.76756E-03 8.64717E-01 4.79171E+01-2.20641E+01-1.94496E+01



 n o d a l   p r i n t   o u t   f o r   t i m e  s t e p   18002                              ( at time 8.9995993E+00 )

 nodal point  x-rot      y-rot       z-rot       x-rot vel   y-rot vel   z-rot vel   x-rot acc   y-rot acc   z-rot acc
    22626  4.90299E-03 1.45309E-02 9.33855E-04 5.70770E-03 7.91537E-03 7.87159E-04 4.25514E-03 3.22307E-04 9.16654E-04



 n o d a l   p r i n t   o u t   f o r   t i m e  s t e p   18202                              ( at time 9.0995893E+00 )

 nodal point  x-disp     y-disp      z-disp      x-vel       y-vel       z-vel      x-accl      y-accl      z-accl      x-coor      y-coor      z-coor
    22626 -4.16903E-02-3.38044E-02-2.69565E+01 6.31617E-02 6.76035E-03-1.64536E+00 1.47145E-01 9.37482E-03 7.82755E-01 4.79225E+01-2.20636E+01-1.96180E+01



 n o d a l   p r i n t   o u t   f o r   t i m e  s t e p   18202                              ( at time 9.0995893E+00 )

 nodal point  x-rot      y-rot       z-rot       x-rot vel   y-rot vel   z-rot vel   x-rot acc   y-rot acc   z-rot acc
    22626  5.49409E-03 1.53223E-02 1.00989E-03 6.12403E-03 7.90525E-03 7.64496E-04 4.16378E-03-1.01264E-04-2.26659E-04



 n o d a l   p r i n t   o u t   f o r   t i m e  s t e p   18402                              ( at time 9.1995793E+00 )

 nodal point  x-disp     y-disp      z-disp      x-vel       y-vel       z-vel      x-accl      y-accl      z-accl      x-coor      y-coor      z-coor
    22626 -3.45992E-02-3.30871E-02-2.71164E+01 7.56023E-02 3.54594E-03-1.55596E+00 1.24418E-01-3.21473E-02 8.94060E-01 4.79296E+01-2.20629E+01-1.97779E+01



 n o d a l   p r i n t   o u t   f o r   t i m e  s t e p   18402                              ( at time 9.1995793E+00 )

 nodal point  x-rot      y-rot       z-rot       x-rot vel   y-rot vel   z-rot vel   x-rot acc   y-rot acc   z-rot acc
    22626  6.12250E-03 1.61182E-02 1.08526E-03 6.46464E-03 7.97200E-03 7.78571E-04 3.40645E-03 6.67574E-04 1.40764E-04



 n o d a l   p r i n t   o u t   f o r   t i m e  s t e p   18602                              ( at time 9.2995693E+00 )

 nodal point  x-disp     y-disp      z-disp      x-vel       y-vel       z-vel      x-accl      y-accl      z-accl      x-coor      y-coor      z-coor
    22626 -2.59624E-02-3.24792E-02-2.72679E+01 9.49771E-02 8.32091E-03-1.47082E+00 1.93768E-01 4.77545E-02 8.51481E-01 4.79382E+01-2.20623E+01-1.99294E+01



 n o d a l   p r i n t   o u t   f o r   t i m e  s t e p   18602                              ( at time 9.2995693E+00 )

 nodal point  x-rot      y-rot       z-rot       x-rot vel   y-rot vel   z-rot vel   x-rot acc   y-rot acc   z-rot acc
    22626  6.79072E-03 1.69199E-02 1.16149E-03 6.88939E-03 8.08865E-03 7.37193E-04 4.24794E-03 1.16670E-03-4.13822E-04



 n o d a l   p r i n t   o u t   f o r   t i m e  s t e p   18802                              ( at time 9.3995593E+00 )

 nodal point  x-disp     y-disp      z-disp      x-vel       y-vel       z-vel      x-accl      y-accl      z-accl      x-coor      y-coor      z-coor
    22626 -1.61576E-02-3.18102E-02-2.74108E+01 1.06284E-01 1.10759E-02-1.39160E+00 1.13080E-01 2.75523E-02 7.92318E-01 4.79480E+01-2.20616E+01-2.00723E+01



 n o d a l   p r i n t   o u t   f o r   t i m e  s t e p   18802                              ( at time 9.3995593E+00 )

 nodal point  x-rot      y-rot       z-rot       x-rot vel   y-rot vel   z-rot vel   x-rot acc   y-rot acc   z-rot acc
    22626  7.49586E-03 1.77280E-02 1.23799E-03 7.22967E-03 8.00758E-03 6.53873E-04 3.40306E-03-8.10854E-04-8.33283E-04



 n o d a l   p r i n t   o u t   f o r   t i m e  s t e p   19002                              ( at time 9.4995493E+00 )

 nodal point  x-disp     y-disp      z-disp      x-vel       y-vel       z-vel      x-accl      y-accl      z-accl      x-coor      y-coor      z-coor
    22626 -4.40660E-03-3.09659E-02-2.75453E+01 1.20126E-01 1.80581E-03-1.30166E+00 1.38439E-01-9.27099E-02 8.99448E-01 4.79598E+01-2.20608E+01-2.02068E+01



 n o d a l   p r i n t   o u t   f o r   t i m e  s t e p   19002                              ( at time 9.4995493E+00 )

 nodal point  x-rot      y-rot       z-rot       x-rot vel   y-rot vel   z-rot vel   x-rot acc   y-rot acc   z-rot acc
    22626  8.23701E-03 1.85418E-02 1.30965E-03 7.63821E-03 8.20523E-03 7.88052E-04 4.08583E-03 1.97675E-03 1.34193E-03



 n o d a l   p r i n t   o u t   f o r   t i m e  s t e p   19202                              ( at time 9.5995393E+00 )

 nodal point  x-disp     y-disp      z-disp      x-vel       y-vel       z-vel      x-accl      y-accl      z-accl      x-coor      y-coor      z-coor
    22626  8.51247E-03-3.01650E-02-2.76710E+01 1.38197E-01 1.25497E-02-1.21666E+00 1.80721E-01 1.07449E-01 8.50115E-01 4.79727E+01-2.20600E+01-2.03325E+01



 n o d a l   p r i n t   o u t   f o r   t i m e  s t e p   19202                              ( at time 9.5995393E+00 )

 nodal point  x-rot      y-rot       z-rot       x-rot vel   y-rot vel   z-rot vel   x-rot acc   y-rot acc   z-rot acc
    22626  9.01693E-03 1.93596E-02 1.38083E-03 7.94878E-03 8.17523E-03 6.26959E-04 3.10601E-03-3.00090E-04-1.61108E-03



 n o d a l   p r i n t   o u t   f o r   t i m e  s t e p   19402                              ( at time 9.6995293E+00 )

 nodal point  x-disp     y-disp      z-disp      x-vel       y-vel       z-vel      x-accl      y-accl      z-accl      x-coor      y-coor      z-coor
    22626  2.27529E-02-2.95599E-02-2.77885E+01 1.48846E-01 5.97074E-03-1.12811E+00 1.06498E-01-6.57962E-02 8.85617E-01 4.79869E+01-2.20593E+01-2.04500E+01



 n o d a l   p r i n t   o u t   f o r   t i m e  s t e p   19402                              ( at time 9.6995293E+00 )

 nodal point  x-rot      y-rot       z-rot       x-rot vel   y-rot vel   z-rot vel   x-rot acc   y-rot acc   z-rot acc
    22626  9.82904E-03 2.01823E-02 1.45025E-03 8.28116E-03 8.29235E-03 6.89789E-04 3.32413E-03 1.17141E-03 6.28361E-04



 n o d a l   p r i n t   o u t   f o r   t i m e  s t e p   19602                              ( at time 9.7995193E+00 )

 nodal point  x-disp     y-disp      z-disp      x-vel       y-vel       z-vel      x-accl      y-accl      z-accl      x-coor      y-coor      z-coor
    22626  3.83015E-02-2.88085E-02-2.78973E+01 1.62314E-01 6.34604E-03-1.04596E+00 1.34692E-01 3.75338E-03 8.21548E-01 4.80025E+01-2.20586E+01-2.05588E+01



 n o d a l   p r i n t   o u t   f o r   t i m e  s t e p   19602                              ( at time 9.7995193E+00 )

 nodal point  x-rot      y-rot       z-rot       x-rot vel   y-rot vel   z-rot vel   x-rot acc   y-rot acc   z-rot acc
    22626  1.06760E-02 2.10132E-02 1.51265E-03 8.66606E-03 8.31546E-03 6.26275E-04 3.84941E-03 2.31084E-04-6.35209E-04



 n o d a l   p r i n t   o u t   f o r   t i m e  s t e p   19802                              ( at time 9.8995093E+00 )

 nodal point  x-disp     y-disp      z-disp      x-vel       y-vel       z-vel      x-accl      y-accl      z-accl      x-coor      y-coor      z-coor
    22626  5.51316E-02-2.84194E-02-2.79975E+01 1.71353E-01 1.84165E-03-9.62185E-01 9.04020E-02-4.50484E-02 8.37836E-01 4.80193E+01-2.20582E+01-2.06590E+01



 n o d a l   p r i n t   o u t   f o r   t i m e  s t e p   19802                              ( at time 9.8995093E+00 )

 nodal point  x-rot      y-rot       z-rot       x-rot vel   y-rot vel   z-rot vel   x-rot acc   y-rot acc   z-rot acc
    22626  1.15578E-02 2.18466E-02 1.57403E-03 8.97138E-03 8.34551E-03 6.14008E-04 3.05354E-03 3.00512E-04-1.22678E-04



 n o d a l   p r i n t   o u t   f o r   t i m e  s t e p   20003                              ( at time 9.9999992E+00 )

 nodal point  x-disp     y-disp      z-disp      x-vel       y-vel       z-vel      x-accl      y-accl      z-accl      x-coor      y-coor      z-coor
[...]
    22626  1.96805E-01 1.30702E-01-2.14297E-02 1.72026E-02 7.26703E-03-4.05166E-03-3.05166E-04-1.71905E-04-8.97505E-05



 n o d a l   p r i n t   o u t   f o r   t i m e  s t e p   45205                              ( at time 2.2599738E+01 )

 nodal point  x-disp     y-disp      z-disp      x-vel       y-vel       z-vel      x-accl      y-accl      z-accl      x-coor      y-coor      z-coor
    22626  4.11839E+00-2.61766E+00-2.20619E+01 2.12862E-01-2.90834E-01 5.54653E-01-7.39761E-04 6.94845E-03 8.06107E-03 5.20826E+01-2.46474E+01-1.47234E+01



 n o d a l   p r i n t   o u t   f o r   t i m e  s t e p   45205                              ( at time 2.2599738E+01 )

 nodal point  x-rot      y-rot       z-rot       x-rot vel   y-rot vel   z-rot vel   x-rot acc   y-rot acc   z-rot acc
    22626  1.98524E-01 1.31428E-01-2.18329E-02 1.71744E-02 7.26146E-03-4.03769E-03-2.82626E-04-5.57308E-05 1.39725E-04



 n o d a l   p r i n t   o u t   f o r   t i m e  s t e p   45405                              ( at time 2.2699728E+01 )

 nodal point  x-disp     y-disp      z-disp      x-vel       y-vel       z-vel      x-accl      y-accl      z-accl      x-coor      y-coor      z-coor
    22626  4.13970E+00-2.64671E+00-2.20065E+01 2.13225E-01-2.89626E-01 5.54784E-01 3.62138E-03 1.20787E-02 1.30668E-03 5.21039E+01-2.46765E+01-1.46680E+01



 n o d a l   p r i n t   o u t   f o r   t i m e  s t e p   45405                              ( at time 2.2699728E+01 )

 nodal point  x-rot      y-rot       z-rot       x-rot vel   y-rot vel   z-rot vel   x-rot acc   y-rot acc   z-rot acc
    22626  2.00239E-01 1.32152E-01-2.22354E-02 1.71450E-02 7.22403E-03-4.03698E-03-2.93418E-04-3.74359E-04 7.17663E-06



 n o d a l   p r i n t   o u t   f o r   t i m e  s t e p   45605                              ( at time 2.2799718E+01 )

 nodal point  x-disp     y-disp      z-disp      x-vel       y-vel       z-vel      x-accl      y-accl      z-accl      x-coor      y-coor      z-coor
    22626  4.16104E+00-2.67566E+00-2.19510E+01 2.14004E-01-2.88856E-01 5.53787E-01 7.79611E-03 7.69894E-03-9.97217E-03 5.21252E+01-2.47054E+01-1.46125E+01



 n o d a l   p r i n t   o u t   f o r   t i m e  s t e p   45605                              ( at time 2.2799718E+01 )

 nodal point  x-rot      y-rot       z-rot       x-rot vel   y-rot vel   z-rot vel   x-rot acc   y-rot acc   z-rot acc
    22626  2.01952E-01 1.32874E-01-2.26369E-02 1.71224E-02 7.20463E-03-4.01248E-03-2.25941E-04-1.93928E-04 2.44942E-04



 n o d a l   p r i n t   o u t   f o r   t i m e  s t e p   45805                              ( at time 2.2899708E+01 )

 nodal point  x-disp     y-disp      z-disp      x-vel       y-vel       z-vel      x-accl      y-accl      z-accl      x-coor      y-coor      z-coor
    22626  4.18248E+00-2.70450E+00-2.18955E+01 2.13937E-01-2.87520E-01 5.55028E-01-6.68689E-04 1.33610E-02 1.24164E-02 5.21467E+01-2.47343E+01-1.45570E+01



 n o d a l   p r i n t   o u t   f o r   t i m e  s t e p   45805                              ( at time 2.2899708E+01 )

 nodal point  x-rot      y-rot       z-rot       x-rot vel   y-rot vel   z-rot vel   x-rot acc   y-rot acc   z-rot acc
    22626  2.03661E-01 1.33593E-01-2.30370E-02 1.70858E-02 7.16915E-03-3.98801E-03-3.66721E-04-3.54924E-04 2.44718E-04



 n o d a l   p r i n t   o u t   f o r   t i m e  s t e p   46005                              ( at time 2.2999698E+01 )

 nodal point  x-disp     y-disp      z-disp      x-vel       y-vel       z-vel      x-accl      y-accl      z-accl      x-coor      y-coor      z-coor
    22626  4.20400E+00-2.73320E+00-2.18400E+01 2.15404E-01-2.87013E-01 5.56040E-01 1.46721E-02 5.07580E-03 1.01182E-02 5.21682E+01-2.47630E+01-1.45015E+01



 n o d a l   p r i n t   o u t   f o r   t i m e  s t e p   46005                              ( at time 2.2999698E+01 )

 nodal point  x-rot      y-rot       z-rot       x-rot vel   y-rot vel   z-rot vel   x-rot acc   y-rot acc   z-rot acc
    22626  2.05368E-01 1.34309E-01-2.34355E-02 1.70668E-02 7.14230E-03-3.96885E-03-1.90026E-04-2.68450E-04 1.91693E-04



 n o d a l   p r i n t   o u t   f o r   t i m e  s t e p   46205                              ( at time 2.3099688E+01 )

 nodal point  x-disp     y-disp      z-disp      x-vel       y-vel       z-vel      x-accl      y-accl      z-accl      x-coor      y-coor      z-coor
    22626  4.22564E+00-2.76184E+00-2.17844E+01 2.16578E-01-2.86061E-01 5.56613E-01 1.17342E-02 9.52319E-03 5.72983E-03 5.21898E+01-2.47916E+01-1.44459E+01



 n o d a l   p r i n t   o u t   f o r   t i m e  s t e p   46205                              ( at time 2.3099688E+01 )

 nodal point  x-rot      y-rot       z-rot       x-rot vel   y-rot vel   z-rot vel   x-rot acc   y-rot acc   z-rot acc
    22626  2.07071E-01 1.35023E-01-2.38331E-02 1.70141E-02 7.13658E-03-3.95719E-03-5.26777E-04-5.72640E-05 1.16601E-04



 n o d a l   p r i n t   o u t   f o r   t i m e  s t e p   46405                              ( at time 2.3199678E+01 )

 nodal point  x-disp     y-disp      z-disp      x-vel       y-vel       z-vel      x-accl      y-accl      z-accl      x-coor      y-coor      z-coor
    22626  4.24734E+00-2.79039E+00-2.17287E+01 2.18069E-01-2.85036E-01 5.58265E-01 1.49139E-02 1.02425E-02 1.65215E-02 5.22115E+01-2.48202E+01-1.43902E+01



 n o d a l   p r i n t   o u t   f o r   t i m e  s t e p   46405                              ( at time 2.3199678E+01 )

 nodal point  x-rot      y-rot       z-rot       x-rot vel   y-rot vel   z-rot vel   x-rot acc   y-rot acc   z-rot acc
    22626  2.08771E-01 1.35735E-01-2.42295E-02 1.69872E-02 7.11150E-03-3.95180E-03-2.68450E-04-2.50782E-04 5.38866E-05



 n o d a l   p r i n t   o u t   f o r   t i m e  s t e p   46605                              ( at time 2.3299668E+01 )

 nodal point  x-disp     y-disp      z-disp      x-vel       y-vel       z-vel      x-accl      y-accl      z-accl      x-coor      y-coor      z-coor
    22626  4.26919E+00-2.81886E+00-2.16728E+01 2.18809E-01-2.84393E-01 5.60057E-01 7.40461E-03 6.43384E-03 1.79168E-02 5.22334E+01-2.48487E+01-1.43343E+01



 n o d a l   p r i n t   o u t   f o r   t i m e  s t e p   46605                              ( at time 2.3299668E+01 )

 nodal point  x-rot      y-rot       z-rot       x-rot vel   y-rot vel   z-rot vel   x-rot acc   y-rot acc   z-rot acc
    22626  2.10469E-01 1.36444E-01-2.46243E-02 1.69553E-02 7.10736E-03-3.93269E-03-3.19293E-04-4.13786E-05 1.91110E-04



 n o d a l   p r i n t   o u t   f o r   t i m e  s t e p   46805                              ( at time 2.3399658E+01 )

 nodal point  x-disp     y-disp      z-disp      x-vel       y-vel       z-vel      x-accl      y-accl      z-accl      x-coor      y-coor      z-coor
    22626  4.29116E+00-2.84727E+00-2.16168E+01 2.20131E-01-2.84263E-01 5.60515E-01 1.32238E-02 1.30278E-03 4.58402E-03 5.22553E+01-2.48771E+01-1.42783E+01



 n o d a l   p r i n t   o u t   f o r   t i m e  s t e p   46805                              ( at time 2.3399658E+01 )

 nodal point  x-rot      y-rot       z-rot       x-rot vel   y-rot vel   z-rot vel   x-rot acc   y-rot acc   z-rot acc
    22626  2.12162E-01 1.37154E-01-2.50177E-02 1.69169E-02 7.09073E-03-3.93549E-03-3.84299E-04-1.66349E-04-2.80074E-05



 n o d a l   p r i n t   o u t   f o r   t i m e  s t e p   47005                              ( at time 2.3499648E+01 )

 nodal point  x-disp     y-disp      z-disp      x-vel       y-vel       z-vel      x-accl      y-accl      z-accl      x-coor      y-coor      z-coor
    22626  4.31323E+00-2.87568E+00-2.15605E+01 2.21153E-01-2.83964E-01 5.62926E-01 1.02206E-02 2.98885E-03 2.41165E-02 5.22774E+01-2.49055E+01-1.42220E+01



 n o d a l   p r i n t   o u t   f o r   t i m e  s t e p   47005                              ( at time 2.3499648E+01 )

 nodal point  x-rot      y-rot       z-rot       x-rot vel   y-rot vel   z-rot vel   x-rot acc   y-rot acc   z-rot acc
    22626  2.13852E-01 1.37862E-01-2.54103E-02 1.68788E-02 7.07700E-03-3.91704E-03-3.81281E-04-1.37276E-04 1.84498E-04



 n o d a l   p r i n t   o u t   f o r   t i m e  s t e p   47205                              ( at time 2.3599638E+01 )

 nodal point  x-disp     y-disp      z-disp      x-vel       y-vel       z-vel      x-accl      y-accl      z-accl      x-coor      y-coor      z-coor
    22626  4.33544E+00-2.90401E+00-2.15041E+01 2.22031E-01-2.83463E-01 5.65992E-01 8.77373E-03 5.01420E-03 3.06634E-02 5.22996E+01-2.49338E+01-1.41656E+01



 n o d a l   p r i n t   o u t   f o r   t i m e  s t e p   47205                              ( at time 2.3599638E+01 )

 nodal point  x-rot      y-rot       z-rot       x-rot vel   y-rot vel   z-rot vel   x-rot acc   y-rot acc   z-rot acc
    22626  2.15539E-01 1.38570E-01-2.58017E-02 1.68464E-02 7.07512E-03-3.91369E-03-3.23894E-04-1.88940E-05 3.35080E-05



 n o d a l   p r i n t   o u t   f o r   t i m e  s t e p   47405                              ( at time 2.3699628E+01 )

 nodal point  x-disp     y-disp      z-disp      x-vel       y-vel       z-vel      x-accl      y-accl      z-accl      x-coor      y-coor      z-coor
    22626  4.35773E+00-2.93238E+00-2.14475E+01 2.23790E-01-2.83693E-01 5.66790E-01 1.75971E-02-2.30244E-03 7.98179E-03 5.23219E+01-2.49622E+01-1.41090E+01



 n o d a l   p r i n t   o u t   f o r   t i m e  s t e p   47405                              ( at time 2.3699628E+01 )

 nodal point  x-rot      y-rot       z-rot       x-rot vel   y-rot vel   z-rot vel   x-rot acc   y-rot acc   z-rot acc
    22626  2.17221E-01 1.39277E-01-2.61924E-02 1.68106E-02 7.06315E-03-3.89932E-03-3.57325E-04-1.19700E-04 1.43751E-04



 n o d a l   p r i n t   o u t   f o r   t i m e  s t e p   47605                              ( at time 2.3799618E+01 )

 nodal point  x-disp     y-disp      z-disp      x-vel       y-vel       z-vel      x-accl      y-accl      z-accl      x-coor      y-coor      z-coor
    22626  4.38017E+00-2.96075E+00-2.13907E+01 2.24617E-01-2.83882E-01 5.69035E-01 8.26808E-03-1.89087E-03 2.24490E-02 5.23443E+01-2.49905E+01-1.40522E+01



 n o d a l   p r i n t   o u t   f o r   t i m e  s t e p   47605                              ( at time 2.3799618E+01 )

 nodal point  x-rot      y-rot       z-rot       x-rot vel   y-rot vel   z-rot vel   x-rot acc   y-rot acc   z-rot acc
    22626  2.18900E-01 1.39983E-01-2.65820E-02 1.67749E-02 7.06610E-03-3.89342E-03-3.57481E-04 2.95215E-05 5.90081E-05



 n o d a l   p r i n t   o u t   f o r   t i m e  s t e p   47805                              ( at time 2.3899608E+01 )

 nodal point  x-disp     y-disp      z-disp      x-vel       y-vel       z-vel      x-accl      y-accl      z-accl      x-coor      y-coor      z-coor
    22626  4.40267E+00-2.98915E+00-2.13337E+01 2.25442E-01-2.83809E-01 5.71424E-01 8.24795E-03 7.27839E-04 2.38899E-02 5.23668E+01-2.50189E+01-1.39952E+01



 n o d a l   p r i n t   o u t   f o r   t i m e  s t e p   47805                              ( at time 2.3899608E+01 )

 nodal point  x-rot      y-rot       z-rot       x-rot vel   y-rot vel   z-rot vel   x-rot acc   y-rot acc   z-rot acc
    22626  2.20577E-01 1.40687E-01-2.69711E-02 1.67510E-02 7.05291E-03-3.89791E-03-2.38832E-04-1.31859E-04-4.49451E-05



 n o d a l   p r i n t   o u t   f o r   t i m e  s t e p   48005                              ( at time 2.3999598E+01 )

 nodal point  x-disp     y-disp      z-disp      x-vel       y-vel       z-vel      x-accl      y-accl      z-accl      x-coor      y-coor      z-coor
    22626  4.42527E+00-3.01757E+00-2.12766E+01 2.26255E-01-2.85508E-01 5.71537E-01 8.13351E-03-1.69892E-02 1.13083E-03 5.23895E+01-2.50474E+01-1.39381E+01



 n o d a l   p r i n t   o u t   f o r   t i m e  s t e p   48005                              ( at time 2.3999598E+01 )

 nodal point  x-rot      y-rot       z-rot       x-rot vel   y-rot vel   z-rot vel   x-rot acc   y-rot acc   z-rot acc
    22626  2.22250E-01 1.41391E-01-2.73599E-02 1.67228E-02 7.03779E-03-3.87030E-03-2.82408E-04-1.51212E-04 2.76207E-04



 n o d a l   p r i n t   o u t   f o r   t i m e  s t e p   48205                              ( at time 2.4099588E+01 )

 nodal point  x-disp     y-disp      z-disp      x-vel       y-vel       z-vel      x-accl      y-accl      z-accl      x-coor      y-coor      z-coor
    22626  4.44795E+00-3.04606E+00-2.12193E+01 2.27264E-01-2.85138E-01 5.73255E-01 1.00874E-02 3.69940E-03 1.71814E-02 5.24121E+01-2.50759E+01-1.38808E+01



 n o d a l   p r i n t   o u t   f o r   t i m e  s t e p   48205                              ( at time 2.4099588E+01 )

 nodal point  x-rot      y-rot       z-rot       x-rot vel   y-rot vel   z-rot vel   x-rot acc   y-rot acc   z-rot acc
    22626  2.23920E-01 1.42094E-01-2.77479E-02 1.66778E-02 7.02011E-03-3.87370E-03-4.49702E-04-1.76823E-04-3.40499E-05



 n o d a l   p r i n t   o u t   f o r   t i m e  s t e p   48405                              ( at time 2.4199578E+01 )

 nodal point  x-disp     y-disp      z-disp      x-vel       y-vel       z-vel      x-accl      y-accl      z-accl      x-coor      y-coor      z-coor
    22626  4.47069E+00-3.07460E+00-2.11620E+01 2.27566E-01-2.86049E-01 5.74866E-01 3.02676E-03-9.11009E-03 1.61093E-02 5.24349E+01-2.51044E+01-1.38235E+01



 n o d a l   p r i n t   o u t   f o r   t i m e  s t e p   48405                              ( at time 2.4199578E+01 )

 nodal point  x-rot      y-rot       z-rot       x-rot vel   y-rot vel   z-rot vel   x-rot acc   y-rot acc   z-rot acc
    22626  2.25586E-01 1.42794E-01-2.81360E-02 1.66465E-02 7.01170E-03-3.87719E-03-3.13332E-04-8.41310E-05-3.49448E-05



 n o d a l   p r i n t   o u t   f o r   t i m e  s t e p   48605                              ( at time 2.4299568E+01 )

 nodal point  x-disp     y-disp      z-disp      x-vel       y-vel       z-vel      x-accl      y-accl      z-accl      x-coor      y-coor      z-coor
    22626  4.49348E+00-3.10322E+00-2.11045E+01 2.28130E-01-2.86688E-01 5.75056E-01 5.63509E-03-6.39080E-03 1.90037E-03 5.24577E+01-2.51330E+01-1.37660E+01



 n o d a l   p r i n t   o u t   f o r   t i m e  s t e p   48605                              ( at time 2.4299568E+01 )

 nodal point  x-rot      y-rot       z-rot       x-rot vel   y-rot vel   z-rot vel   x-rot acc   y-rot acc   z-rot acc
    22626  2.27248E-01 1.43494E-01-2.85232E-02 1.66109E-02 6.97510E-03-3.86430E-03-3.55891E-04-3.66081E-04 1.28912E-04



 n o d a l   p r i n t   o u t   f o r   t i m e  s t e p   48805                              ( at time 2.4399558E+01 )

 nodal point  x-disp     y-disp      z-disp      x-vel       y-vel       z-vel      x-accl      y-accl      z-accl      x-coor      y-coor      z-coor
    22626  4.51631E+00-3.13192E+00-2.10468E+01 2.28393E-01-2.86951E-01 5.76358E-01 2.63283E-03-2.63447E-03 1.30278E-02 5.24805E+01-2.51617E+01-1.37083E+01



 n o d a l   p r i n t   o u t   f o r   t i m e  s t e p   48805                              ( at time 2.4399558E+01 )

 nodal point  x-rot      y-rot       z-rot       x-rot vel   y-rot vel   z-rot vel   x-rot acc   y-rot acc   z-rot acc
    22626  2.28907E-01 1.44192E-01-2.89102E-02 1.65666E-02 6.97371E-03-3.88146E-03-4.42903E-04-1.38826E-05-1.71542E-04



 n o d a l   p r i n t   o u t   f o r   t i m e  s t e p   49006                              ( at time 2.4500048E+01 )

 nodal point  x-disp     y-disp      z-disp      x-vel       y-vel       z-vel      x-accl      y-accl      z-accl      x-coor      y-coor      z-coor
    22626  4.53928E+00-3.16086E+00-2.09889E+01 2.28564E-01-2.88248E-01 5.77881E-01 1.69729E-03-1.29016E-02 1.51532E-02 5.25035E+01-2.51907E+01-1.36504E+01



 n o d a l   p r i n t   o u t   f o r   t i m e  s t e p   49006                              ( at time 2.4500048E+01 )

 nodal point  x-rot      y-rot       z-rot       x-rot vel   y-rot vel   z-rot vel   x-rot acc   y-rot acc   z-rot acc
    22626  2.30571E-01 1.44891E-01-2.92988E-02 1.65364E-02 6.95108E-03-3.86514E-03-3.01115E-04-2.25183E-04 1.62390E-04



 n o d a l   p r i n t   o u t   f o r   t i m e  s t e p   49206                              ( at time 2.4600038E+01 )

 nodal point  x-disp     y-disp      z-disp      x-vel       y-vel       z-vel      x-accl      y-accl      z-accl      x-coor      y-coor      z-coor
    22626  4.56217E+00-3.18973E+00-2.09312E+01 2.28601E-01-2.89265E-01 5.77753E-01 3.77332E-04-1.01746E-02-1.28162E-03 5.25264E+01-2.52195E+01-1.35927E+01



 n o d a l   p r i n t   o u t   f o r   t i m e  s t e p   49206                              ( at time 2.4600038E+01 )

 nodal point  x-rot      y-rot       z-rot       x-rot vel   y-rot vel   z-rot vel   x-rot acc   y-rot acc   z-rot acc
    22626  2.32223E-01 1.45584E-01-2.96859E-02 1.65086E-02 6.91757E-03-3.86855E-03-2.77299E-04-3.35139E-04-3.41058E-05



 n o d a l   p r i n t   o u t   f o r   t i m e  s t e p   49406                              ( at time 2.4700028E+01 )

 nodal point  x-disp     y-disp      z-disp      x-vel       y-vel       z-vel      x-accl      y-accl      z-accl      x-coor      y-coor      z-coor
    22626  4.58506E+00-3.21868E+00-2.08734E+01 2.29538E-01-2.90190E-01 5.76950E-01 9.36582E-03-9.25226E-03-8.02606E-03 5.25492E+01-2.52485E+01-1.35349E+01



 n o d a l   p r i n t   o u t   f o r   t i m e  s t e p   49406                              ( at time 2.4700028E+01 )

 nodal point  x-rot      y-rot       z-rot       x-rot vel   y-rot vel   z-rot vel   x-rot acc   y-rot acc   z-rot acc
    22626  2.33872E-01 1.46275E-01-3.00730E-02 1.64827E-02 6.89974E-03-3.87070E-03-2.59607E-04-1.78345E-04-2.15462E-05



 n o d a l   p r i n t   o u t   f o r   t i m e  s t e p   49606                              ( at time 2.4800018E+01 )

 nodal point  x-disp     y-disp      z-disp      x-vel       y-vel       z-vel      x-accl      y-accl      z-accl      x-coor      y-coor      z-coor
    22626  4.60792E+00-3.24772E+00-2.08156E+01 2.28986E-01-2.91125E-01 5.77209E-01-5.51930E-03-9.34388E-03 2.58171E-03 5.25721E+01-2.52775E+01-1.34771E+01



 n o d a l   p r i n t   o u t   f o r   t i m e  s t e p   49606                              ( at time 2.4800018E+01 )

 nodal point  x-rot      y-rot       z-rot       x-rot vel   y-rot vel   z-rot vel   x-rot acc   y-rot acc   z-rot acc
    22626  2.35518E-01 1.46963E-01-3.04605E-02 1.64545E-02 6.86747E-03-3.87949E-03-2.81881E-04-3.22696E-04-8.79016E-05



 n o d a l   p r i n t   o u t   f o r   t i m e  s t e p   49806                              ( at time 2.4900008E+01 )

 nodal point  x-disp     y-disp      z-disp      x-vel       y-vel       z-vel      x-accl      y-accl      z-accl      x-coor      y-coor      z-coor
    22626  4.63078E+00-3.27684E+00-2.07579E+01 2.28326E-01-2.91618E-01 5.77033E-01-6.60284E-03-4.93998E-03-1.75913E-03 5.25950E+01-2.53066E+01-1.34194E+01



 n o d a l   p r i n t   o u t   f o r   t i m e  s t e p   49806                              ( at time 2.4900008E+01 )

 nodal point  x-rot      y-rot       z-rot       x-rot vel   y-rot vel   z-rot vel   x-rot acc   y-rot acc   z-rot acc
    22626  2.37162E-01 1.47648E-01-3.08485E-02 1.64308E-02 6.83760E-03-3.89094E-03-2.36508E-04-2.98783E-04-1.14495E-04



 n o d a l   p r i n t   o u t   f o r   t i m e  s t e p   50006                              ( at time 2.4999998E+01 )

 nodal point  x-disp     y-disp      z-disp      x-vel       y-vel       z-vel      x-accl      y-accl      z-accl      x-coor      y-coor      z-coor
    22626  4.65364E+00-3.30601E+00-2.07002E+01 2.28405E-01-2.91981E-01 5.77150E-01 7.93410E-04-3.62221E-03 1.17193E-03 5.26178E+01-2.53358E+01-1.33617E+01



 n o d a l   p r i n t   o u t   f o r   t i m e  s t e p   50006                              ( at time 2.4999998E+01 )

 nodal point  x-rot      y-rot       z-rot       x-rot vel   y-rot vel   z-rot vel   x-rot acc   y-rot acc   z-rot acc
    22626  2.38804E-01 1.48332E-01-3.12370E-02 1.64051E-02 6.83376E-03-3.90534E-03-2.57814E-04-3.83554E-05-1.43991E-04
