 LSTC 50th% Full_FE H-III Dummy (Beta Version, February 17, 2019)        
                    ls-dyna smp s R16 R16.0_619_d222963 date 03/18/2025

{BEGIN LEGEND}
 Entity #        Title
    22626                                                                                     
{END LEGEND}




 n o d a l   p r i n t   o u t   f o r   t i m e  s t e p       1                              ( at time 0.0000000E+00 )

 nodal point  x-disp     y-disp      z-disp      x-vel       y-vel       z-vel      x-accl      y-accl      z-accl      x-coor      y-coor      z-coor
    22626  0.00000E+00 0.00000E+00 0.00000E+00 0.00000E+00 0.00000E+00 0.00000E+00 0.00000E+00 0.00000E+00 0.00000E+00 4.65938E+00-2.81908E+01-4.49817E+01



 n o d a l   p r i n t   o u t   f o r   t i m e  s t e p       1                              ( at time 0.0000000E+00 )

 nodal point  x-rot      y-rot       z-rot       x-rot vel   y-rot vel   z-rot vel   x-rot acc   y-rot acc   z-rot acc
    22626  0.00000E+00 0.00000E+00 0.00000E+00 0.00000E+00 0.00000E+00 0.00000E+00 0.00000E+00 0.00000E+00 0.00000E+00



 n o d a l   p r i n t   o u t   f o r   t i m e  s t e p     201                              ( at time 9.9989993E-02 )

 nodal point  x-disp     y-disp      z-disp      x-vel       y-vel       z-vel      x-accl      y-accl      z-accl      x-coor      y-coor      z-coor
    22626  2.73616E-07 1.73526E-06-5.34262E-05 4.19747E-05 2.55473E-04-1.46804E-03 4.19789E-04 2.55499E-03-1.46819E-02 4.65938E+00-2.81908E+01-4.49818E+01



 n o d a l   p r i n t   o u t   f o r   t i m e  s t e p     201                              ( at time 9.9989993E-02 )

 nodal point  x-rot      y-rot       z-rot       x-rot vel   y-rot vel   z-rot vel   x-rot acc   y-rot acc   z-rot acc
    22626 -5.99323E-08-8.39075E-09-5.46527E-09-5.87131E-06-9.70248E-07-9.27567E-07-5.87190E-05-9.70345E-06-9.27660E-06



 n o d a l   p r i n t   o u t   f o r   t i m e  s t e p     401                              ( at time 1.9997999E-01 )

 nodal point  x-disp     y-disp      z-disp      x-vel       y-vel       z-vel      x-accl      y-accl      z-accl      x-coor      y-coor      z-coor
    22626  1.73105E-05 3.61701E-04-6.67535E-04 3.14906E-05 7.80982E-03-1.21509E-02-1.04852E-04 7.55510E-02-1.06840E-01 4.65939E+00-2.81905E+01-4.49824E+01



 n o d a l   p r i n t   o u t   f o r   t i m e  s t e p     401                              ( at time 1.9997999E-01 )

 nodal point  x-rot      y-rot       z-rot       x-rot vel   y-rot vel   z-rot vel   x-rot acc   y-rot acc   z-rot acc
    22626 -2.82096E-06-3.37263E-07-3.34686E-07-3.93780E-05-1.77958E-06-2.30274E-06-3.35101E-04-8.09411E-06-1.37531E-05



 n o d a l   p r i n t   o u t   f o r   t i m e  s t e p     601                              ( at time 2.9996998E-01 )

 nodal point  x-disp     y-disp      z-disp      x-vel       y-vel       z-vel      x-accl      y-accl      z-accl      x-coor      y-coor      z-coor
    22626  2.73822E-05 1.23955E-03-2.33765E-03 4.22170E-04 8.44094E-03-1.92408E-02 3.90719E-03 6.31185E-03-7.09059E-02 4.65940E+00-2.81896E+01-4.49841E+01



 n o d a l   p r i n t   o u t   f o r   t i m e  s t e p     601                              ( at time 2.9996998E-01 )

 nodal point  x-rot      y-rot       z-rot       x-rot vel   y-rot vel   z-rot vel   x-rot acc   y-rot acc   z-rot acc
    22626 -5.39390E-06-3.90887E-07-6.42215E-07-1.55782E-05-5.49539E-06-6.65945E-06 2.38023E-04-3.71619E-05-4.35714E-05



 n o d a l   p r i n t   o u t   f o r   t i m e  s t e p     801                              ( at time 3.9995997E-01 )

 nodal point  x-disp     y-disp      z-disp      x-vel       y-vel       z-vel      x-accl      y-accl      z-accl      x-coor      y-coor      z-coor
    22626  2.60719E-05 2.16093E-03-4.28053E-03-3.13893E-04 1.07374E-02-2.10688E-02-7.36136E-03 2.29665E-02-1.82820E-02 4.65940E+00-2.81887E+01-4.49860E+01



 n o d a l   p r i n t   o u t   f o r   t i m e  s t e p     801                              ( at time 3.9995997E-01 )

 nodal point  x-rot      y-rot       z-rot       x-rot vel   y-rot vel   z-rot vel   x-rot acc   y-rot acc   z-rot acc
    22626 -7.63546E-06-1.25183E-06-9.83915E-07-4.49410E-05-6.25026E-06-1.53697E-06-2.93657E-04-7.54940E-06 5.12299E-05



 n o d a l   p r i n t   o u t   f o r   t i m e  s t e p    1001                              ( at time 4.9994997E-01 )

 nodal point  x-disp     y-disp      z-disp      x-vel       y-vel       z-vel      x-accl      y-accl      z-accl      x-coor      y-coor      z-coor
    22626  4.02825E-06 3.43342E-03-6.73849E-03-2.39042E-04 1.41010E-02-2.86229E-02 7.48583E-04 3.36402E-02-7.55483E-02 4.65938E+00-2.81874E+01-4.49885E+01



 n o d a l   p r i n t   o u t   f o r   t i m e  s t e p    1001                              ( at time 4.9994997E-01 )

 nodal point  x-rot      y-rot       z-rot       x-rot vel   y-rot vel   z-rot vel   x-rot acc   y-rot acc   z-rot acc
    22626 -1.36073E-05-1.17048E-06-9.53902E-07-8.48540E-05 3.23845E-06 4.11580E-06-3.99170E-04 9.48966E-05 5.65334E-05



 n o d a l   p r i n t   o u t   f o r   t i m e  s t e p    1201                              ( at time 5.9993996E-01 )

 nodal point  x-disp     y-disp      z-disp      x-vel       y-vel       z-vel      x-accl      y-accl      z-accl      x-coor      y-coor      z-coor
    22626 -8.26256E-07 4.99696E-03-9.69235E-03 4.84148E-05 1.64933E-02-3.07267E-02 2.87486E-03 2.39247E-02-2.10399E-02 4.65937E+00-2.81858E+01-4.49914E+01



 n o d a l   p r i n t   o u t   f o r   t i m e  s t e p    1201                              ( at time 5.9993996E-01 )

 nodal point  x-rot      y-rot       z-rot       x-rot vel   y-rot vel   z-rot vel   x-rot acc   y-rot acc   z-rot acc
    22626 -2.05156E-05-8.94901E-07-9.76271E-07-6.15315E-05 3.58414E-06-2.51066E-06 2.33249E-04 3.45724E-06-6.62713E-05



 n o d a l   p r i n t   o u t   f o r   t i m e  s t e p    1401                              ( at time 6.9992995E-01 )

 nodal point  x-disp     y-disp      z-disp      x-vel       y-vel       z-vel      x-accl      y-accl      z-accl      x-coor      y-coor      z-coor
    22626 -4.92763E-05 6.80998E-03-1.31111E-02-4.71098E-04 1.93551E-02-3.84676E-02-5.19565E-03 2.86209E-02-7.74171E-02 4.65933E+00-2.81840E+01-4.49948E+01



 n o d a l   p r i n t   o u t   f o r   t i m e  s t e p    1401                              ( at time 6.9992995E-01 )

 nodal point  x-rot      y-rot       z-rot       x-rot vel   y-rot vel   z-rot vel   x-rot acc   y-rot acc   z-rot acc
    22626 -2.67731E-05-9.58679E-07-7.23105E-07-7.45470E-05-3.21038E-07 2.91342E-06-1.30168E-04-3.90557E-05 5.42463E-05



 n o d a l   p r i n t   o u t   f o r   t i m e  s t e p    1601                              ( at time 7.9991994E-01 )

 nodal point  x-disp     y-disp      z-disp      x-vel       y-vel       z-vel      x-accl      y-accl      z-accl      x-coor      y-coor      z-coor
    22626 -7.73613E-05 8.90894E-03-1.73369E-02-4.88269E-04 2.17217E-02-4.42678E-02-1.71725E-04 2.36688E-02-5.80079E-02 4.65930E+00-2.81819E+01-4.49991E+01



 n o d a l   p r i n t   o u t   f o r   t i m e  s t e p    1601                              ( at time 7.9991994E-01 )

 nodal point  x-rot      y-rot       z-rot       x-rot vel   y-rot vel   z-rot vel   x-rot acc   y-rot acc   z-rot acc
    22626 -3.54113E-05-9.92763E-07-7.35434E-07-9.75097E-05-5.48919E-06-1.92574E-07-2.29650E-04-5.16867E-05-3.10631E-05



 n o d a l   p r i n t   o u t   f o r   t i m e  s t e p    1801                              ( at time 8.9990994E-01 )

 nodal point  x-disp     y-disp      z-disp      x-vel       y-vel       z-vel      x-accl      y-accl      z-accl      x-coor      y-coor      z-coor
    22626 -1.12799E-04 1.11216E-02-2.17572E-02-2.66504E-04 2.33659E-02-4.42868E-02 2.21787E-03 1.64439E-02-1.89599E-04 4.65926E+00-2.81797E+01-4.50035E+01



 n o d a l   p r i n t   o u t   f o r   t i m e  s t e p    1801                              ( at time 8.9990994E-01 )

 nodal point  x-rot      y-rot       z-rot       x-rot vel   y-rot vel   z-rot vel   x-rot acc   y-rot acc   z-rot acc
    22626 -4.45509E-05-1.20366E-06-9.78003E-07-9.12583E-05 1.94126E-08-3.99919E-06 6.25199E-05 5.50916E-05-3.80700E-05



 n o d a l   p r i n t   o u t   f o r   t i m e  s t e p    2001                              ( at time 9.9989993E-01 )

 nodal point  x-disp     y-disp      z-disp      x-vel       y-vel       z-vel      x-accl      y-accl      z-accl      x-coor      y-coor      z-coor
    22626 -1.43229E-04 1.35747E-02-2.63342E-02 4.71251E-05 2.54614E-02-4.80387E-02 3.13660E-03 2.09563E-02-3.75228E-02 4.65923E+00-2.81773E+01-4.50081E+01



 n o d a l   p r i n t   o u t   f o r   t i m e  s t e p    2001                              ( at time 9.9989993E-01 )

 nodal point  x-rot      y-rot       z-rot       x-rot vel   y-rot vel   z-rot vel   x-rot acc   y-rot acc   z-rot acc
    22626 -5.46552E-05-1.41046E-06-1.32853E-06-1.18239E-04-2.06030E-06-8.35758E-06-2.69836E-04-2.07993E-05-4.35882E-05



 n o d a l   p r i n t   o u t   f o r   t i m e  s t e p    2201                              ( at time 1.0998899E+00 )

 nodal point  x-disp     y-disp      z-disp      x-vel       y-vel       z-vel      x-accl      y-accl      z-accl      x-coor      y-coor      z-coor
    22626 -1.39081E-04 1.61950E-02-3.14179E-02-1.70840E-04 2.75041E-02-5.32556E-02-2.17987E-03 2.04298E-02-5.21744E-02 4.65924E+00-2.81746E+01-4.50131E+01



 n o d a l   p r i n t   o u t   f o r   t i m e  s t e p    2201                              ( at time 1.0998899E+00 )

 nodal point  x-rot      y-rot       z-rot       x-rot vel   y-rot vel   z-rot vel   x-rot acc   y-rot acc   z-rot acc
    22626 -6.72039E-05-2.00332E-06-2.30676E-06-1.20365E-04-1.45668E-05-1.00771E-05-2.12577E-05-1.25078E-04-1.71965E-05



 n o d a l   p r i n t   o u t   f o r   t i m e  s t e p    2401                              ( at time 1.1998799E+00 )

 nodal point  x-disp     y-disp      z-disp      x-vel       y-vel       z-vel      x-accl      y-accl      z-accl      x-coor      y-coor      z-coor
    22626 -1.39141E-04 1.89696E-02-3.69634E-02 1.67889E-04 2.81046E-02-5.72593E-02 3.38763E-03 6.00495E-03-4.00414E-02 4.65924E+00-2.81719E+01-4.50187E+01



 n o d a l   p r i n t   o u t   f o r   t i m e  s t e p    2401                              ( at time 1.1998799E+00 )

 nodal point  x-rot      y-rot       z-rot       x-rot vel   y-rot vel   z-rot vel   x-rot acc   y-rot acc   z-rot acc
    22626 -7.93612E-05-3.46723E-06-3.53021E-06-1.28432E-04-1.70655E-05-1.48789E-05-8.06786E-05-2.49896E-05-4.80232E-05



 n o d a l   p r i n t   o u t   f o r   t i m e  s t e p    2601                              ( at time 1.2998699E+00 )

 nodal point  x-disp     y-disp      z-disp      x-vel       y-vel       z-vel      x-accl      y-accl      z-accl      x-coor      y-coor      z-coor
    22626 -1.40625E-04 2.18710E-02-4.27619E-02 7.19240E-05 2.97267E-02-5.85101E-02-9.59744E-04 1.62225E-02-1.25089E-02 4.65923E+00-2.81690E+01-4.50245E+01



 n o d a l   p r i n t   o u t   f o r   t i m e  s t e p    2601                              ( at time 1.2998699E+00 )

 nodal point  x-rot      y-rot       z-rot       x-rot vel   y-rot vel   z-rot vel   x-rot acc   y-rot acc   z-rot acc
    22626 -9.35480E-05-5.03285E-06-5.01673E-06-1.65204E-04-1.06193E-05-1.54608E-05-3.67755E-04 6.44692E-05-5.81970E-06



 n o d a l   p r i n t   o u t   f o r   t i m e  s t e p    2801                              ( at time 1.3998599E+00 )

 nodal point  x-disp     y-disp      z-disp      x-vel       y-vel       z-vel      x-accl      y-accl      z-accl      x-coor      y-coor      z-coor
    22626 -1.33082E-04 2.49212E-02-4.86212E-02-9.95042E-05 3.10472E-02-5.93628E-02-1.71445E-03 1.32064E-02-8.52797E-03 4.65924E+00-2.81659E+01-4.50303E+01



 n o d a l   p r i n t   o u t   f o r   t i m e  s t e p    2801                              ( at time 1.3998599E+00 )

 nodal point  x-rot      y-rot       z-rot       x-rot vel   y-rot vel   z-rot vel   x-rot acc   y-rot acc   z-rot acc
    22626 -1.10746E-04-5.97547E-06-6.68774E-06-1.79541E-04-1.17759E-05-1.73709E-05-1.43386E-04-1.15678E-05-1.91024E-05



 n o d a l   p r i n t   o u t   f o r   t i m e  s t e p    3001                              ( at time 1.4998499E+00 )

 nodal point  x-disp     y-disp      z-disp      x-vel       y-vel       z-vel      x-accl      y-accl      z-accl      x-coor      y-coor      z-coor
    22626 -1.42790E-04 2.81214E-02-5.48153E-02 2.10373E-05 3.29182E-02-6.50407E-02 1.20554E-03 1.87127E-02-5.67844E-02 4.65923E+00-2.81627E+01-4.50365E+01



 n o d a l   p r i n t   o u t   f o r   t i m e  s t e p    3001                              ( at time 1.4998499E+00 )

 nodal point  x-rot      y-rot       z-rot       x-rot vel   y-rot vel   z-rot vel   x-rot acc   y-rot acc   z-rot acc
    22626 -1.29061E-04-7.49883E-06-8.75928E-06-1.83728E-04-1.72689E-05-2.46997E-05-4.18725E-05-5.49350E-05-7.32954E-05



 n o d a l   p r i n t   o u t   f o r   t i m e  s t e p    3201                              ( at time 1.5998399E+00 )

 nodal point  x-disp     y-disp      z-disp      x-vel       y-vel       z-vel      x-accl      y-accl      z-accl      x-coor      y-coor      z-coor
    22626 -1.54150E-04 3.15811E-02-6.16014E-02-1.30429E-04 3.62169E-02-6.98868E-02-1.51481E-03 3.29901E-02-4.84656E-02 4.65922E+00-2.81592E+01-4.50433E+01



 n o d a l   p r i n t   o u t   f o r   t i m e  s t e p    3201                              ( at time 1.5998399E+00 )

 nodal point  x-rot      y-rot       z-rot       x-rot vel   y-rot vel   z-rot vel   x-rot acc   y-rot acc   z-rot acc
    22626 -1.47004E-04-9.02507E-06-1.08219E-05-1.86057E-04-1.80670E-05-2.15132E-05-2.32989E-05-7.98178E-06 3.18676E-05



 n o d a l   p r i n t   o u t   f o r   t i m e  s t e p    3401                              ( at time 1.6998299E+00 )

 nodal point  x-disp     y-disp      z-disp      x-vel       y-vel       z-vel      x-accl      y-accl      z-accl      x-coor      y-coor      z-coor
    22626 -1.83904E-04 3.52896E-02-6.87510E-02-5.19990E-04 3.75650E-02-7.26818E-02-3.89600E-03 1.34822E-02-2.79532E-02 4.65919E+00-2.81555E+01-4.50505E+01



 n o d a l   p r i n t   o u t   f o r   t i m e  s t e p    3401                              ( at time 1.6998299E+00 )

 nodal point  x-rot      y-rot       z-rot       x-rot vel   y-rot vel   z-rot vel   x-rot acc   y-rot acc   z-rot acc
    22626 -1.66744E-04-1.02029E-05-1.30229E-05-2.07649E-04-9.56177E-06-2.04160E-05-2.15936E-04 8.50606E-05 1.09734E-05



 n o d a l   p r i n t   o u t   f o r   t i m e  s t e p    3601                              ( at time 1.7998199E+00 )

 nodal point  x-disp     y-disp      z-disp      x-vel       y-vel       z-vel      x-accl      y-accl      z-accl      x-coor      y-coor      z-coor
    22626 -2.37205E-04 3.90733E-02-7.61340E-02-5.02166E-04 3.85811E-02-7.50708E-02 1.78252E-04 1.01616E-02-2.38923E-02 4.65914E+00-2.81518E+01-4.50579E+01



 n o d a l   p r i n t   o u t   f o r   t i m e  s t e p    3601                              ( at time 1.7998199E+00 )

 nodal point  x-rot      y-rot       z-rot       x-rot vel   y-rot vel   z-rot vel   x-rot acc   y-rot acc   z-rot acc
    22626 -1.87893E-04-1.11077E-05-1.53585E-05-2.12659E-04-7.27786E-06-2.41802E-05-5.01044E-05 2.28414E-05-3.76453E-05



 n o d a l   p r i n t   o u t   f o r   t i m e  s t e p    3801                              ( at time 1.8998099E+00 )

 nodal point  x-disp     y-disp      z-disp      x-vel       y-vel       z-vel      x-accl      y-accl      z-accl      x-coor      y-coor      z-coor
    22626 -2.84113E-04 4.30505E-02-8.38214E-02-2.35019E-04 4.05207E-02-7.90426E-02 2.67174E-03 1.93979E-02-3.97218E-02 4.65909E+00-2.81478E+01-4.50655E+01



 n o d a l   p r i n t   o u t   f o r   t i m e  s t e p    3801                              ( at time 1.8998099E+00 )

 nodal point  x-rot      y-rot       z-rot       x-rot vel   y-rot vel   z-rot vel   x-rot acc   y-rot acc   z-rot acc
    22626 -2.09018E-04-1.21485E-05-1.77868E-05-2.26213E-04-1.57816E-05-2.69715E-05-1.35559E-04-8.50461E-05-2.79164E-05



 n o d a l   p r i n t   o u t   f o r   t i m e  s t e p    4001                              ( at time 1.9997999E+00 )

 nodal point  x-disp     y-disp      z-disp      x-vel       y-vel       z-vel      x-accl      y-accl      z-accl      x-coor      y-coor      z-coor
    22626 -2.82860E-04 4.71034E-02-9.19328E-02 2.82351E-04 4.11571E-02-8.28565E-02 5.17422E-03 6.36511E-03-3.81431E-02 4.65909E+00-2.81437E+01-4.50737E+01



 n o d a l   p r i n t   o u t   f o r   t i m e  s t e p    4001                              ( at time 1.9997999E+00 )

 nodal point  x-rot      y-rot       z-rot       x-rot vel   y-rot vel   z-rot vel   x-rot acc   y-rot acc   z-rot acc
    22626 -2.31732E-04-1.41732E-05-2.06139E-05-2.33059E-04-2.70545E-05-3.14099E-05-6.84605E-05-1.12740E-04-4.43885E-05



 n o d a l   p r i n t   o u t   f o r   t i m e  s t e p    4201                              ( at time 2.0997899E+00 )

 nodal point  x-disp     y-disp      z-disp      x-vel       y-vel       z-vel      x-accl      y-accl      z-accl      x-coor      y-coor      z-coor
    22626 -2.29663E-04 5.12378E-02-1.00308E-01 6.27341E-04 4.17764E-02-8.45170E-02 3.45024E-03 6.19302E-03-1.66065E-02 4.65915E+00-2.81396E+01-4.50820E+01



 n o d a l   p r i n t   o u t   f o r   t i m e  s t e p    4201                              ( at time 2.0997899E+00 )

 nodal point  x-rot      y-rot       z-rot       x-rot vel   y-rot vel   z-rot vel   x-rot acc   y-rot acc   z-rot acc
    22626 -2.54870E-04-1.71249E-05-2.37373E-05-2.33902E-04-2.78134E-05-2.70358E-05-8.43906E-06-7.58984E-06 4.37455E-05



 n o d a l   p r i n t   o u t   f o r   t i m e  s t e p    4401                              ( at time 2.1997798E+00 )

 nodal point  x-disp     y-disp      z-disp      x-vel       y-vel       z-vel      x-accl      y-accl      z-accl      x-coor      y-coor      z-coor
    22626 -1.79606E-04 5.54724E-02-1.08810E-01 2.21586E-04 4.26659E-02-8.54162E-02-4.05796E-03 8.89656E-03-8.99324E-03 4.65920E+00-2.81354E+01-4.50905E+01



 n o d a l   p r i n t   o u t   f o r   t i m e  s t e p    4401                              ( at time 2.1997798E+00 )

 nodal point  x-rot      y-rot       z-rot       x-rot vel   y-rot vel   z-rot vel   x-rot acc   y-rot acc   z-rot acc
    22626 -2.79096E-04-1.93665E-05-2.64473E-05-2.56067E-04-1.36575E-05-2.60729E-05-2.21671E-04 1.41573E-04 9.63039E-06



 n o d a l   p r i n t   o u t   f o r   t i m e  s t e p    4601                              ( at time 2.2997698E+00 )

 nodal point  x-disp     y-disp      z-disp      x-vel       y-vel       z-vel      x-accl      y-accl      z-accl      x-coor      y-coor      z-coor
    22626 -2.01784E-04 5.97580E-02-1.17382E-01-4.74259E-04 4.39243E-02-8.69028E-02-6.95913E-03 1.25850E-02-1.48672E-02 4.65917E+00-2.81311E+01-4.50991E+01



 n o d a l   p r i n t   o u t   f o r   t i m e  s t e p    4601                              ( at time 2.2997698E+00 )

 nodal point  x-rot      y-rot       z-rot       x-rot vel   y-rot vel   z-rot vel   x-rot acc   y-rot acc   z-rot acc
    22626 -3.05413E-04-2.02698E-05-2.91560E-05-2.73336E-04-1.57472E-07-2.77654E-05-1.72703E-04 1.35014E-04-1.69270E-05



 n o d a l   p r i n t   o u t   f o r   t i m e  s t e p    4801                              ( at time 2.3997598E+00 )

 nodal point  x-disp     y-disp      z-disp      x-vel       y-vel       z-vel      x-accl      y-accl      z-accl      x-coor      y-coor      z-coor
    22626 -3.24968E-04 6.43076E-02-1.26231E-01-1.87630E-03 4.66290E-02-9.03202E-02-1.40218E-02 2.70501E-02-3.41776E-02 4.65905E+00-2.81265E+01-4.51080E+01



 n o d a l   p r i n t   o u t   f o r   t i m e  s t e p    4801                              ( at time 2.3997598E+00 )

 nodal point  x-rot      y-rot       z-rot       x-rot vel   y-rot vel   z-rot vel   x-rot acc   y-rot acc   z-rot acc
    22626 -3.32854E-04-1.96653E-05-3.12746E-05-2.81105E-04 1.31037E-05-1.65324E-05-7.76991E-05 1.32625E-04 1.12341E-04



 n o d a l   p r i n t   o u t   f o r   t i m e  s t e p    5001                              ( at time 2.4997498E+00 )

 nodal point  x-disp     y-disp      z-disp      x-vel       y-vel       z-vel      x-accl      y-accl      z-accl      x-coor      y-coor      z-coor
    22626 -5.02050E-04 6.92259E-02-1.35466E-01-2.02193E-03 5.15340E-02-9.34570E-02-1.45644E-03 4.90550E-02-3.13713E-02 4.65887E+00-2.81216E+01-4.51172E+01



 n o d a l   p r i n t   o u t   f o r   t i m e  s t e p    5001                              ( at time 2.4997498E+00 )

 nodal point  x-rot      y-rot       z-rot       x-rot vel   y-rot vel   z-rot vel   x-rot acc   y-rot acc   z-rot acc
    22626 -3.62641E-04-1.77542E-05-3.34445E-05-3.08110E-04 1.81543E-05-2.63491E-05-2.70073E-04 5.05109E-05-9.81762E-05



 n o d a l   p r i n t   o u t   f o r   t i m e  s t e p    5201                              ( at time 2.5997398E+00 )

 nodal point  x-disp     y-disp      z-disp      x-vel       y-vel       z-vel      x-accl      y-accl      z-accl      x-coor      y-coor      z-coor
    22626 -7.47091E-04 7.47164E-02-1.44799E-01-2.86570E-03 5.82543E-02-9.31002E-02-8.43861E-03 6.72095E-02 3.56844E-03 4.65863E+00-2.81161E+01-4.51265E+01



 n o d a l   p r i n t   o u t   f o r   t i m e  s t e p    5201                              ( at time 2.5997398E+00 )

 nodal point  x-rot      y-rot       z-rot       x-rot vel   y-rot vel   z-rot vel   x-rot acc   y-rot acc   z-rot acc
    22626 -3.95524E-04-1.53033E-05-3.60242E-05-3.44212E-04 2.46781E-05-2.54516E-05-3.61061E-04 6.52442E-05 8.97642E-06



 n o d a l   p r i n t   o u t   f o r   t i m e  s t e p    5401                              ( at time 2.6997298E+00 )

 nodal point  x-disp     y-disp      z-disp      x-vel       y-vel       z-vel      x-accl      y-accl      z-accl      x-coor      y-coor      z-coor
    22626 -1.01946E-03 8.09940E-02-1.54129E-01-2.90352E-03 6.80275E-02-9.40862E-02-3.78161E-04 9.77414E-02-9.86107E-03 4.65836E+00-2.81098E+01-4.51358E+01



 n o d a l   p r i n t   o u t   f o r   t i m e  s t e p    5401                              ( at time 2.6997298E+00 )

 nodal point  x-rot      y-rot       z-rot       x-rot vel   y-rot vel   z-rot vel   x-rot acc   y-rot acc   z-rot acc
    22626 -4.33044E-04-1.31781E-05-3.95653E-05-4.14475E-04 1.70194E-05-4.78019E-05-7.02696E-04-7.65943E-05-2.23526E-04



 n o d a l   p r i n t   o u t   f o r   t i m e  s t e p    5601                              ( at time 2.7997198E+00 )

 nodal point  x-disp     y-disp      z-disp      x-vel       y-vel       z-vel      x-accl      y-accl      z-accl      x-coor      y-coor      z-coor
    22626 -1.34976E-03 8.84426E-02-1.63537E-01-3.04517E-03 8.10248E-02-9.43122E-02-1.41666E-03 1.29986E-01-2.26006E-03 4.65803E+00-2.81024E+01-4.51453E+01



 n o d a l   p r i n t   o u t   f o r   t i m e  s t e p    5601                              ( at time 2.7997198E+00 )

 nodal point  x-rot      y-rot       z-rot       x-rot vel   y-rot vel   z-rot vel   x-rot acc   y-rot acc   z-rot acc
    22626 -4.77585E-04-1.18689E-05-4.48051E-05-4.67891E-04 1.88673E-05-5.14285E-05-5.34213E-04 1.84805E-05-3.62693E-05



 n o d a l   p r i n t   o u t   f o r   t i m e  s t e p    5801                              ( at time 2.8997098E+00 )

 nodal point  x-disp     y-disp      z-disp      x-vel       y-vel       z-vel      x-accl      y-accl      z-accl      x-coor      y-coor      z-coor
    22626 -1.69997E-03 9.73222E-02-1.73070E-01-4.39124E-03 9.71374E-02-9.56555E-02-1.34621E-02 1.61142E-01-1.34337E-02 4.65767E+00-2.80935E+01-4.51548E+01



 n o d a l   p r i n t   o u t   f o r   t i m e  s t e p    5801                              ( at time 2.8997098E+00 )

 nodal point  x-rot      y-rot       z-rot       x-rot vel   y-rot vel   z-rot vel   x-rot acc   y-rot acc   z-rot acc
    22626 -5.29764E-04-1.00552E-05-5.06047E-05-5.66128E-04 1.85507E-05-6.62602E-05-9.82470E-04-3.16614E-06-1.48332E-04



 n o d a l   p r i n t   o u t   f o r   t i m e  s t e p    6001                              ( at time 2.9996998E+00 )

 nodal point  x-disp     y-disp      z-disp      x-vel       y-vel       z-vel      x-accl      y-accl      z-accl      x-coor      y-coor      z-coor
    22626 -2.26267E-03 1.07891E-01-1.82723E-01-6.17956E-03 1.15324E-01-9.69779E-02-1.78850E-02 1.81889E-01-1.32262E-02 4.65711E+00-2.80829E+01-4.51644E+01



 n o d a l   p r i n t   o u t   f o r   t i m e  s t e p    6001                              ( at time 2.9996998E+00 )

 nodal point  x-rot      y-rot       z-rot       x-rot vel   y-rot vel   z-rot vel   x-rot acc   y-rot acc   z-rot acc
    22626 -5.94140E-04-7.91913E-06-5.84335E-05-7.13727E-04 2.04909E-05-7.67972E-05-1.47614E-03 1.94045E-05-1.05380E-04



 n o d a l   p r i n t   o u t   f o r   t i m e  s t e p    6201                              ( at time 3.0996898E+00 )

 nodal point  x-disp     y-disp      z-disp      x-vel       y-vel       z-vel      x-accl      y-accl      z-accl      x-coor      y-coor      z-coor
    22626 -2.96231E-03 1.20518E-01-1.92377E-01-7.64819E-03 1.37557E-01-9.64523E-02-1.46878E-02 2.22343E-01 5.25662E-03 4.65641E+00-2.80703E+01-4.51741E+01



 n o d a l   p r i n t   o u t   f o r   t i m e  s t e p    6201                              ( at time 3.0996898E+00 )

 nodal point  x-rot      y-rot       z-rot       x-rot vel   y-rot vel   z-rot vel   x-rot acc   y-rot acc   z-rot acc
    22626 -6.72081E-04-4.82401E-06-6.66665E-05-8.48116E-04 3.76045E-05-8.96843E-05-1.34402E-03 1.71153E-04-1.28884E-04



 n o d a l   p r i n t   o u t   f o r   t i m e  s t e p    6401                              ( at time 3.1996798E+00 )

 nodal point  x-disp     y-disp      z-disp      x-vel       y-vel       z-vel      x-accl      y-accl      z-accl      x-coor      y-coor      z-coor
    22626 -3.72027E-03 1.35505E-01-2.02140E-01-7.52936E-03 1.62879E-01-9.98422E-02 1.18845E-03 2.53254E-01-3.39015E-02 4.65565E+00-2.80553E+01-4.51839E+01



 n o d a l   p r i n t   o u t   f o r   t i m e  s t e p    6401                              ( at time 3.1996798E+00 )

 nodal point  x-rot      y-rot       z-rot       x-rot vel   y-rot vel   z-rot vel   x-rot acc   y-rot acc   z-rot acc
    22626 -7.63964E-04-9.73579E-07-7.58651E-05-9.94936E-04 4.03876E-05-9.51601E-05-1.46834E-03 2.78344E-05-5.47637E-05



 n o d a l   p r i n t   o u t   f o r   t i m e  s t e p    6601                              ( at time 3.2996698E+00 )

 nodal point  x-disp     y-disp      z-disp      x-vel       y-vel       z-vel      x-accl      y-accl      z-accl      x-coor      y-coor      z-coor
    22626 -4.56880E-03 1.53199E-01-2.12210E-01-9.02273E-03 1.90053E-01-1.00918E-01-1.49353E-02 2.71765E-01-1.07575E-02 4.65481E+00-2.80376E+01-4.51939E+01



 n o d a l   p r i n t   o u t   f o r   t i m e  s t e p    6601                              ( at time 3.2996698E+00 )

 nodal point  x-rot      y-rot       z-rot       x-rot vel   y-rot vel   z-rot vel   x-rot acc   y-rot acc   z-rot acc
    22626 -8.73459E-04 2.21392E-06-8.62682E-05-1.18105E-03 2.38346E-05-1.21773E-04-1.86129E-03-1.65547E-04-2.66151E-04



 n o d a l   p r i n t   o u t   f o r   t i m e  s t e p    6801                              ( at time 3.3996598E+00 )

 nodal point  x-disp     y-disp      z-disp      x-vel       y-vel       z-vel      x-accl      y-accl      z-accl      x-coor      y-coor      z-coor
    22626 -5.43569E-03 1.73710E-01-2.22412E-01-8.62566E-03 2.19681E-01-1.02976E-01 3.97116E-03 2.96307E-01-2.05883E-02 4.65394E+00-2.80171E+01-4.52041E+01



 n o d a l   p r i n t   o u t   f o r   t i m e  s t e p    6801                              ( at time 3.3996598E+00 )

 nodal point  x-rot      y-rot       z-rot       x-rot vel   y-rot vel   z-rot vel   x-rot acc   y-rot acc   z-rot acc
    22626 -1.00174E-03 3.76885E-06-9.85916E-05-1.37727E-03 1.13163E-05-1.31751E-04-1.96248E-03-1.25195E-04-9.97896E-05



 n o d a l   p r i n t   o u t   f o r   t i m e  s t e p    7001                              ( at time 3.4996498E+00 )

 nodal point  x-disp     y-disp      z-disp      x-vel       y-vel       z-vel      x-accl      y-accl      z-accl      x-coor      y-coor      z-coor
    22626 -6.36395E-03 1.97258E-01-2.32593E-01-1.04082E-02 2.51298E-01-1.00579E-01-1.78274E-02 3.16199E-01 2.39737E-02 4.65301E+00-2.79936E+01-4.52143E+01



 n o d a l   p r i n t   o u t   f o r   t i m e  s t e p    7001                              ( at time 3.4996498E+00 )

 nodal point  x-rot      y-rot       z-rot       x-rot vel   y-rot vel   z-rot vel   x-rot acc   y-rot acc   z-rot acc
    22626 -1.15060E-03 6.43925E-06-1.11104E-04-1.59745E-03 3.58664E-05-1.25007E-04-2.20201E-03 2.45525E-04 6.74392E-05



 n o d a l   p r i n t   o u t   f o r   t i m e  s t e p    7201                              ( at time 3.5996397E+00 )

 nodal point  x-disp     y-disp      z-disp      x-vel       y-vel       z-vel      x-accl      y-accl      z-accl      x-coor      y-coor      z-coor
    22626 -7.45201E-03 2.24022E-01-2.42593E-01-1.17567E-02 2.84196E-01-1.00313E-01-1.34864E-02 3.29018E-01 2.65878E-03 4.65192E+00-2.79668E+01-4.52243E+01



 n o d a l   p r i n t   o u t   f o r   t i m e  s t e p    7201                              ( at time 3.5996397E+00 )

 nodal point  x-rot      y-rot       z-rot       x-rot vel   y-rot vel   z-rot vel   x-rot acc   y-rot acc   z-rot acc
    22626 -1.32222E-03 1.04272E-05-1.24225E-04-1.81294E-03 5.27050E-05-1.38201E-04-2.15505E-03 1.68403E-04-1.31951E-04



 n o d a l   p r i n t   o u t   f o r   t i m e  s t e p    7401                              ( at time 3.6996297E+00 )

 nodal point  x-disp     y-disp      z-disp      x-vel       y-vel       z-vel      x-accl      y-accl      z-accl      x-coor      y-coor      z-coor
    22626 -8.72357E-03 2.54231E-01-2.52697E-01-1.36084E-02 3.19861E-01-1.00944E-01-1.85185E-02 3.56688E-01-6.30456E-03 4.65065E+00-2.79366E+01-4.52344E+01



 n o d a l   p r i n t   o u t   f o r   t i m e  s t e p    7401                              ( at time 3.6996297E+00 )

 nodal point  x-rot      y-rot       z-rot       x-rot vel   y-rot vel   z-rot vel   x-rot acc   y-rot acc   z-rot acc
    22626 -1.51585E-03 1.52251E-05-1.39015E-04-2.03647E-03 5.12057E-05-1.55397E-04-2.23555E-03-1.49942E-05-1.71973E-04



 n o d a l   p r i n t   o u t   f o r   t i m e  s t e p    7601                              ( at time 3.7996197E+00 )

 nodal point  x-disp     y-disp      z-disp      x-vel       y-vel       z-vel      x-accl      y-accl      z-accl      x-coor      y-coor      z-coor
    22626 -1.01525E-02 2.87991E-01-2.62825E-01-1.50237E-02 3.56431E-01-1.01210E-01-1.41546E-02 3.65728E-01-2.66288E-03 4.64922E+00-2.79028E+01-4.52445E+01



 n o d a l   p r i n t   o u t   f o r   t i m e  s t e p    7601                              ( at time 3.7996197E+00 )

 nodal point  x-rot      y-rot       z-rot       x-rot vel   y-rot vel   z-rot vel   x-rot acc   y-rot acc   z-rot acc
    22626 -1.73327E-03 1.98448E-05-1.55002E-04-2.28880E-03 4.51818E-05-1.66569E-04-2.52357E-03-6.02445E-05-1.11735E-04



 n o d a l   p r i n t   o u t   f o r   t i m e  s t e p    7801                              ( at time 3.8996097E+00 )

 nodal point  x-disp     y-disp      z-disp      x-vel       y-vel       z-vel      x-accl      y-accl      z-accl      x-coor      y-coor      z-coor
    22626 -1.16113E-02 3.25529E-01-2.73004E-01-1.43289E-02 3.93501E-01-1.01245E-01 6.94828E-03 3.70744E-01-3.46710E-04 4.64776E+00-2.78653E+01-4.52547E+01



 n o d a l   p r i n t   o u t   f o r   t i m e  s t e p    7801                              ( at time 3.8996097E+00 )

 nodal point  x-rot      y-rot       z-rot       x-rot vel   y-rot vel   z-rot vel   x-rot acc   y-rot acc   z-rot acc
    22626 -1.97616E-03 2.55108E-05-1.71851E-04-2.56183E-03 5.39065E-05-1.80581E-04-2.73058E-03 8.72551E-05-1.40135E-04



 n o d a l   p r i n t   o u t   f o r   t i m e  s t e p    8001                              ( at time 3.9995997E+00 )

 nodal point  x-disp     y-disp      z-disp      x-vel       y-vel       z-vel      x-accl      y-accl      z-accl      x-coor      y-coor      z-coor
    22626 -1.30805E-02 3.66881E-01-2.83037E-01-1.46607E-02 4.33313E-01-1.00183E-01-3.31799E-03 3.98153E-01 1.06185E-02 4.64629E+00-2.78239E+01-4.52648E+01



 n o d a l   p r i n t   o u t   f o r   t i m e  s t e p    8001                              ( at time 3.9995997E+00 )

 nodal point  x-rot      y-rot       z-rot       x-rot vel   y-rot vel   z-rot vel   x-rot acc   y-rot acc   z-rot acc
    22626 -2.24610E-03 2.97578E-05-1.90417E-04-2.83381E-03 3.55788E-05-1.88553E-04-2.72005E-03-1.83295E-04-7.97248E-05



 n o d a l   p r i n t   o u t   f o r   t i m e  s t e p    8201                              ( at time 4.0995897E+00 )

 nodal point  x-disp     y-disp      z-disp      x-vel       y-vel       z-vel      x-accl      y-accl      z-accl      x-coor      y-coor      z-coor
    22626 -1.45670E-02 4.12196E-01-2.93026E-01-1.48683E-02 4.72980E-01-1.00360E-01-2.07630E-03 3.96710E-01-1.77081E-03 4.64481E+00-2.77786E+01-4.52747E+01



 n o d a l   p r i n t   o u t   f o r   t i m e  s t e p    8201                              ( at time 4.0995897E+00 )

 nodal point  x-rot      y-rot       z-rot       x-rot vel   y-rot vel   z-rot vel   x-rot acc   y-rot acc   z-rot acc
    22626 -2.54192E-03 3.18128E-05-2.10422E-04-3.09967E-03 1.78091E-05-1.90619E-04-2.65890E-03-1.77715E-04-2.06679E-05



 n o d a l   p r i n t   o u t   f o r   t i m e  s t e p    8401                              ( at time 4.1995797E+00 )

 nodal point  x-disp     y-disp      z-disp      x-vel       y-vel       z-vel      x-accl      y-accl      z-accl      x-coor      y-coor      z-coor
    22626 -1.60199E-02 4.61653E-01-3.03027E-01-1.44336E-02 5.16062E-01-9.93983E-02 4.34806E-03 4.30868E-01 9.61878E-03 4.64335E+00-2.77292E+01-4.52847E+01



 n o d a l   p r i n t   o u t   f o r   t i m e  s t e p    8401                              ( at time 4.1995797E+00 )

 nodal point  x-rot      y-rot       z-rot       x-rot vel   y-rot vel   z-rot vel   x-rot acc   y-rot acc   z-rot acc
    22626 -2.86610E-03 3.36215E-05-2.30121E-04-3.35502E-03 2.07557E-05-1.92128E-04-2.55375E-03 2.94690E-05-1.50904E-05



 n o d a l   p r i n t   o u t   f o r   t i m e  s t e p    8601                              ( at time 4.2995697E+00 )

 nodal point  x-disp     y-disp      z-disp      x-vel       y-vel       z-vel      x-accl      y-accl      z-accl      x-coor      y-coor      z-coor
    22626 -1.74784E-02 5.15406E-01-3.12929E-01-1.52911E-02 5.58272E-01-9.81031E-02-8.57647E-03 4.22140E-01 1.29530E-02 4.64190E+00-2.76754E+01-4.52946E+01



 n o d a l   p r i n t   o u t   f o r   t i m e  s t e p    8601                              ( at time 4.2995697E+00 )

 nodal point  x-rot      y-rot       z-rot       x-rot vel   y-rot vel   z-rot vel   x-rot acc   y-rot acc   z-rot acc
    22626 -3.21528E-03 3.62361E-05-2.49301E-04-3.61104E-03 3.09479E-05-1.96539E-04-2.56046E-03 1.01933E-04-4.41083E-05



 n o d a l   p r i n t   o u t   f o r   t i m e  s t e p    8801                              ( at time 4.3995597E+00 )

 nodal point  x-disp     y-disp      z-disp      x-vel       y-vel       z-vel      x-accl      y-accl      z-accl      x-coor      y-coor      z-coor
    22626 -1.90700E-02 5.73337E-01-3.22574E-01-1.63387E-02 6.00709E-01-9.43865E-02-1.04772E-02 4.24420E-01 3.71698E-02 4.64031E+00-2.76175E+01-4.53043E+01



 n o d a l   p r i n t   o u t   f o r   t i m e  s t e p    8801                              ( at time 4.3995597E+00 )

 nodal point  x-rot      y-rot       z-rot       x-rot vel   y-rot vel   z-rot vel   x-rot acc   y-rot acc   z-rot acc
    22626 -3.59120E-03 3.90901E-05-2.68988E-04-3.89047E-03 3.53055E-05-1.97853E-04-2.79456E-03 4.35803E-05-1.31491E-05



 n o d a l   p r i n t   o u t   f o r   t i m e  s t e p    9001                              ( at time 4.4995497E+00 )

 nodal point  x-disp     y-disp      z-disp      x-vel       y-vel       z-vel      x-accl      y-accl      z-accl      x-coor      y-coor      z-coor
    22626 -2.06763E-02 6.35500E-01-3.31965E-01-1.59014E-02 6.42672E-01-9.32823E-02 4.37333E-03 4.19662E-01 1.10433E-02 4.63870E+00-2.75553E+01-4.53137E+01



 n o d a l   p r i n t   o u t   f o r   t i m e  s t e p    9001                              ( at time 4.4995497E+00 )

 nodal point  x-rot      y-rot       z-rot       x-rot vel   y-rot vel   z-rot vel   x-rot acc   y-rot acc   z-rot acc
    22626 -3.99581E-03 4.25224E-05-2.88701E-04-4.17519E-03 3.55817E-05-1.98938E-04-2.84746E-03 2.76207E-06-1.08445E-05



 n o d a l   p r i n t   o u t   f o r   t i m e  s t e p    9201                              ( at time 4.5995397E+00 )

 nodal point  x-disp     y-disp      z-disp      x-vel       y-vel       z-vel      x-accl      y-accl      z-accl      x-coor      y-coor      z-coor
    22626 -2.22371E-02 7.01912E-01-3.41224E-01-1.52921E-02 6.86372E-01-9.18564E-02 6.09391E-03 4.37050E-01 1.42607E-02 4.63714E+00-2.74889E+01-4.53229E+01



 n o d a l   p r i n t   o u t   f o r   t i m e  s t e p    9201                              ( at time 4.5995397E+00 )

 nodal point  x-rot      y-rot       z-rot       x-rot vel   y-rot vel   z-rot vel   x-rot acc   y-rot acc   z-rot acc
    22626 -4.42644E-03 4.53580E-05-3.08477E-04-4.43821E-03 2.21776E-05-2.04916E-04-2.63044E-03-1.34055E-04-5.97840E-05



 n o d a l   p r i n t   o u t   f o r   t i m e  s t e p    9401                              ( at time 4.6995297E+00 )

 nodal point  x-disp     y-disp      z-disp      x-vel       y-vel       z-vel      x-accl      y-accl      z-accl      x-coor      y-coor      z-coor
    22626 -2.37397E-02 7.72689E-01-3.50285E-01-1.46816E-02 7.29407E-01-8.89135E-02 6.10593E-03 4.30395E-01 2.94319E-02 4.63564E+00-2.74181E+01-4.53320E+01



 n o d a l   p r i n t   o u t   f o r   t i m e  s t e p    9401                              ( at time 4.6995297E+00 )

 nodal point  x-rot      y-rot       z-rot       x-rot vel   y-rot vel   z-rot vel   x-rot acc   y-rot acc   z-rot acc
    22626 -4.88499E-03 4.84707E-05-3.28524E-04-4.71704E-03 3.39683E-05-1.93133E-04-2.78865E-03 1.17919E-04 1.17841E-04



 n o d a l   p r i n t   o u t   f o r   t i m e  s t e p    9601                              ( at time 4.7995197E+00 )

 nodal point  x-disp     y-disp      z-disp      x-vel       y-vel       z-vel      x-accl      y-accl      z-accl      x-coor      y-coor      z-coor
    22626 -2.51727E-02 8.47802E-01-3.58996E-01-1.44013E-02 7.73014E-01-8.41652E-02 2.80342E-03 4.36106E-01 4.74881E-02 4.63420E+00-2.73430E+01-4.53407E+01



 n o d a l   p r i n t   o u t   f o r   t i m e  s t e p    9601                              ( at time 4.7995197E+00 )

 nodal point  x-rot      y-rot       z-rot       x-rot vel   y-rot vel   z-rot vel   x-rot acc   y-rot acc   z-rot acc
    22626 -5.37064E-03 5.28277E-05-3.46798E-04-4.98250E-03 4.02300E-05-1.71342E-04-2.65487E-03 6.26234E-05 2.17929E-04



 n o d a l   p r i n t   o u t   f o r   t i m e  s t e p    9801                              ( at time 4.8995097E+00 )

 nodal point  x-disp     y-disp      z-disp      x-vel       y-vel       z-vel      x-accl      y-accl      z-accl      x-coor      y-coor      z-coor
    22626 -2.65623E-02 9.27350E-01-3.67105E-01-1.31559E-02 8.17505E-01-7.92469E-02 1.24549E-02 4.44960E-01 4.91877E-02 4.63281E+00-2.72635E+01-4.53488E+01



 n o d a l   p r i n t   o u t   f o r   t i m e  s t e p    9801                              ( at time 4.8995097E+00 )

 nodal point  x-rot      y-rot       z-rot       x-rot vel   y-rot vel   z-rot vel   x-rot acc   y-rot acc   z-rot acc
    22626 -5.88192E-03 5.59200E-05-3.63742E-04-5.24805E-03 2.98155E-05-1.71100E-04-2.65573E-03-1.04156E-04 2.41921E-06



 n o d a l   p r i n t   o u t   f o r   t i m e  s t e p   10001                              ( at time 4.9994997E+00 )

 nodal point  x-disp     y-disp      z-disp      x-vel       y-vel       z-vel      x-accl      y-accl      z-accl      x-coor      y-coor      z-coor
    22626 -2.78467E-02 1.01129E+00-3.74928E-01-1.24475E-02 8.60784E-01-7.74022E-02 7.08428E-03 4.32827E-01 1.84490E-02 4.63153E+00-2.71795E+01-4.53566E+01



 n o d a l   p r i n t   o u t   f o r   t i m e  s t e p   10001                              ( at time 4.9994997E+00 )

 nodal point  x-rot      y-rot       z-rot       x-rot vel   y-rot vel   z-rot vel   x-rot acc   y-rot acc   z-rot acc
    22626 -6.41854E-03 5.88552E-05-3.80608E-04-5.49000E-03 3.80101E-05-1.61447E-04-2.41974E-03 8.19541E-05 9.65416E-05



 n o d a l   p r i n t   o u t   f o r   t i m e  s t e p   10202                              ( at time 5.0999896E+00 )

 nodal point  x-disp     y-disp      z-disp      x-vel       y-vel       z-vel      x-accl      y-accl      z-accl      x-coor      y-coor      z-coor
    22626 -2.91207E-02 1.10005E+00-3.82451E-01-1.25110E-02 9.04868E-01-7.21064E-02-6.31066E-04 4.38699E-01 5.26998E-02 4.63025E+00-2.70908E+01-4.53642E+01



 n o d a l   p r i n t   o u t   f o r   t i m e  s t e p   10202                              ( at time 5.0999896E+00 )

 nodal point  x-rot      y-rot       z-rot       x-rot vel   y-rot vel   z-rot vel   x-rot acc   y-rot acc   z-rot acc
    22626 -6.98225E-03 6.38574E-05-3.96177E-04-5.72487E-03 5.84243E-05-1.40840E-04-2.33722E-03 2.03148E-04 2.05063E-04



 n o d a l   p r i n t   o u t   f o r   t i m e  s t e p   10402                              ( at time 5.1999796E+00 )

 nodal point  x-disp     y-disp      z-disp      x-vel       y-vel       z-vel      x-accl      y-accl      z-accl      x-coor      y-coor      z-coor
    22626 -3.03421E-02 1.19272E+00-3.89334E-01-1.19766E-02 9.48555E-01-6.58810E-02 5.34433E-03 4.36905E-01 6.22604E-02 4.62903E+00-2.69981E+01-4.53711E+01



 n o d a l   p r i n t   o u t   f o r   t i m e  s t e p   10402                              ( at time 5.1999796E+00 )

 nodal point  x-rot      y-rot       z-rot       x-rot vel   y-rot vel   z-rot vel   x-rot acc   y-rot acc   z-rot acc
    22626 -7.56666E-03 6.97179E-05-4.08230E-04-5.96103E-03 5.83997E-05-1.12749E-04-2.36185E-03-2.45915E-07 2.80942E-04



 n o d a l   p r i n t   o u t   f o r   t i m e  s t e p   10602                              ( at time 5.2999696E+00 )

 nodal point  x-disp     y-disp      z-disp      x-vel       y-vel       z-vel      x-accl      y-accl      z-accl      x-coor      y-coor      z-coor
    22626 -3.16176E-02 1.28966E+00-3.95597E-01-1.35312E-02 9.90466E-01-5.90622E-02-1.55475E-02 4.19158E-01 6.81941E-02 4.62776E+00-2.69012E+01-4.53773E+01



 n o d a l   p r i n t   o u t   f o r   t i m e  s t e p   10602                              ( at time 5.2999696E+00 )

 nodal point  x-rot      y-rot       z-rot       x-rot vel   y-rot vel   z-rot vel   x-rot acc   y-rot acc   z-rot acc
    22626 -8.17520E-03 7.66226E-05-4.19821E-04-6.18603E-03 7.59468E-05-1.10750E-04-2.25019E-03 1.75489E-04 1.99867E-05



 n o d a l   p r i n t   o u t   f o r   t i m e  s t e p   10802                              ( at time 5.3999596E+00 )

 nodal point  x-disp     y-disp      z-disp      x-vel       y-vel       z-vel      x-accl      y-accl      z-accl      x-coor      y-coor      z-coor
    22626 -3.28675E-02 1.39071E+00-4.01138E-01-1.14058E-02 1.03151E+00-5.16589E-02 2.12554E-02 4.10482E-01 7.40406E-02 4.62651E+00-2.68001E+01-4.53829E+01



 n o d a l   p r i n t   o u t   f o r   t i m e  s t e p   10802                              ( at time 5.3999596E+00 )

 nodal point  x-rot      y-rot       z-rot       x-rot vel   y-rot vel   z-rot vel   x-rot acc   y-rot acc   z-rot acc
    22626 -8.80521E-03 8.46061E-05-4.30402E-04-6.39420E-03 8.41114E-05-9.14726E-05-2.08195E-03 8.16546E-05 1.92796E-04



 n o d a l   p r i n t   o u t   f o r   t i m e  s t e p   11002                              ( at time 5.4999496E+00 )

 nodal point  x-disp     y-disp      z-disp      x-vel       y-vel       z-vel      x-accl      y-accl      z-accl      x-coor      y-coor      z-coor
    22626 -3.39762E-02 1.49595E+00-4.05994E-01-1.03149E-02 1.07320E+00-4.48452E-02 1.09103E-02 4.16962E-01 6.81441E-02 4.62540E+00-2.66949E+01-4.53877E+01



 n o d a l   p r i n t   o u t   f o r   t i m e  s t e p   11002                              ( at time 5.4999496E+00 )

 nodal point  x-rot      y-rot       z-rot       x-rot vel   y-rot vel   z-rot vel   x-rot acc   y-rot acc   z-rot acc
    22626 -9.45629E-03 9.33890E-05-4.37607E-04-6.61635E-03 8.79873E-05-7.15895E-05-2.22168E-03 3.87621E-05 1.98852E-04



 n o d a l   p r i n t   o u t   f o r   t i m e  s t e p   11202                              ( at time 5.5999396E+00 )

 nodal point  x-disp     y-disp      z-disp      x-vel       y-vel       z-vel      x-accl      y-accl      z-accl      x-coor      y-coor      z-coor
    22626 -3.49645E-02 1.60524E+00-4.09933E-01-9.71246E-03 1.11288E+00-3.33535E-02 6.02524E-03 3.96868E-01 1.14929E-01 4.62441E+00-2.65856E+01-4.53917E+01



 n o d a l   p r i n t   o u t   f o r   t i m e  s t e p   11202                              ( at time 5.5999396E+00 )

 nodal point  x-rot      y-rot       z-rot       x-rot vel   y-rot vel   z-rot vel   x-rot acc   y-rot acc   z-rot acc
    22626 -1.01277E-02 1.00745E-04-4.44314E-04-6.79277E-03 5.78655E-05-5.59346E-05-1.76444E-03-3.01248E-04 1.56564E-04



 n o d a l   p r i n t   o u t   f o r   t i m e  s t e p   11402                              ( at time 5.6999296E+00 )

 nodal point  x-disp     y-disp      z-disp      x-vel       y-vel       z-vel      x-accl      y-accl      z-accl      x-coor      y-coor      z-coor
    22626 -3.58256E-02 1.71846E+00-4.12715E-01-8.19832E-03 1.15134E+00-2.19096E-02 1.51429E-02 3.84635E-01 1.14450E-01 4.62355E+00-2.64724E+01-4.53944E+01



 n o d a l   p r i n t   o u t   f o r   t i m e  s t e p   11402                              ( at time 5.6999296E+00 )

 nodal point  x-rot      y-rot       z-rot       x-rot vel   y-rot vel   z-rot vel   x-rot acc   y-rot acc   z-rot acc
    22626 -1.08166E-02 1.07747E-04-4.48663E-04-6.97532E-03 9.21974E-05-2.42110E-05-1.82560E-03 3.43352E-04 3.17267E-04



 n o d a l   p r i n t   o u t   f o r   t i m e  s t e p   11602                              ( at time 5.7999195E+00 )

 nodal point  x-disp     y-disp      z-disp      x-vel       y-vel       z-vel      x-accl      y-accl      z-accl      x-coor      y-coor      z-coor
    22626 -3.65622E-02 1.83552E+00-4.14289E-01-6.85886E-03 1.19003E+00-1.00088E-02 1.33960E-02 3.86860E-01 1.19020E-01 4.62281E+00-2.63553E+01-4.53960E+01



 n o d a l   p r i n t   o u t   f o r   t i m e  s t e p   11602                              ( at time 5.7999195E+00 )

 nodal point  x-rot      y-rot       z-rot       x-rot vel   y-rot vel   z-rot vel   x-rot acc   y-rot acc   z-rot acc
    22626 -1.15228E-02 1.17279E-04-4.50036E-04-7.13791E-03 1.04873E-04-3.99841E-06-1.62607E-03 1.26771E-04 2.02146E-04



 n o d a l   p r i n t   o u t   f o r   t i m e  s t e p   11802                              ( at time 5.8999095E+00 )

 nodal point  x-disp     y-disp      z-disp      x-vel       y-vel       z-vel      x-accl      y-accl      z-accl      x-coor      y-coor      z-coor
    22626 -3.72084E-02 1.95631E+00-4.14762E-01-6.64471E-03 1.22573E+00 6.61716E-04 2.14171E-03 3.57044E-01 1.06716E-01 4.62217E+00-2.62345E+01-4.53965E+01



 n o d a l   p r i n t   o u t   f o r   t i m e  s t e p   11802                              ( at time 5.8999095E+00 )

 nodal point  x-rot      y-rot       z-rot       x-rot vel   y-rot vel   z-rot vel   x-rot acc   y-rot acc   z-rot acc
    22626 -1.22440E-02 1.26613E-04-4.49981E-04-7.29196E-03 9.32588E-05 1.14006E-05-1.54074E-03-1.16155E-04 1.54006E-04



 n o d a l   p r i n t   o u t   f o r   t i m e  s t e p   12002                              ( at time 5.9998995E+00 )

 nodal point  x-disp     y-disp      z-disp      x-vel       y-vel       z-vel      x-accl      y-accl      z-accl      x-coor      y-coor      z-coor
    22626 -3.78371E-02 2.08066E+00-4.14074E-01-6.36386E-03 1.26124E+00 1.31686E-02 2.80874E-03 3.55120E-01 1.25081E-01 4.62154E+00-2.61102E+01-4.53958E+01



 n o d a l   p r i n t   o u t   f o r   t i m e  s t e p   12002                              ( at time 5.9998995E+00 )

 nodal point  x-rot      y-rot       z-rot       x-rot vel   y-rot vel   z-rot vel   x-rot acc   y-rot acc   z-rot acc
    22626 -1.29797E-02 1.35700E-04-4.48111E-04-7.42813E-03 1.05178E-04 1.85338E-05-1.36176E-03 1.19208E-04 7.13391E-05



 n o d a l   p r i n t   o u t   f o r   t i m e  s t e p   12202                              ( at time 6.0998895E+00 )

 nodal point  x-disp     y-disp      z-disp      x-vel       y-vel       z-vel      x-accl      y-accl      z-accl      x-coor      y-coor      z-coor
    22626 -3.84927E-02 2.20853E+00-4.12015E-01-5.94209E-03 1.29568E+00 2.85518E-02 4.21811E-03 3.44459E-01 1.53847E-01 4.62088E+00-2.59823E+01-4.53937E+01



 n o d a l   p r i n t   o u t   f o r   t i m e  s t e p   12202                              ( at time 6.0998895E+00 )

 nodal point  x-rot      y-rot       z-rot       x-rot vel   y-rot vel   z-rot vel   x-rot acc   y-rot acc   z-rot acc
    22626 -1.37292E-02 1.47748E-04-4.44787E-04-7.55131E-03 1.20992E-04 4.12321E-05-1.23197E-03 1.58151E-04 2.27005E-04



 n o d a l   p r i n t   o u t   f o r   t i m e  s t e p   12402                              ( at time 6.1998795E+00 )

 nodal point  x-disp     y-disp      z-disp      x-vel       y-vel       z-vel      x-accl      y-accl      z-accl      x-coor      y-coor      z-coor
    22626 -3.90372E-02 2.33972E+00-4.08392E-01-5.95943E-03 1.32791E+00 4.39024E-02-1.73448E-04 3.22367E-01 1.53522E-01 4.62034E+00-2.58511E+01-4.53901E+01



 n o d a l   p r i n t   o u t   f o r   t i m e  s t e p   12402                              ( at time 6.1998795E+00 )

 nodal point  x-rot      y-rot       z-rot       x-rot vel   y-rot vel   z-rot vel   x-rot acc   y-rot acc   z-rot acc
    22626 -1.44900E-02 1.62028E-04-4.39679E-04-7.65945E-03 1.48631E-04 5.70200E-05-1.08152E-03 2.76421E-04 1.57895E-04



 n o d a l   p r i n t   o u t   f o r   t i m e  s t e p   12602                              ( at time 6.2998695E+00 )

 nodal point  x-disp     y-disp      z-disp      x-vel       y-vel       z-vel      x-accl      y-accl      z-accl      x-coor      y-coor      z-coor
    22626 -3.97561E-02 2.47404E+00-4.03300E-01-7.75283E-03 1.35828E+00 5.84884E-02-1.79358E-02 3.03704E-01 1.45875E-01 4.61962E+00-2.57168E+01-4.53850E+01



 n o d a l   p r i n t   o u t   f o r   t i m e  s t e p   12602                              ( at time 6.2998695E+00 )

 nodal point  x-rot      y-rot       z-rot       x-rot vel   y-rot vel   z-rot vel   x-rot acc   y-rot acc   z-rot acc
    22626 -1.52610E-02 1.76352E-04-4.34772E-04-7.75414E-03 1.39035E-04 3.38642E-05-9.46967E-04-9.59751E-05-2.31582E-04



 n o d a l   p r i n t   o u t   f o r   t i m e  s t e p   12802                              ( at time 6.3998595E+00 )

 nodal point  x-disp     y-disp      z-disp      x-vel       y-vel       z-vel      x-accl      y-accl      z-accl      x-coor      y-coor      z-coor
    22626 -4.06115E-02 2.61144E+00-3.96520E-01-8.19387E-03 1.38800E+00 7.72983E-02-4.41081E-03 2.97219E-01 1.88118E-01 4.61876E+00-2.55794E+01-4.53782E+01



 n o d a l   p r i n t   o u t   f o r   t i m e  s t e p   12802                              ( at time 6.3998595E+00 )

 nodal point  x-rot      y-rot       z-rot       x-rot vel   y-rot vel   z-rot vel   x-rot acc   y-rot acc   z-rot acc
    22626 -1.60406E-02 1.91013E-04-4.32095E-04-7.82691E-03 1.68005E-04 2.91104E-05-7.27818E-04 2.89736E-04-4.75426E-05



 n o d a l   p r i n t   o u t   f o r   t i m e  s t e p   13002                              ( at time 6.4998495E+00 )

 nodal point  x-disp     y-disp      z-disp      x-vel       y-vel       z-vel      x-accl      y-accl      z-accl      x-coor      y-coor      z-coor
    22626 -4.13293E-02 2.75158E+00-3.87821E-01-6.99881E-03 1.41606E+00 9.65399E-02 1.19518E-02 2.80605E-01 1.92436E-01 4.61805E+00-2.54393E+01-4.53695E+01



 n o d a l   p r i n t   o u t   f o r   t i m e  s t e p   13002                              ( at time 6.4998495E+00 )

 nodal point  x-rot      y-rot       z-rot       x-rot vel   y-rot vel   z-rot vel   x-rot acc   y-rot acc   z-rot acc
    22626 -1.68259E-02 2.09110E-04-4.27619E-04-7.88493E-03 1.72168E-04 4.67316E-05-5.80198E-04 4.16281E-05 1.76230E-04



 n o d a l   p r i n t   o u t   f o r   t i m e  s t e p   13202                              ( at time 6.5998395E+00 )

 nodal point  x-disp     y-disp      z-disp      x-vel       y-vel       z-vel      x-accl      y-accl      z-accl      x-coor      y-coor      z-coor
    22626 -4.20258E-02 2.89443E+00-3.77103E-01-6.70043E-03 1.44168E+00 1.17802E-01 2.98414E-03 2.56314E-01 2.12641E-01 4.61735E+00-2.52964E+01-4.53588E+01



 n o d a l   p r i n t   o u t   f o r   t i m e  s t e p   13202                              ( at time 6.5998395E+00 )

 nodal point  x-rot      y-rot       z-rot       x-rot vel   y-rot vel   z-rot vel   x-rot acc   y-rot acc   z-rot acc
    22626 -1.76165E-02 2.24328E-04-4.23816E-04-7.94030E-03 1.41713E-04 1.28892E-05-5.53771E-04-3.04578E-04-3.38457E-04



 n o d a l   p r i n t   o u t   f o r   t i m e  s t e p   13402                              ( at time 6.6998295E+00 )

 nodal point  x-disp     y-disp      z-disp      x-vel       y-vel       z-vel      x-accl      y-accl      z-accl      x-coor      y-coor      z-coor
    22626 -4.28044E-02 3.03985E+00-3.64282E-01-8.41660E-03 1.46642E+00 1.37797E-01-1.71634E-02 2.47364E-01 1.99970E-01 4.61657E+00-2.51510E+01-4.53460E+01



 n o d a l   p r i n t   o u t   f o r   t i m e  s t e p   13402                              ( at time 6.6998295E+00 )

 nodal point  x-rot      y-rot       z-rot       x-rot vel   y-rot vel   z-rot vel   x-rot acc   y-rot acc   z-rot acc
    22626 -1.84114E-02 2.40533E-04-4.21483E-04-7.96804E-03 1.77227E-04 2.83062E-05-2.77488E-04 3.55179E-04 1.54186E-04



 n o d a l   p r i n t   o u t   f o r   t i m e  s t e p   13602                              ( at time 6.7998195E+00 )

 nodal point  x-disp     y-disp      z-disp      x-vel       y-vel       z-vel      x-accl      y-accl      z-accl      x-coor      y-coor      z-coor
    22626 -4.35362E-02 3.18768E+00-3.49433E-01-6.54674E-03 1.48986E+00 1.58599E-01 1.87005E-02 2.34387E-01 2.08039E-01 4.61584E+00-2.50032E+01-4.53312E+01



 n o d a l   p r i n t   o u t   f o r   t i m e  s t e p   13602                              ( at time 6.7998195E+00 )

 nodal point  x-rot      y-rot       z-rot       x-rot vel   y-rot vel   z-rot vel   x-rot acc   y-rot acc   z-rot acc
    22626 -1.92089E-02 2.58040E-04-4.18432E-04-8.00000E-03 1.53507E-04 1.54159E-05-3.19606E-04-2.37222E-04-1.28916E-04



 n o d a l   p r i n t   o u t   f o r   t i m e  s t e p   13802                              ( at time 6.8998095E+00 )

 nodal point  x-disp     y-disp      z-disp      x-vel       y-vel       z-vel      x-accl      y-accl      z-accl      x-coor      y-coor      z-coor
    22626 -4.42340E-02 3.33785E+00-3.32468E-01-7.27654E-03 1.51241E+00 1.80986E-01-7.29876E-03 2.25566E-01 2.23899E-01 4.61514E+00-2.48530E+01-4.53142E+01



 n o d a l   p r i n t   o u t   f o r   t i m e  s t e p   13802                              ( at time 6.8998095E+00 )

 nodal point  x-rot      y-rot       z-rot       x-rot vel   y-rot vel   z-rot vel   x-rot acc   y-rot acc   z-rot acc
    22626 -2.00081E-02 2.74075E-04-4.15537E-04-7.99174E-03 1.72755E-04 2.32831E-05 8.26074E-05 1.92498E-04 7.86800E-05



 n o d a l   p r i n t   o u t   f o r   t i m e  s t e p   14002                              ( at time 6.9997995E+00 )

 nodal point  x-disp     y-disp      z-disp      x-vel       y-vel       z-vel      x-accl      y-accl      z-accl      x-coor      y-coor      z-coor
    22626 -4.49553E-02 3.49017E+00-3.13137E-01-6.53005E-03 1.53456E+00 2.05430E-01 7.46569E-03 2.21555E-01 2.44462E-01 4.61442E+00-2.47007E+01-4.52949E+01



 n o d a l   p r i n t   o u t   f o r   t i m e  s t e p   14002                              ( at time 6.9997995E+00 )

 nodal point  x-rot      y-rot       z-rot       x-rot vel   y-rot vel   z-rot vel   x-rot acc   y-rot acc   z-rot acc
    22626 -2.08066E-02 2.89920E-04-4.13599E-04-7.98628E-03 1.49057E-04 8.10946E-06 5.46276E-05-2.37009E-04-1.51752E-04



 n o d a l   p r i n t   o u t   f o r   t i m e  s t e p   14202                              ( at time 7.0997895E+00 )

 nodal point  x-disp     y-disp      z-disp      x-vel       y-vel       z-vel      x-accl      y-accl      z-accl      x-coor      y-coor      z-coor
    22626 -4.55670E-02 3.64471E+00-2.91331E-01-6.14739E-03 1.55619E+00 2.30456E-01 3.82700E-03 2.16293E-01 2.50284E-01 4.61381E+00-2.45461E+01-4.52731E+01



 n o d a l   p r i n t   o u t   f o r   t i m e  s t e p   14202                              ( at time 7.0997895E+00 )

 nodal point  x-rot      y-rot       z-rot       x-rot vel   y-rot vel   z-rot vel   x-rot acc   y-rot acc   z-rot acc
    22626 -2.16043E-02 3.04036E-04-4.13458E-04-7.96124E-03 1.46940E-04 1.38569E-05 2.50447E-04-2.11703E-05 5.74801E-05



 n o d a l   p r i n t   o u t   f o r   t i m e  s t e p   14402                              ( at time 7.1997794E+00 )

 nodal point  x-disp     y-disp      z-disp      x-vel       y-vel       z-vel      x-accl      y-accl      z-accl      x-coor      y-coor      z-coor
    22626 -4.61312E-02 3.80130E+00-2.67037E-01-5.25050E-03 1.57500E+00 2.54982E-01 8.96979E-03 1.88122E-01 2.45282E-01 4.61324E+00-2.43895E+01-4.52488E+01



 n o d a l   p r i n t   o u t   f o r   t i m e  s t e p   14402                              ( at time 7.1997794E+00 )

 nodal point  x-rot      y-rot       z-rot       x-rot vel   y-rot vel   z-rot vel   x-rot acc   y-rot acc   z-rot acc
    22626 -2.23977E-02 3.19040E-04-4.11900E-04-7.90940E-03 1.39923E-04 1.08606E-05 5.18427E-04-7.01779E-05-2.99658E-05



 n o d a l   p r i n t   o u t   f o r   t i m e  s t e p   14602                              ( at time 7.2997694E+00 )

 nodal point  x-disp     y-disp      z-disp      x-vel       y-vel       z-vel      x-accl      y-accl      z-accl      x-coor      y-coor      z-coor
    22626 -4.66256E-02 3.95973E+00-2.40218E-01-5.43282E-03 1.59315E+00 2.81468E-01-1.82337E-03 1.81530E-01 2.64886E-01 4.61275E+00-2.42311E+01-4.52219E+01



 n o d a l   p r i n t   o u t   f o r   t i m e  s t e p   14602                              ( at time 7.2997694E+00 )

 nodal point  x-rot      y-rot       z-rot       x-rot vel   y-rot vel   z-rot vel   x-rot acc   y-rot acc   z-rot acc
    22626 -2.31867E-02 3.32112E-04-4.12415E-04-7.88437E-03 1.29949E-04 1.62813E-06 2.50337E-04-9.97523E-05-9.23343E-05



 n o d a l   p r i n t   o u t   f o r   t i m e  s t e p   14802                              ( at time 7.3997594E+00 )

 nodal point  x-disp     y-disp      z-disp      x-vel       y-vel       z-vel      x-accl      y-accl      z-accl      x-coor      y-coor      z-coor
    22626 -4.72059E-02 4.11983E+00-2.10456E-01-5.31326E-03 1.60847E+00 3.13489E-01 1.19572E-03 1.53216E-01 3.20240E-01 4.61217E+00-2.40710E+01-4.51922E+01



 n o d a l   p r i n t   o u t   f o r   t i m e  s t e p   14802                              ( at time 7.3997594E+00 )

 nodal point  x-rot      y-rot       z-rot       x-rot vel   y-rot vel   z-rot vel   x-rot acc   y-rot acc   z-rot acc
    22626 -2.39718E-02 3.45283E-04-4.13824E-04-7.83262E-03 1.36425E-04-1.24993E-05 5.17579E-04 6.47691E-05-1.41288E-04



 n o d a l   p r i n t   o u t   f o r   t i m e  s t e p   15002                              ( at time 7.4997494E+00 )

 nodal point  x-disp     y-disp      z-disp      x-vel       y-vel       z-vel      x-accl      y-accl      z-accl      x-coor      y-coor      z-coor
    22626 -4.77330E-02 4.28141E+00-1.77634E-01-4.40334E-03 1.62341E+00 3.43296E-01 9.10003E-03 1.49397E-01 2.98107E-01 4.61164E+00-2.39094E+01-4.51594E+01



 n o d a l   p r i n t   o u t   f o r   t i m e  s t e p   15002                              ( at time 7.4997494E+00 )

 nodal point  x-rot      y-rot       z-rot       x-rot vel   y-rot vel   z-rot vel   x-rot acc   y-rot acc   z-rot acc
    22626 -2.47521E-02 3.58489E-04-4.16072E-04-7.78150E-03 1.37814E-04-3.58467E-05 5.11206E-04 1.38978E-05-2.33497E-04



 n o d a l   p r i n t   o u t   f o r   t i m e  s t e p   15202                              ( at time 7.5997394E+00 )

 nodal point  x-disp     y-disp      z-disp      x-vel       y-vel       z-vel      x-accl      y-accl      z-accl      x-coor      y-coor      z-coor
    22626 -4.82077E-02 4.44437E+00-1.41745E-01-5.78072E-03 1.63669E+00 3.74854E-01-1.37752E-02 1.32807E-01 3.15609E-01 4.61117E+00-2.37465E+01-4.51235E+01



 n o d a l   p r i n t   o u t   f o r   t i m e  s t e p   15202                              ( at time 7.5997394E+00 )

 nodal point  x-rot      y-rot       z-rot       x-rot vel   y-rot vel   z-rot vel   x-rot acc   y-rot acc   z-rot acc
    22626 -2.55281E-02 3.71504E-04-4.20120E-04-7.74184E-03 1.21812E-04-4.54293E-05 3.96662E-04-1.60038E-04-9.58354E-05



 n o d a l   p r i n t   o u t   f o r   t i m e  s t e p   15402                              ( at time 7.6997294E+00 )

 nodal point  x-disp     y-disp      z-disp      x-vel       y-vel       z-vel      x-accl      y-accl      z-accl      x-coor      y-coor      z-coor
    22626 -4.87175E-02 4.60863E+00-1.02644E-01-5.24203E-03 1.64861E+00 4.07557E-01 5.38752E-03 1.19189E-01 3.27060E-01 4.61066E+00-2.35822E+01-4.50844E+01



 n o d a l   p r i n t   o u t   f o r   t i m e  s t e p   15402                              ( at time 7.6997294E+00 )

 nodal point  x-rot      y-rot       z-rot       x-rot vel   y-rot vel   z-rot vel   x-rot acc   y-rot acc   z-rot acc
    22626 -2.62975E-02 3.81744E-04-4.27595E-04-7.67455E-03 9.35899E-05-8.33392E-05 6.72930E-04-2.82253E-04-3.79138E-04



 n o d a l   p r i n t   o u t   f o r   t i m e  s t e p   15602                              ( at time 7.7997194E+00 )

 nodal point  x-disp     y-disp      z-disp      x-vel       y-vel       z-vel      x-accl      y-accl      z-accl      x-coor      y-coor      z-coor
    22626 -4.92773E-02 4.77400E+00-6.01687E-02-5.74248E-03 1.65934E+00 4.42149E-01-5.00509E-03 1.07371E-01 3.45955E-01 4.61010E+00-2.34168E+01-4.50419E+01



 n o d a l   p r i n t   o u t   f o r   t i m e  s t e p   15602                              ( at time 7.7997194E+00 )

 nodal point  x-rot      y-rot       z-rot       x-rot vel   y-rot vel   z-rot vel   x-rot acc   y-rot acc   z-rot acc
    22626 -2.70630E-02 3.91146E-04-4.36231E-04-7.65621E-03 1.17462E-04-9.14048E-05 1.83401E-04 2.38750E-04-8.06643E-05



 n o d a l   p r i n t   o u t   f o r   t i m e  s t e p   15802                              ( at time 7.8997094E+00 )

 nodal point  x-disp     y-disp      z-disp      x-vel       y-vel       z-vel      x-accl      y-accl      z-accl      x-coor      y-coor      z-coor
    22626 -4.98237E-02 4.94036E+00-1.40302E-02-5.99469E-03 1.66736E+00 4.80354E-01-2.52227E-03 8.01811E-02 3.82093E-01 4.60955E+00-2.32505E+01-4.49958E+01



 n o d a l   p r i n t   o u t   f o r   t i m e  s t e p   15802                              ( at time 7.8997094E+00 )

 nodal point  x-rot      y-rot       z-rot       x-rot vel   y-rot vel   z-rot vel   x-rot acc   y-rot acc   z-rot acc
    22626 -2.78245E-02 4.00281E-04-4.48070E-04-7.59985E-03 7.04585E-05-1.35353E-04 5.63731E-04-4.70088E-04-4.39526E-04



 n o d a l   p r i n t   o u t   f o r   t i m e  s t e p   16002                              ( at time 7.9996994E+00 )

 nodal point  x-disp     y-disp      z-disp      x-vel       y-vel       z-vel      x-accl      y-accl      z-accl      x-coor      y-coor      z-coor
    22626 -5.04683E-02 5.10747E+00 3.59862E-02-7.80050E-03 1.67546E+00 5.18584E-01-1.80599E-02 8.10117E-02 3.82332E-01 4.60891E+00-2.30834E+01-4.49457E+01



 n o d a l   p r i n t   o u t   f o r   t i m e  s t e p   16002                              ( at time 7.9996994E+00 )

 nodal point  x-rot      y-rot       z-rot       x-rot vel   y-rot vel   z-rot vel   x-rot acc   y-rot acc   z-rot acc
    22626 -2.85809E-02 4.06402E-04-4.63639E-04-7.55987E-03 5.22828E-05-1.77439E-04 3.99790E-04-1.81774E-04-4.20899E-04



 n o d a l   p r i n t   o u t   f o r   t i m e  s t e p   16202                              ( at time 8.0996894E+00 )

 nodal point  x-disp     y-disp      z-disp      x-vel       y-vel       z-vel      x-accl      y-accl      z-accl      x-coor      y-coor      z-coor
    22626 -5.13172E-02 5.27527E+00 8.97991E-02-8.00864E-03 1.68004E+00 5.58842E-01-2.08165E-03 4.57572E-02 4.02624E-01 4.60806E+00-2.29156E+01-4.48919E+01



 n o d a l   p r i n t   o u t   f o r   t i m e  s t e p   16202                              ( at time 8.0996894E+00 )

 nodal point  x-rot      y-rot       z-rot       x-rot vel   y-rot vel   z-rot vel   x-rot acc   y-rot acc   z-rot acc
    22626 -2.93355E-02 4.10503E-04-4.82529E-04-7.51695E-03 4.37505E-05-2.09976E-04 4.29285E-04-8.53323E-05-3.25405E-04



 n o d a l   p r i n t   o u t   f o r   t i m e  s t e p   16402                              ( at time 8.1996794E+00 )

 nodal point  x-disp     y-disp      z-disp      x-vel       y-vel       z-vel      x-accl      y-accl      z-accl      x-coor      y-coor      z-coor
    22626 -5.22241E-02 5.44349E+00 1.47725E-01-9.48796E-03 1.68480E+00 5.99420E-01-1.47947E-02 4.76575E-02 4.05823E-01 4.60715E+00-2.27473E+01-4.48340E+01



 n o d a l   p r i n t   o u t   f o r   t i m e  s t e p   16402                              ( at time 8.1996794E+00 )

 nodal point  x-rot      y-rot       z-rot       x-rot vel   y-rot vel   z-rot vel   x-rot acc   y-rot acc   z-rot acc
    22626 -3.00859E-02 4.13844E-04-5.05308E-04-7.49155E-03 2.24518E-05-2.40785E-04 2.53988E-04-2.13008E-04-3.08124E-04



 n o d a l   p r i n t   o u t   f o r   t i m e  s t e p   16602                              ( at time 8.2996694E+00 )

 nodal point  x-disp     y-disp      z-disp      x-vel       y-vel       z-vel      x-accl      y-accl      z-accl      x-coor      y-coor      z-coor
    22626 -5.31462E-02 5.61210E+00 2.09787E-01-1.03706E-02 1.68802E+00 6.41200E-01-8.82694E-03 3.21826E-02 4.17841E-01 4.60623E+00-2.25787E+01-4.47719E+01



 n o d a l   p r i n t   o u t   f o r   t i m e  s t e p   16602                              ( at time 8.2996694E+00 )

 nodal point  x-rot      y-rot       z-rot       x-rot vel   y-rot vel   z-rot vel   x-rot acc   y-rot acc   z-rot acc
    22626 -3.08321E-02 4.14856E-04-5.31060E-04-7.43768E-03-5.90536E-07-2.70160E-04 5.38792E-04-2.30447E-04-2.93779E-04



 n o d a l   p r i n t   o u t   f o r   t i m e  s t e p   16802                              ( at time 8.3996594E+00 )

 nodal point  x-disp     y-disp      z-disp      x-vel       y-vel       z-vel      x-accl      y-accl      z-accl      x-coor      y-coor      z-coor
    22626 -5.42222E-02 5.78132E+00 2.75922E-01-1.02237E-02 1.69460E+00 6.81119E-01 1.46909E-03 6.57863E-02 3.99228E-01 4.60515E+00-2.24095E+01-4.47058E+01



 n o d a l   p r i n t   o u t   f o r   t i m e  s t e p   16802                              ( at time 8.3996594E+00 )

 nodal point  x-rot      y-rot       z-rot       x-rot vel   y-rot vel   z-rot vel   x-rot acc   y-rot acc   z-rot acc
    22626 -3.15725E-02 4.13962E-04-5.59431E-04-7.38147E-03-1.78994E-05-2.90395E-04 5.62138E-04-1.73106E-04-2.02365E-04



 n o d a l   p r i n t   o u t   f o r   t i m e  s t e p   17002                              ( at time 8.4996494E+00 )

 nodal point  x-disp     y-disp      z-disp      x-vel       y-vel       z-vel      x-accl      y-accl      z-accl      x-coor      y-coor      z-coor
    22626 -5.51788E-02 5.95083E+00 3.46182E-01-9.65875E-03 1.69730E+00 7.22945E-01 5.64983E-03 2.70549E-02 4.18300E-01 4.60420E+00-2.22400E+01-4.46355E+01



 n o d a l   p r i n t   o u t   f o r   t i m e  s t e p   17002                              ( at time 8.4996494E+00 )

 nodal point  x-rot      y-rot       z-rot       x-rot vel   y-rot vel   z-rot vel   x-rot acc   y-rot acc   z-rot acc
    22626 -3.23075E-02 4.11486E-04-5.89268E-04-7.33298E-03-3.40551E-05-3.11881E-04 4.84937E-04-1.61573E-04-2.14888E-04



 n o d a l   p r i n t   o u t   f o r   t i m e  s t e p   17202                              ( at time 8.5996394E+00 )

 nodal point  x-disp     y-disp      z-disp      x-vel       y-vel       z-vel      x-accl      y-accl      z-accl      x-coor      y-coor      z-coor
    22626 -5.62273E-02 6.12096E+00 4.20447E-01-1.10474E-02 1.70395E+00 7.62917E-01-1.38876E-02 6.65040E-02 3.99765E-01 4.60315E+00-2.20699E+01-4.45613E+01



 n o d a l   p r i n t   o u t   f o r   t i m e  s t e p   17202                              ( at time 8.5996394E+00 )

 nodal point  x-rot      y-rot       z-rot       x-rot vel   y-rot vel   z-rot vel   x-rot acc   y-rot acc   z-rot acc
    22626 -3.30372E-02 4.08149E-04-6.22527E-04-7.25095E-03-4.73904E-05-3.57969E-04 8.20359E-04-1.33367E-04-4.60928E-04



 n o d a l   p r i n t   o u t   f o r   t i m e  s t e p   17402                              ( at time 8.6996293E+00 )

 nodal point  x-disp     y-disp      z-disp      x-vel       y-vel       z-vel      x-accl      y-accl      z-accl      x-coor      y-coor      z-coor
    22626 -5.73514E-02 6.29156E+00 4.98884E-01-1.12963E-02 1.70899E+00 8.06186E-01-2.48978E-03 5.03538E-02 4.32729E-01 4.60202E+00-2.18993E+01-4.44828E+01



 n o d a l   p r i n t   o u t   f o r   t i m e  s t e p   17402                              ( at time 8.6996293E+00 )

 nodal point  x-rot      y-rot       z-rot       x-rot vel   y-rot vel   z-rot vel   x-rot acc   y-rot acc   z-rot acc
    22626 -3.37606E-02 4.02427E-04-6.57972E-04-7.21485E-03-5.37063E-05-3.52407E-04 3.61093E-04-6.31647E-05 5.56283E-05



 n o d a l   p r i n t   o u t   f o r   t i m e  s t e p   17602                              ( at time 8.7996193E+00 )

 nodal point  x-disp     y-disp      z-disp      x-vel       y-vel       z-vel      x-accl      y-accl      z-accl      x-coor      y-coor      z-coor
    22626 -5.85723E-02 6.46253E+00 5.81675E-01-1.26443E-02 1.71076E+00 8.49072E-01-1.34809E-02 1.77735E-02 4.28905E-01 4.60080E+00-2.17283E+01-4.44000E+01



 n o d a l   p r i n t   o u t   f o r   t i m e  s t e p   17602                              ( at time 8.7996193E+00 )

 nodal point  x-rot      y-rot       z-rot       x-rot vel   y-rot vel   z-rot vel   x-rot acc   y-rot acc   z-rot acc
    22626 -3.44797E-02 3.95886E-04-6.94318E-04-7.15352E-03-7.53208E-05-3.84188E-04 6.13338E-04-2.16167E-04-3.17844E-04



 n o d a l   p r i n t   o u t   f o r   t i m e  s t e p   17802                              ( at time 8.8996093E+00 )

 nodal point  x-disp     y-disp      z-disp      x-vel       y-vel       z-vel      x-accl      y-accl      z-accl      x-coor      y-coor      z-coor
    22626 -5.98527E-02 6.63389E+00 6.68671E-01-1.34955E-02 1.71589E+00 8.91497E-01-8.51351E-03 5.12234E-02 4.24296E-01 4.59952E+00-2.15569E+01-4.43130E+01



 n o d a l   p r i n t   o u t   f o r   t i m e  s t e p   17802                              ( at time 8.8996093E+00 )

 nodal point  x-rot      y-rot       z-rot       x-rot vel   y-rot vel   z-rot vel   x-rot acc   y-rot acc   z-rot acc
    22626 -3.51924E-02 3.88912E-04-7.34392E-04-7.10242E-03-7.06483E-05-4.12968E-04 5.11022E-04 4.67300E-05-2.87823E-04



 n o d a l   p r i n t   o u t   f o r   t i m e  s t e p   18002                              ( at time 8.9995993E+00 )

 nodal point  x-disp     y-disp      z-disp      x-vel       y-vel       z-vel      x-accl      y-accl      z-accl      x-coor      y-coor      z-coor
    22626 -6.12690E-02 6.80543E+00 7.60107E-01-1.45838E-02 1.71639E+00 9.36764E-01-1.08841E-02 5.08479E-03 4.52713E-01 4.59811E+00-2.13854E+01-4.42216E+01



 n o d a l   p r i n t   o u t   f o r   t i m e  s t e p   18002                              ( at time 8.9995993E+00 )

 nodal point  x-rot      y-rot       z-rot       x-rot vel   y-rot vel   z-rot vel   x-rot acc   y-rot acc   z-rot acc
    22626 -3.58998E-02 3.80108E-04-7.76635E-04-7.06667E-03-1.03147E-04-4.28675E-04 3.57552E-04-3.25021E-04-1.57088E-04



 n o d a l   p r i n t   o u t   f o r   t i m e  s t e p   18202                              ( at time 9.0995893E+00 )

 nodal point  x-disp     y-disp      z-disp      x-vel       y-vel       z-vel      x-accl      y-accl      z-accl      x-coor      y-coor      z-coor
    22626 -6.28450E-02 6.97708E+00 8.56057E-01-1.63913E-02 1.71604E+00 9.82942E-01-1.80761E-02-3.51703E-03 4.61827E-01 4.59653E+00-2.12138E+01-4.41257E+01



 n o d a l   p r i n t   o u t   f o r   t i m e  s t e p   18202                              ( at time 9.0995893E+00 )

 nodal point  x-rot      y-rot       z-rot       x-rot vel   y-rot vel   z-rot vel   x-rot acc   y-rot acc   z-rot acc
    22626 -3.66055E-02 3.67889E-04-8.23255E-04-7.04401E-03-1.38708E-04-4.88642E-04 2.26646E-04-3.55649E-04-5.99729E-04



 n o d a l   p r i n t   o u t   f o r   t i m e  s t e p   18402                              ( at time 9.1995793E+00 )

 nodal point  x-disp     y-disp      z-disp      x-vel       y-vel       z-vel      x-accl      y-accl      z-accl      x-coor      y-coor      z-coor
    22626 -6.44551E-02 7.14874E+00 9.56643E-01-1.67587E-02 1.71743E+00 1.02999E+00-3.67448E-03 1.38762E-02 4.70553E-01 4.59492E+00-2.10421E+01-4.40251E+01



 n o d a l   p r i n t   o u t   f o r   t i m e  s t e p   18402                              ( at time 9.1995793E+00 )

 nodal point  x-rot      y-rot       z-rot       x-rot vel   y-rot vel   z-rot vel   x-rot acc   y-rot acc   z-rot acc
    22626 -3.73093E-02 3.53264E-04-8.74762E-04-7.01554E-03-1.60419E-04-5.30093E-04 2.84692E-04-2.17132E-04-4.14554E-04



 n o d a l   p r i n t   o u t   f o r   t i m e  s t e p   18602                              ( at time 9.2995693E+00 )

 nodal point  x-disp     y-disp      z-disp      x-vel       y-vel       z-vel      x-accl      y-accl      z-accl      x-coor      y-coor      z-coor
    22626 -6.62144E-02 7.32036E+00 1.06200E+00-1.73643E-02 1.71582E+00 1.07810E+00-6.05674E-03-1.60567E-02 4.81136E-01 4.59316E+00-2.08705E+01-4.39197E+01



 n o d a l   p r i n t   o u t   f o r   t i m e  s t e p   18602                              ( at time 9.2995693E+00 )

 nodal point  x-rot      y-rot       z-rot       x-rot vel   y-rot vel   z-rot vel   x-rot acc   y-rot acc   z-rot acc
    22626 -3.80108E-02 3.34052E-04-9.30744E-04-6.99068E-03-2.26084E-04-6.01381E-04 2.48688E-04-6.56714E-04-7.12954E-04



 n o d a l   p r i n t   o u t   f o r   t i m e  s t e p   18802                              ( at time 9.3995593E+00 )

 nodal point  x-disp     y-disp      z-disp      x-vel       y-vel       z-vel      x-accl      y-accl      z-accl      x-coor      y-coor      z-coor
    22626 -6.80098E-02 7.49197E+00 1.17209E+00-1.84759E-02 1.71677E+00 1.12397E+00-1.11177E-02 9.43041E-03 4.58746E-01 4.59137E+00-2.06989E+01-4.38096E+01



 n o d a l   p r i n t   o u t   f o r   t i m e  s t e p   18802                              ( at time 9.3995593E+00 )

 nodal point  x-rot      y-rot       z-rot       x-rot vel   y-rot vel   z-rot vel   x-rot acc   y-rot acc   z-rot acc
    22626 -3.87108E-02 3.10032E-04-9.93020E-04-7.00807E-03-2.49120E-04-6.41363E-04-1.73928E-04-2.30377E-04-3.99864E-04



 n o d a l   p r i n t   o u t   f o r   t i m e  s t e p   19002                              ( at time 9.4995493E+00 )

 nodal point  x-disp     y-disp      z-disp      x-vel       y-vel       z-vel      x-accl      y-accl      z-accl      x-coor      y-coor      z-coor
    22626 -6.98757E-02 7.66345E+00 1.28690E+00-1.95275E-02 1.71421E+00 1.17223E+00-1.05171E-02-2.55527E-02 4.82613E-01 4.58950E+00-2.05274E+01-4.36948E+01



 n o d a l   p r i n t   o u t   f o r   t i m e  s t e p   19002                              ( at time 9.4995493E+00 )

 nodal point  x-rot      y-rot       z-rot       x-rot vel   y-rot vel   z-rot vel   x-rot acc   y-rot acc   z-rot acc
    22626 -3.94124E-02 2.83811E-04-1.05849E-03-7.02482E-03-2.91807E-04-6.79075E-04-1.67562E-04-4.26919E-04-3.77160E-04



 n o d a l   p r i n t   o u t   f o r   t i m e  s t e p   19202                              ( at time 9.5995393E+00 )

 nodal point  x-disp     y-disp      z-disp      x-vel       y-vel       z-vel      x-accl      y-accl      z-accl      x-coor      y-coor      z-coor
    22626 -7.20047E-02 7.83487E+00 1.40650E+00-2.29219E-02 1.71254E+00 1.21956E+00-3.39463E-02-1.67039E-02 4.73384E-01 4.58737E+00-2.03560E+01-4.35752E+01



 n o d a l   p r i n t   o u t   f o r   t i m e  s t e p   19202                              ( at time 9.5995393E+00 )

 nodal point  x-rot      y-rot       z-rot       x-rot vel   y-rot vel   z-rot vel   x-rot acc   y-rot acc   z-rot acc
    22626 -4.01150E-02 2.53820E-04-1.12899E-03-7.02792E-03-2.98017E-04-7.38570E-04-3.10112E-05-6.21095E-05-5.95002E-04



 n o d a l   p r i n t   o u t   f o r   t i m e  s t e p   19402                              ( at time 9.6995293E+00 )

 nodal point  x-disp     y-disp      z-disp      x-vel       y-vel       z-vel      x-accl      y-accl      z-accl      x-coor      y-coor      z-coor
    22626 -7.44013E-02 8.00608E+00 1.53087E+00-2.40064E-02 1.71124E+00 1.26661E+00-1.08467E-02-1.30702E-02 4.70500E-01 4.58497E+00-2.01848E+01-4.34509E+01



 n o d a l   p r i n t   o u t   f o r   t i m e  s t e p   19402                              ( at time 9.6995293E+00 )

 nodal point  x-rot      y-rot       z-rot       x-rot vel   y-rot vel   z-rot vel   x-rot acc   y-rot acc   z-rot acc
    22626 -4.08191E-02 2.23951E-04-1.20421E-03-7.07198E-03-3.07079E-04-7.63873E-04-4.40667E-04-9.06248E-05-2.53058E-04



 n o d a l   p r i n t   o u t   f o r   t i m e  s t e p   19602                              ( at time 9.7995193E+00 )

 nodal point  x-disp     y-disp      z-disp      x-vel       y-vel       z-vel      x-accl      y-accl      z-accl      x-coor      y-coor      z-coor
    22626 -7.68419E-02 8.17718E+00 1.65990E+00-2.61461E-02 1.71056E+00 1.31345E+00-2.13993E-02-6.75150E-03 4.68465E-01 4.58253E+00-2.00137E+01-4.33218E+01



 n o d a l   p r i n t   o u t   f o r   t i m e  s t e p   19602                              ( at time 9.7995193E+00 )

 nodal point  x-rot      y-rot       z-rot       x-rot vel   y-rot vel   z-rot vel   x-rot acc   y-rot acc   z-rot acc
    22626 -4.15270E-02 1.91593E-04-1.28239E-03-7.09264E-03-3.24592E-04-8.06915E-04-2.06607E-04-1.75149E-04-4.30460E-04



 n o d a l   p r i n t   o u t   f o r   t i m e  s t e p   19802                              ( at time 9.8995093E+00 )

 nodal point  x-disp     y-disp      z-disp      x-vel       y-vel       z-vel      x-accl      y-accl      z-accl      x-coor      y-coor      z-coor
    22626 -7.95967E-02 8.34806E+00 1.79355E+00-2.79055E-02 1.70862E+00 1.35938E+00-1.75954E-02-1.93675E-02 4.59402E-01 4.57978E+00-1.98428E+01-4.31882E+01



 n o d a l   p r i n t   o u t   f o r   t i m e  s t e p   19802                              ( at time 9.8995093E+00 )

 nodal point  x-rot      y-rot       z-rot       x-rot vel   y-rot vel   z-rot vel   x-rot acc   y-rot acc   z-rot acc
    22626 -4.22373E-02 1.56601E-04-1.36585E-03-7.12556E-03-3.71971E-04-8.74203E-04-3.29251E-04-4.73836E-04-6.72949E-04



 n o d a l   p r i n t   o u t   f o r   t i m e  s t e p   20003                              ( at time 9.9999992E+00 )

 nodal point  x-disp     y-disp      z-disp      x-vel       y-vel       z-vel      x-accl      y-accl      z-accl      x-coor      y-coor      z-coor
[...]
    22626 -2.53425E-01-9.42852E-04-1.41581E-02-2.48108E-02 5.43285E-05-9.14551E-04 1.48317E-04-1.79831E-04-1.81521E-04



 n o d a l   p r i n t   o u t   f o r   t i m e  s t e p   45205                              ( at time 2.2599738E+01 )

 nodal point  x-disp     y-disp      z-disp      x-vel       y-vel       z-vel      x-accl      y-accl      z-accl      x-coor      y-coor      z-coor
    22626 -1.31672E+00 3.12696E+01 2.21368E+01-1.23491E-01 1.68702E+00 1.22624E+00-2.08518E-02-8.83338E-02 1.44719E-01 3.34265E+00 3.07878E+00-2.28449E+01



 n o d a l   p r i n t   o u t   f o r   t i m e  s t e p   45205                              ( at time 2.2599738E+01 )

 nodal point  x-rot      y-rot       z-rot       x-rot vel   y-rot vel   z-rot vel   x-rot acc   y-rot acc   z-rot acc
    22626 -2.55904E-01-9.37394E-04-1.42488E-02-2.47901E-02 5.98040E-05-9.06822E-04 2.06977E-04 5.47592E-05 7.72923E-05



 n o d a l   p r i n t   o u t   f o r   t i m e  s t e p   45405                              ( at time 2.2699728E+01 )

 nodal point  x-disp     y-disp      z-disp      x-vel       y-vel       z-vel      x-accl      y-accl      z-accl      x-coor      y-coor      z-coor
    22626 -1.32897E+00 3.14380E+01 2.22602E+01-1.21906E-01 1.68060E+00 1.23986E+00 1.58479E-02-6.42871E-02 1.36141E-01 3.33040E+00 3.24718E+00-2.27216E+01



 n o d a l   p r i n t   o u t   f o r   t i m e  s t e p   45405                              ( at time 2.2699728E+01 )

 nodal point  x-rot      y-rot       z-rot       x-rot vel   y-rot vel   z-rot vel   x-rot acc   y-rot acc   z-rot acc
    22626 -2.58380E-01-9.31616E-04-1.43391E-02-2.47467E-02 6.23186E-05-8.94425E-04 4.34622E-04 2.51494E-05 1.23987E-04



 n o d a l   p r i n t   o u t   f o r   t i m e  s t e p   45605                              ( at time 2.2799718E+01 )

 nodal point  x-disp     y-disp      z-disp      x-vel       y-vel       z-vel      x-accl      y-accl      z-accl      x-coor      y-coor      z-coor
    22626 -1.34114E+00 3.16056E+01 2.23848E+01-1.22245E-01 1.67074E+00 1.25429E+00-3.39181E-03-9.85868E-02 1.44377E-01 3.31824E+00 3.41473E+00-2.25969E+01



 n o d a l   p r i n t   o u t   f o r   t i m e  s t e p   45605                              ( at time 2.2799718E+01 )

 nodal point  x-rot      y-rot       z-rot       x-rot vel   y-rot vel   z-rot vel   x-rot acc   y-rot acc   z-rot acc
    22626 -2.60854E-01-9.24420E-04-1.44286E-02-2.47193E-02 8.30551E-05-8.93780E-04 2.73554E-04 2.07384E-04 6.45524E-06



 n o d a l   p r i n t   o u t   f o r   t i m e  s t e p   45805                              ( at time 2.2899708E+01 )

 nodal point  x-disp     y-disp      z-disp      x-vel       y-vel       z-vel      x-accl      y-accl      z-accl      x-coor      y-coor      z-coor
    22626 -1.35336E+00 3.17723E+01 2.25109E+01-1.21984E-01 1.66449E+00 1.26781E+00 2.60769E-03-6.24630E-02 1.35213E-01 3.30602E+00 3.58144E+00-2.24708E+01



 n o d a l   p r i n t   o u t   f o r   t i m e  s t e p   45805                              ( at time 2.2899708E+01 )

 nodal point  x-rot      y-rot       z-rot       x-rot vel   y-rot vel   z-rot vel   x-rot acc   y-rot acc   z-rot acc
    22626 -2.63324E-01-9.17729E-04-1.45182E-02-2.46859E-02 5.40767E-05-9.00868E-04 3.34140E-04-2.89816E-04-7.08972E-05



 n o d a l   p r i n t   o u t   f o r   t i m e  s t e p   46005                              ( at time 2.2999698E+01 )

 nodal point  x-disp     y-disp      z-disp      x-vel       y-vel       z-vel      x-accl      y-accl      z-accl      x-coor      y-coor      z-coor
    22626 -1.36554E+00 3.19383E+01 2.26384E+01-1.21810E-01 1.65636E+00 1.28235E+00 1.74099E-03-8.13237E-02 1.45408E-01 3.29383E+00 3.74743E+00-2.23433E+01



 n o d a l   p r i n t   o u t   f o r   t i m e  s t e p   46005                              ( at time 2.2999698E+01 )

 nodal point  x-rot      y-rot       z-rot       x-rot vel   y-rot vel   z-rot vel   x-rot acc   y-rot acc   z-rot acc
    22626 -2.65790E-01-9.11857E-04-1.46076E-02-2.46367E-02 6.52931E-05-8.92376E-04 4.91988E-04 1.12174E-04 8.49345E-05



 n o d a l   p r i n t   o u t   f o r   t i m e  s t e p   46205                              ( at time 2.3099688E+01 )

 nodal point  x-disp     y-disp      z-disp      x-vel       y-vel       z-vel      x-accl      y-accl      z-accl      x-coor      y-coor      z-coor
    22626 -1.37769E+00 3.21034E+01 2.27673E+01-1.21615E-01 1.64764E+00 1.29564E+00 1.95301E-03-8.71993E-02 1.32914E-01 3.28168E+00 3.91262E+00-2.22144E+01



 n o d a l   p r i n t   o u t   f o r   t i m e  s t e p   46205                              ( at time 2.3099688E+01 )

 nodal point  x-rot      y-rot       z-rot       x-rot vel   y-rot vel   z-rot vel   x-rot acc   y-rot acc   z-rot acc
    22626 -2.68252E-01-9.03589E-04-1.46961E-02-2.46134E-02 8.91584E-05-8.84507E-04 2.32651E-04 2.38680E-04 7.86967E-05



 n o d a l   p r i n t   o u t   f o r   t i m e  s t e p   46405                              ( at time 2.3199678E+01 )

 nodal point  x-disp     y-disp      z-disp      x-vel       y-vel       z-vel      x-accl      y-accl      z-accl      x-coor      y-coor      z-coor
    22626 -1.38985E+00 3.22679E+01 2.28976E+01-1.21435E-01 1.64082E+00 1.30961E+00 1.80507E-03-6.82333E-02 1.39641E-01 3.26952E+00 4.07702E+00-2.20842E+01



 n o d a l   p r i n t   o u t   f o r   t i m e  s t e p   46405                              ( at time 2.3199678E+01 )

 nodal point  x-rot      y-rot       z-rot       x-rot vel   y-rot vel   z-rot vel   x-rot acc   y-rot acc   z-rot acc
    22626 -2.70710E-01-8.95637E-04-1.47849E-02-2.45539E-02 7.81737E-05-8.84853E-04 5.95952E-04-1.09858E-04-3.46076E-06



 n o d a l   p r i n t   o u t   f o r   t i m e  s t e p   46605                              ( at time 2.3299668E+01 )

 nodal point  x-disp     y-disp      z-disp      x-vel       y-vel       z-vel      x-accl      y-accl      z-accl      x-coor      y-coor      z-coor
    22626 -1.40208E+00 3.24316E+01 2.30292E+01-1.22993E-01 1.63319E+00 1.32487E+00-1.55865E-02-7.63215E-02 1.52712E-01 3.25730E+00 4.24076E+00-2.19525E+01



 n o d a l   p r i n t   o u t   f o r   t i m e  s t e p   46605                              ( at time 2.3299668E+01 )

 nodal point  x-rot      y-rot       z-rot       x-rot vel   y-rot vel   z-rot vel   x-rot acc   y-rot acc   z-rot acc
    22626 -2.73163E-01-8.86852E-04-1.48734E-02-2.45085E-02 9.72017E-05-8.84381E-04 4.53250E-04 1.90301E-04 4.72349E-06



 n o d a l   p r i n t   o u t   f o r   t i m e  s t e p   46805                              ( at time 2.3399658E+01 )

 nodal point  x-disp     y-disp      z-disp      x-vel       y-vel       z-vel      x-accl      y-accl      z-accl      x-coor      y-coor      z-coor
    22626 -1.41431E+00 3.25945E+01 2.31624E+01-1.21699E-01 1.62583E+00 1.33782E+00 1.29423E-02-7.35922E-02 1.29445E-01 3.24506E+00 4.40369E+00-2.18193E+01



 n o d a l   p r i n t   o u t   f o r   t i m e  s t e p   46805                              ( at time 2.3399658E+01 )

 nodal point  x-rot      y-rot       z-rot       x-rot vel   y-rot vel   z-rot vel   x-rot acc   y-rot acc   z-rot acc
    22626 -2.75612E-01-8.77607E-04-1.49623E-02-2.44782E-02 8.77683E-05-8.86533E-04 3.03415E-04-9.43422E-05-2.15277E-05



 n o d a l   p r i n t   o u t   f o r   t i m e  s t e p   47005                              ( at time 2.3499648E+01 )

 nodal point  x-disp     y-disp      z-disp      x-vel       y-vel       z-vel      x-accl      y-accl      z-accl      x-coor      y-coor      z-coor
    22626 -1.42648E+00 3.27568E+01 2.32968E+01-1.21845E-01 1.61927E+00 1.35100E+00-1.46432E-03-6.55950E-02 1.31803E-01 3.23290E+00 4.56592E+00-2.16849E+01



 n o d a l   p r i n t   o u t   f o r   t i m e  s t e p   47005                              ( at time 2.3499648E+01 )

 nodal point  x-rot      y-rot       z-rot       x-rot vel   y-rot vel   z-rot vel   x-rot acc   y-rot acc   z-rot acc
    22626 -2.78056E-01-8.66504E-04-1.50503E-02-2.44087E-02 1.26824E-04-8.77607E-04 6.95221E-04 3.90592E-04 8.92667E-05



 n o d a l   p r i n t   o u t   f o r   t i m e  s t e p   47205                              ( at time 2.3599638E+01 )

 nodal point  x-disp     y-disp      z-disp      x-vel       y-vel       z-vel      x-accl      y-accl      z-accl      x-coor      y-coor      z-coor
    22626 -1.43874E+00 3.29183E+01 2.34326E+01-1.22481E-01 1.61252E+00 1.36532E+00-6.35538E-03-6.74823E-02 1.43220E-01 3.22064E+00 4.72749E+00-2.15491E+01



 n o d a l   p r i n t   o u t   f o r   t i m e  s t e p   47205                              ( at time 2.3599638E+01 )

 nodal point  x-rot      y-rot       z-rot       x-rot vel   y-rot vel   z-rot vel   x-rot acc   y-rot acc   z-rot acc
    22626 -2.80494E-01-8.54844E-04-1.51385E-02-2.43641E-02 1.01914E-04-8.92578E-04 4.46302E-04-2.49126E-04-1.49725E-04



 n o d a l   p r i n t   o u t   f o r   t i m e  s t e p   47405                              ( at time 2.3699628E+01 )

 nodal point  x-disp     y-disp      z-disp      x-vel       y-vel       z-vel      x-accl      y-accl      z-accl      x-coor      y-coor      z-coor
    22626 -1.45100E+00 3.30792E+01 2.35698E+01-1.22764E-01 1.60598E+00 1.37846E+00-2.83349E-03-6.54805E-02 1.31464E-01 3.20837E+00 4.88834E+00-2.14119E+01



 n o d a l   p r i n t   o u t   f o r   t i m e  s t e p   47405                              ( at time 2.3699628E+01 )

 nodal point  x-rot      y-rot       z-rot       x-rot vel   y-rot vel   z-rot vel   x-rot acc   y-rot acc   z-rot acc
    22626 -2.82927E-01-8.44861E-04-1.52269E-02-2.43041E-02 1.14602E-04-8.75674E-04 5.99976E-04 1.26895E-04 1.69060E-04



 n o d a l   p r i n t   o u t   f o r   t i m e  s t e p   47605                              ( at time 2.3799618E+01 )

 nodal point  x-disp     y-disp      z-disp      x-vel       y-vel       z-vel      x-accl      y-accl      z-accl      x-coor      y-coor      z-coor
    22626 -1.46321E+00 3.32395E+01 2.37083E+01-1.21565E-01 1.59945E+00 1.39240E+00 1.19896E-02-6.52505E-02 1.39399E-01 3.19617E+00 5.04862E+00-2.12734E+01



 n o d a l   p r i n t   o u t   f o r   t i m e  s t e p   47605                              ( at time 2.3799618E+01 )

 nodal point  x-rot      y-rot       z-rot       x-rot vel   y-rot vel   z-rot vel   x-rot acc   y-rot acc   z-rot acc
    22626 -2.85354E-01-8.32262E-04-1.53146E-02-2.42389E-02 1.29266E-04-8.82064E-04 6.51756E-04 1.46655E-04-6.39127E-05



 n o d a l   p r i n t   o u t   f o r   t i m e  s t e p   47805                              ( at time 2.3899608E+01 )

 nodal point  x-disp     y-disp      z-disp      x-vel       y-vel       z-vel      x-accl      y-accl      z-accl      x-coor      y-coor      z-coor
    22626 -1.47535E+00 3.33991E+01 2.38481E+01-1.22184E-01 1.59363E+00 1.40506E+00-6.18798E-03-5.82546E-02 1.26573E-01 3.18402E+00 5.20827E+00-2.11336E+01



 n o d a l   p r i n t   o u t   f o r   t i m e  s t e p   47805                              ( at time 2.3899608E+01 )

 nodal point  x-rot      y-rot       z-rot       x-rot vel   y-rot vel   z-rot vel   x-rot acc   y-rot acc   z-rot acc
    22626 -2.87775E-01-8.19902E-04-1.54034E-02-2.41758E-02 1.03877E-04-8.92246E-04 6.30805E-04-2.53914E-04-1.01823E-04



 n o d a l   p r i n t   o u t   f o r   t i m e  s t e p   48005                              ( at time 2.3999598E+01 )

 nodal point  x-disp     y-disp      z-disp      x-vel       y-vel       z-vel      x-accl      y-accl      z-accl      x-coor      y-coor      z-coor
    22626 -1.48760E+00 3.35581E+01 2.39893E+01-1.22056E-01 1.58757E+00 1.41775E+00 1.27590E-03-6.05316E-02 1.26902E-01 3.17177E+00 5.36730E+00-2.09925E+01



 n o d a l   p r i n t   o u t   f o r   t i m e  s t e p   48005                              ( at time 2.3999598E+01 )

 nodal point  x-rot      y-rot       z-rot       x-rot vel   y-rot vel   z-rot vel   x-rot acc   y-rot acc   z-rot acc
    22626 -2.90189E-01-8.10322E-04-1.54918E-02-2.41195E-02 9.63889E-05-8.84254E-04 5.63512E-04-7.48919E-05 7.99262E-05



 n o d a l   p r i n t   o u t   f o r   t i m e  s t e p   48205                              ( at time 2.4099588E+01 )

 nodal point  x-disp     y-disp      z-disp      x-vel       y-vel       z-vel      x-accl      y-accl      z-accl      x-coor      y-coor      z-coor
    22626 -1.49972E+00 3.37166E+01 2.41317E+01-1.20683E-01 1.58291E+00 1.43070E+00 1.37323E-02-4.66866E-02 1.29566E-01 3.15965E+00 5.52578E+00-2.08501E+01



 n o d a l   p r i n t   o u t   f o r   t i m e  s t e p   48205                              ( at time 2.4099588E+01 )

 nodal point  x-rot      y-rot       z-rot       x-rot vel   y-rot vel   z-rot vel   x-rot acc   y-rot acc   z-rot acc
    22626 -2.92598E-01-7.99450E-04-1.55811E-02-2.40571E-02 1.14166E-04-8.94990E-04 6.24099E-04 1.77790E-04-1.07367E-04



 n o d a l   p r i n t   o u t   f o r   t i m e  s t e p   48405                              ( at time 2.4199578E+01 )

 nodal point  x-disp     y-disp      z-disp      x-vel       y-vel       z-vel      x-accl      y-accl      z-accl      x-coor      y-coor      z-coor
    22626 -1.51175E+00 3.38746E+01 2.42754E+01-1.20308E-01 1.57724E+00 1.44314E+00 3.75789E-03-5.66414E-02 1.24411E-01 3.14763E+00 5.68376E+00-2.07063E+01



 n o d a l   p r i n t   o u t   f o r   t i m e  s t e p   48405                              ( at time 2.4199578E+01 )

 nodal point  x-rot      y-rot       z-rot       x-rot vel   y-rot vel   z-rot vel   x-rot acc   y-rot acc   z-rot acc
    22626 -2.94999E-01-7.89346E-04-1.56705E-02-2.39818E-02 8.62394E-05-8.94037E-04 7.52778E-04-2.79300E-04 9.53256E-06



 n o d a l   p r i n t   o u t   f o r   t i m e  s t e p   48605                              ( at time 2.4299568E+01 )

 nodal point  x-disp     y-disp      z-disp      x-vel       y-vel       z-vel      x-accl      y-accl      z-accl      x-coor      y-coor      z-coor
    22626 -1.52382E+00 3.40321E+01 2.44203E+01-1.20614E-01 1.57257E+00 1.45476E+00-3.06590E-03-4.67260E-02 1.16236E-01 3.13555E+00 5.84123E+00-2.05615E+01



 n o d a l   p r i n t   o u t   f o r   t i m e  s t e p   48605                              ( at time 2.4299568E+01 )

 nodal point  x-rot      y-rot       z-rot       x-rot vel   y-rot vel   z-rot vel   x-rot acc   y-rot acc   z-rot acc
    22626 -2.97393E-01-7.81924E-04-1.57602E-02-2.39033E-02 6.81204E-05-8.99301E-04 7.85177E-04-1.81207E-04-5.26461E-05



 n o d a l   p r i n t   o u t   f o r   t i m e  s t e p   48805                              ( at time 2.4399558E+01 )

 nodal point  x-disp     y-disp      z-disp      x-vel       y-vel       z-vel      x-accl      y-accl      z-accl      x-coor      y-coor      z-coor
    22626 -1.53580E+00 3.41891E+01 2.45663E+01-1.19129E-01 1.56780E+00 1.46726E+00 1.48488E-02-4.76762E-02 1.24989E-01 3.12357E+00 5.99825E+00-2.04154E+01



 n o d a l   p r i n t   o u t   f o r   t i m e  s t e p   48805                              ( at time 2.4399558E+01 )

 nodal point  x-rot      y-rot       z-rot       x-rot vel   y-rot vel   z-rot vel   x-rot acc   y-rot acc   z-rot acc
    22626 -2.99781E-01-7.75057E-04-1.58514E-02-2.38390E-02 6.89479E-05-9.12974E-04 6.42616E-04 8.27592E-06-1.36742E-04



 n o d a l   p r i n t   o u t   f o r   t i m e  s t e p   49006                              ( at time 2.4500048E+01 )

 nodal point  x-disp     y-disp      z-disp      x-vel       y-vel       z-vel      x-accl      y-accl      z-accl      x-coor      y-coor      z-coor
    22626 -1.54776E+00 3.43464E+01 2.47142E+01-1.18559E-01 1.56431E+00 1.47677E+00 5.67939E-03-3.47502E-02 9.46166E-02 3.11161E+00 6.15562E+00-2.02675E+01



 n o d a l   p r i n t   o u t   f o r   t i m e  s t e p   49006                              ( at time 2.4500048E+01 )

 nodal point  x-rot      y-rot       z-rot       x-rot vel   y-rot vel   z-rot vel   x-rot acc   y-rot acc   z-rot acc
    22626 -3.02172E-01-7.68993E-04-1.59427E-02-2.37605E-02 5.30883E-05-9.04479E-04 7.81009E-04-1.57825E-04 8.45311E-05



 n o d a l   p r i n t   o u t   f o r   t i m e  s t e p   49206                              ( at time 2.4600038E+01 )

 nodal point  x-disp     y-disp      z-disp      x-vel       y-vel       z-vel      x-accl      y-accl      z-accl      x-coor      y-coor      z-coor
    22626 -1.55960E+00 3.45026E+01 2.48624E+01-1.18424E-01 1.55961E+00 1.48760E+00 1.34942E-03-4.70467E-02 1.08325E-01 3.09978E+00 6.31178E+00-2.01193E+01



 n o d a l   p r i n t   o u t   f o r   t i m e  s t e p   49206                              ( at time 2.4600038E+01 )

 nodal point  x-rot      y-rot       z-rot       x-rot vel   y-rot vel   z-rot vel   x-rot acc   y-rot acc   z-rot acc
    22626 -3.04544E-01-7.65253E-04-1.60336E-02-2.36912E-02 2.42936E-05-9.19789E-04 6.93638E-04-2.87973E-04-1.53115E-04



 n o d a l   p r i n t   o u t   f o r   t i m e  s t e p   49406                              ( at time 2.4700028E+01 )

 nodal point  x-disp     y-disp      z-disp      x-vel       y-vel       z-vel      x-accl      y-accl      z-accl      x-coor      y-coor      z-coor
    22626 -1.57138E+00 3.46584E+01 2.50117E+01-1.17274E-01 1.55665E+00 1.49690E+00 1.14967E-02-2.95314E-02 9.30257E-02 3.08800E+00 6.46757E+00-1.99701E+01



 n o d a l   p r i n t   o u t   f o r   t i m e  s t e p   49406                              ( at time 2.4700028E+01 )

 nodal point  x-rot      y-rot       z-rot       x-rot vel   y-rot vel   z-rot vel   x-rot acc   y-rot acc   z-rot acc
    22626 -3.06910E-01-7.64203E-04-1.61264E-02-2.36270E-02 7.79027E-06-9.26506E-04 6.41808E-04-1.65051E-04-6.71785E-05



 n o d a l   p r i n t   o u t   f o r   t i m e  s t e p   49606                              ( at time 2.4800018E+01 )

 nodal point  x-disp     y-disp      z-disp      x-vel       y-vel       z-vel      x-accl      y-accl      z-accl      x-coor      y-coor      z-coor
    22626 -1.58307E+00 3.48139E+01 2.51618E+01-1.16294E-01 1.55321E+00 1.50548E+00 9.80623E-03-3.43938E-02 8.57348E-02 3.07631E+00 6.62304E+00-1.98199E+01



 n o d a l   p r i n t   o u t   f o r   t i m e  s t e p   49606                              ( at time 2.4800018E+01 )

 nodal point  x-rot      y-rot       z-rot       x-rot vel   y-rot vel   z-rot vel   x-rot acc   y-rot acc   z-rot acc
    22626 -3.09267E-01-7.63170E-04-1.62181E-02-2.35337E-02 7.24569E-07-9.20348E-04 9.33047E-04-7.06635E-05 6.15923E-05



 n o d a l   p r i n t   o u t   f o r   t i m e  s t e p   49806                              ( at time 2.4900008E+01 )

 nodal point  x-disp     y-disp      z-disp      x-vel       y-vel       z-vel      x-accl      y-accl      z-accl      x-coor      y-coor      z-coor
    22626 -1.59464E+00 3.49690E+01 2.53127E+01-1.15877E-01 1.55037E+00 1.51252E+00 4.16295E-03-2.84429E-02 7.04772E-02 3.06474E+00 6.77820E+00-1.96690E+01



 n o d a l   p r i n t   o u t   f o r   t i m e  s t e p   49806                              ( at time 2.4900008E+01 )

 nodal point  x-rot      y-rot       z-rot       x-rot vel   y-rot vel   z-rot vel   x-rot acc   y-rot acc   z-rot acc
    22626 -3.11616E-01-7.64728E-04-1.63110E-02-2.34521E-02-3.72919E-05-9.34468E-04 8.16190E-04-3.80207E-04-1.41215E-04



 n o d a l   p r i n t   o u t   f o r   t i m e  s t e p   50006                              ( at time 2.4999998E+01 )

 nodal point  x-disp     y-disp      z-disp      x-vel       y-vel       z-vel      x-accl      y-accl      z-accl      x-coor      y-coor      z-coor
    22626 -1.60624E+00 3.51239E+01 2.54643E+01-1.15697E-01 1.54848E+00 1.52094E+00 1.79948E-03-1.88916E-02 8.41456E-02 3.05313E+00 6.93311E+00-1.95174E+01



 n o d a l   p r i n t   o u t   f o r   t i m e  s t e p   50006                              ( at time 2.4999998E+01 )

 nodal point  x-rot      y-rot       z-rot       x-rot vel   y-rot vel   z-rot vel   x-rot acc   y-rot acc   z-rot acc
    22626 -3.13957E-01-7.68046E-04-1.64049E-02-2.33745E-02-3.39608E-05-9.41405E-04 7.76533E-04 3.33141E-05-6.93823E-05
