 LSTC 50th% Full_FE H-III Dummy (Beta Version, February 17, 2019)        
                    ls-dyna smp s R16 R16.0_619_d222963 date 03/18/2025

{BEGIN LEGEND}
 Entity #        Title
        1     Upper_Neck_Force_INJURY                                              
{END LEGEND}



 line#1  section#     time        x-force     y-force     z-force    magnitude
 line#2  resultant  moments       x-moment    y-moment    z-moment   magnitude
 line#3  centroids                x           y           z            area  
           1    0.00000E+00     0.0000E+00  0.0000E+00  0.0000E+00  0.0000E+00
ac ID =   33377                 0.0000E+00  0.0000E+00  0.0000E+00  0.0000E+00
                               -3.7437E-01  1.0501E+01 -4.6940E+01  0.0000E+00

           1    1.00490E-01     1.3117E-04 -4.9880E-03  2.5981E-01  2.5986E-01
ac ID =   33377                 4.2548E-01 -1.2522E+00 -2.7104E-02  1.3227E+00
                               -3.7387E-01  1.0590E+01 -4.6886E+01  2.5147E+03

           1    2.00480E-01    -4.4317E-02  4.4515E-04  4.4129E-01  4.4351E-01
ac ID =   33377                 3.0609E-01 -1.5962E+00  2.3415E-02  1.6254E+00
                               -3.7386E-01  1.0591E+01 -4.6888E+01  2.5147E+03

           1    3.00470E-01     1.4865E-02 -3.1304E-03  2.1753E-01  2.1806E-01
ac ID =   33377                 2.2096E-02 -3.3667E-01  6.1169E-02  3.4289E-01
                               -3.7382E-01  1.0591E+01 -4.6889E+01  2.5147E+03

           1    4.00460E-01     2.7539E-03  1.0756E-02  8.8027E-02  8.8725E-02
ac ID =   33377                -4.9247E-01 -9.4565E-01  6.7395E-03  1.0662E+00
                               -3.7384E-01  1.0592E+01 -4.6890E+01  2.5147E+03

           1    5.00450E-01    -4.0894E-02  4.3870E-03  1.6244E-01  1.6756E-01
ac ID =   33377                -3.9480E-01 -1.5184E+00 -1.0762E-01  1.5726E+00
                               -3.7385E-01  1.0594E+01 -4.6893E+01  2.5147E+03

           1    6.00440E-01    -1.1689E-02  3.9858E-03  3.4506E-01  3.4528E-01
ac ID =   33377                 9.2700E-02 -1.3541E+00 -4.0175E-02  1.3579E+00
                               -3.7385E-01  1.0595E+01 -4.6897E+01  2.5147E+03

           1    7.00430E-01     1.2619E-03 -4.9799E-03  2.9809E-01  2.9814E-01
ac ID =   33377                 1.2860E-01 -5.5910E-01  8.4811E-02  5.7993E-01
                               -3.7389E-01  1.0597E+01 -4.6901E+01  2.5147E+03

           1    8.00420E-01    -2.9933E-02 -1.0688E-03  1.0356E-01  1.0780E-01
ac ID =   33377                 7.4904E-02 -1.0697E+00  3.7210E-02  1.0730E+00
                               -3.7393E-01  1.0599E+01 -4.6905E+01  2.5147E+03

           1    9.00410E-01    -3.9673E-02  1.1940E-03  6.5592E-02  7.6666E-02
ac ID =   33377                 7.8236E-02 -1.1026E+00 -1.1757E-02  1.1054E+00
                               -3.7396E-01  1.0601E+01 -4.6909E+01  2.5147E+03

           1    1.00040E+00     1.2410E-02 -1.9548E-03  2.2707E-01  2.2742E-01
ac ID =   33377                 3.1767E-01 -3.7360E-01 -5.7798E-02  4.9379E-01
                               -3.7396E-01  1.0604E+01 -4.6915E+01  2.5147E+03

           1    1.10039E+00    -2.8743E-04 -3.6230E-04  2.8090E-01  2.8090E-01
ac ID =   33377                 2.9488E-01 -9.1450E-01 -4.4276E-02  9.6189E-01
                               -3.7393E-01  1.0606E+01 -4.6921E+01  2.5147E+03

           1    1.20038E+00    -3.3895E-02  2.4463E-03  1.4195E-01  1.4596E-01
ac ID =   33377                -2.8259E-01 -1.3386E+00  2.7969E-04  1.3681E+00
                               -3.7389E-01  1.0609E+01 -4.6926E+01  2.5147E+03

           1    1.30037E+00    -1.6711E-02  7.3574E-03  8.9539E-02  9.1382E-02
ac ID =   33377                -3.2037E-01 -1.0899E+00  3.3350E-02  1.1365E+00
                               -3.7383E-01  1.0612E+01 -4.6932E+01  2.5147E+03

           1    1.40036E+00     8.4822E-03  5.9969E-03  1.9260E-01  1.9288E-01
ac ID =   33377                -4.0551E-01 -1.0060E+00  3.9564E-02  1.0854E+00
                               -3.7375E-01  1.0615E+01 -4.6939E+01  2.5147E+03

           1    1.50035E+00    -2.4607E-02  7.7018E-03  3.3888E-01  3.3986E-01
ac ID =   33377                -1.9052E-01 -1.5992E+00 -6.1196E-02  1.6117E+00
                               -3.7368E-01  1.0618E+01 -4.6947E+01  2.5147E+03

           1    1.60034E+00    -2.2644E-02  2.1214E-04  2.3516E-01  2.3625E-01
ac ID =   33377                -1.3385E-01 -1.5324E+00 -1.6381E-02  1.5384E+00
                               -3.7360E-01  1.0622E+01 -4.6954E+01  2.5147E+03

           1    1.70033E+00    -1.6818E-03 -5.5696E-03  6.6930E-02  6.7182E-02
ac ID =   33377                 1.0669E-01 -6.5578E-01  1.2143E-01  6.7541E-01
                               -3.7354E-01  1.0625E+01 -4.6961E+01  2.5147E+03

           1    1.80032E+00    -2.6159E-02 -1.9844E-03  8.7507E-02  9.1355E-02
ac ID =   33377                 1.6462E-01 -1.3112E+00  1.8514E-01  1.3344E+00
                               -3.7350E-01  1.0629E+01 -4.6969E+01  2.5147E+03

           1    1.90031E+00    -1.2426E-02  4.5870E-03  1.9831E-01  1.9875E-01
ac ID =   33377                 7.0336E-02 -9.9811E-01 -2.9583E-02  1.0010E+00
                               -3.7346E-01  1.0633E+01 -4.6978E+01  2.5147E+03

           1    2.00030E+00    -1.9054E-02  2.5824E-03  1.7035E-01  1.7144E-01
ac ID =   33377                 3.0803E-02 -1.1244E+00 -8.3532E-02  1.1279E+00
                               -3.7334E-01  1.0637E+01 -4.6987E+01  2.5147E+03

           1    2.10029E+00    -2.8946E-02  1.1224E-03  1.7010E-02  3.3592E-02
ac ID =   33377                -1.4892E-01 -1.0919E+00  2.3230E-02  1.1022E+00
                               -3.7317E-01  1.0641E+01 -4.6996E+01  2.5147E+03

           1    2.20028E+00    -1.5696E-02  1.1353E-03  1.6116E-02  2.2525E-02
ac ID =   33377                -2.5356E-01 -1.0175E+00 -4.5997E-02  1.0496E+00
                               -3.7300E-01  1.0645E+01 -4.7005E+01  2.5147E+03

           1    2.30027E+00    -6.0652E-03 -4.6329E-04  1.6011E-01  1.6023E-01
ac ID =   33377                -3.5730E-01 -1.1418E+00 -1.5392E-01  1.2062E+00
                               -3.7290E-01  1.0650E+01 -4.7016E+01  2.5147E+03

           1    2.40026E+00    -1.2264E-02 -3.3958E-03  1.9910E-01  1.9950E-01
ac ID =   33377                -5.9518E-02 -1.2474E+00  8.3076E-02  1.2516E+00
                               -3.7295E-01  1.0654E+01 -4.7026E+01  2.5147E+03

           1    2.50025E+00    -7.4367E-03 -4.7996E-03 -4.7990E-03  1.0068E-02
ac ID =   33377                -5.6707E-02 -8.2575E-01  9.0638E-02  8.3265E-01
                               -3.7305E-01  1.0659E+01 -4.7035E+01  2.5147E+03

           1    2.60024E+00     2.9639E-02  4.3147E-03 -1.1017E-01  1.1417E-01
ac ID =   33377                 1.1190E-01  1.8976E-01 -6.4087E-02  2.2943E-01
                               -3.7322E-01  1.0664E+01 -4.7046E+01  2.5147E+03

           1    2.70023E+00     3.3353E-02  1.2918E-03 -4.8736E-02  5.9070E-02
ac ID =   33377                 9.8016E-02  4.7227E-01 -1.3762E-02  4.8253E-01
                               -3.7335E-01  1.0670E+01 -4.7057E+01  2.5147E+03

           1    2.80022E+00     5.3145E-02 -2.4815E-03 -1.7796E-02  5.6100E-02
ac ID =   33377                 2.6831E-01  8.1373E-01  1.0257E-01  8.6294E-01
                               -3.7346E-01  1.0677E+01 -4.7068E+01  2.5147E+03

           1    2.90021E+00     6.6809E-02 -1.5253E-02 -8.5483E-02  1.0956E-01
ac ID =   33377                 3.0788E-01  1.3250E+00 -1.7683E-01  1.3718E+00
                               -3.7360E-01  1.0686E+01 -4.7079E+01  2.5147E+03

           1    3.00020E+00     9.4715E-02 -2.8790E-03 -2.2199E-01  2.4137E-01
ac ID =   33377                -8.3146E-02  1.8076E+00  6.7793E-02  1.8108E+00
                               -3.7386E-01  1.0696E+01 -4.7091E+01  2.5147E+03

           1    3.10019E+00     9.2068E-02  2.1264E-03 -1.7648E-01  1.9906E-01
ac ID =   33377                 4.1711E-02  1.6414E+00 -3.5847E-01  1.6806E+00
                               -3.7426E-01  1.0709E+01 -4.7104E+01  2.5147E+03

           1    3.20018E+00     1.1403E-01  1.9876E-03 -1.2092E-01  1.6622E-01
ac ID =   33377                -3.7507E-01  1.7037E+00 -3.0760E-01  1.7714E+00
                               -3.7469E-01  1.0724E+01 -4.7117E+01  2.5147E+03

           1    3.30017E+00     1.2595E-01  7.8026E-03 -2.0035E-01  2.3678E-01
ac ID =   33377                 2.9126E-02  2.1675E+00 -2.9846E-02  2.1679E+00
                               -3.7511E-01  1.0741E+01 -4.7131E+01  2.5147E+03

           1    3.40016E+00     1.3523E-01  1.1198E-03 -3.4400E-01  3.6962E-01
ac ID =   33377                -3.8794E-01  2.6708E+00  8.9051E-02  2.7003E+00
                               -3.7552E-01  1.0761E+01 -4.7146E+01  2.5147E+03

           1    3.50015E+00     1.5535E-01  4.8349E-04 -4.2814E-01  4.5546E-01
ac ID =   33377                 2.8800E-01  3.4546E+00 -1.3682E-01  3.4693E+00
                               -3.7597E-01  1.0784E+01 -4.7162E+01  2.5147E+03

           1    3.60014E+00     1.5727E-01 -2.2641E-02 -3.7023E-01  4.0289E-01
ac ID =   33377                 3.5208E-01  3.9954E+00 -2.4746E-01  4.0186E+00
                               -3.7650E-01  1.0811E+01 -4.7179E+01  2.5147E+03

           1    3.70013E+00     2.0472E-01 -1.7851E-03 -4.1398E-01  4.6184E-01
ac ID =   33377                 2.7872E-01  4.8908E+00 -1.0170E-01  4.8998E+00
                               -3.7724E-01  1.0840E+01 -4.7196E+01  2.5147E+03

           1    3.80012E+00     1.8514E-01  5.4216E-03 -5.2567E-01  5.5735E-01
ac ID =   33377                 3.7536E-03  5.2225E+00 -9.8325E-02  5.2234E+00
                               -3.7811E-01  1.0874E+01 -4.7214E+01  2.5147E+03

           1    3.90011E+00     2.0273E-01 -5.5452E-03 -6.4203E-01  6.7330E-01
ac ID =   33377                 3.0297E-01  5.5847E+00  1.6063E-01  5.5953E+00
                               -3.7886E-01  1.0911E+01 -4.7233E+01  2.5147E+03

           1    4.00010E+00     2.0279E-01  6.6672E-04 -6.1607E-01  6.4859E-01
ac ID =   33377                -1.3946E-01  5.6003E+00  2.7358E-02  5.6021E+00
                               -3.7966E-01  1.0952E+01 -4.7254E+01  2.5147E+03

           1    4.10009E+00     2.1802E-01  1.6657E-02 -6.0663E-01  6.4484E-01
ac ID =   33377                -6.5110E-01  5.2797E+00  5.2043E-02  5.3200E+00
                               -3.8039E-01  1.0996E+01 -4.7276E+01  2.5147E+03

           1    4.20008E+00     2.1331E-01  4.0220E-03 -7.0680E-01  7.3830E-01
ac ID =   33377                -5.6036E-01  5.5321E+00 -1.3799E-02  5.5604E+00
                               -3.8109E-01  1.1045E+01 -4.7298E+01  2.5147E+03

           1    4.30007E+00     2.5845E-01 -1.3636E-02 -8.7125E-01  9.0888E-01
ac ID =   33377                -2.7470E-01  7.1173E+00 -2.2812E-02  7.1227E+00
                               -3.8180E-01  1.1098E+01 -4.7321E+01  2.5147E+03

           1    4.40006E+00     2.5514E-01  3.0080E-03 -8.7472E-01  9.1118E-01
ac ID =   33377                -2.6117E-01  7.6193E+00  5.0073E-02  7.6239E+00
                               -3.8260E-01  1.1155E+01 -4.7345E+01  2.5147E+03

           1    4.50005E+00     2.2596E-01  1.1360E-02 -8.1471E-01  8.4554E-01
ac ID =   33377                -1.4691E-01  7.5338E+00  1.5624E-01  7.5368E+00
                               -3.8348E-01  1.1217E+01 -4.7370E+01  2.5147E+03

           1    4.60004E+00     2.7253E-01  3.2027E-03 -9.1314E-01  9.5295E-01
ac ID =   33377                 2.7350E-01  8.1232E+00  9.6369E-02  8.1283E+00
                               -3.8427E-01  1.1282E+01 -4.7396E+01  2.5147E+03

           1    4.70003E+00     2.9376E-01 -1.7641E-02 -1.0894E+00  1.1285E+00
ac ID =   33377                 4.0712E-01  8.7515E+00 -2.8342E-01  8.7655E+00
                               -3.8496E-01  1.1352E+01 -4.7422E+01  2.5147E+03

           1    4.80002E+00     2.5643E-01  2.3906E-03 -1.1841E+00  1.2116E+00
ac ID =   33377                 1.5120E-01  8.4495E+00 -3.0312E-01  8.4563E+00
                               -3.8573E-01  1.1426E+01 -4.7450E+01  2.5147E+03

           1    4.90001E+00     2.7286E-01  1.5424E-02 -1.1441E+00  1.1763E+00
ac ID =   33377                -4.5386E-01  9.1338E+00 -1.0358E-01  9.1457E+00
                               -3.8651E-01  1.1505E+01 -4.7478E+01  2.5147E+03

           1    5.00000E+00     3.0424E-01  1.7712E-02 -1.1879E+00  1.2264E+00
ac ID =   33377                -7.7101E-01  9.7229E+00  4.0492E-01  9.7618E+00
                               -3.8715E-01  1.1587E+01 -4.7506E+01  2.5147E+03

           1    5.10049E+00     2.9971E-01 -2.1888E-02 -1.3723E+00  1.4048E+00
ac ID =   33377                -3.2047E-01  1.0559E+01  3.3294E-01  1.0569E+01
                               -3.8776E-01  1.1675E+01 -4.7535E+01  2.5147E+03

           1    5.20048E+00     3.2123E-01 -3.7187E-03 -1.4707E+00  1.5054E+00
ac ID =   33377                -3.7152E-01  1.1415E+01 -2.4348E-01  1.1424E+01
                               -3.8858E-01  1.1766E+01 -4.7564E+01  2.5147E+03

           1    5.30047E+00     3.3347E-01  1.3863E-02 -1.5017E+00  1.5383E+00
ac ID =   33377                -4.8663E-01  1.1948E+01 -1.8138E-01  1.1960E+01
                               -3.8943E-01  1.1862E+01 -4.7594E+01  2.5147E+03

           1    5.40046E+00     3.1816E-01  2.1885E-03 -1.5134E+00  1.5465E+00
ac ID =   33377                 8.1589E-02  1.1980E+01 -5.2558E-02  1.1980E+01
                               -3.9026E-01  1.1961E+01 -4.7624E+01  2.5147E+03

           1    5.50045E+00     3.4253E-01 -2.5124E-02 -1.6903E+00  1.7248E+00
ac ID =   33377                 8.4041E-01  1.2824E+01 -1.3493E-01  1.2852E+01
                               -3.9107E-01  1.2065E+01 -4.7654E+01  2.5147E+03

           1    5.60044E+00     3.4637E-01  4.7619E-03 -1.8695E+00  1.9014E+00
ac ID =   33377                -2.1611E-01  1.3375E+01  4.4715E-01  1.3385E+01
                               -3.9185E-01  1.2172E+01 -4.7683E+01  2.5147E+03

           1    5.70043E+00     3.5561E-01  1.6709E-02 -1.9300E+00  1.9625E+00
ac ID =   33377                -2.7579E-01  1.4334E+01 -1.1387E-01  1.4337E+01
                               -3.9260E-01  1.2284E+01 -4.7713E+01  2.5147E+03

           1    5.80042E+00     3.6047E-01 -1.1639E-02 -1.9156E+00  1.9493E+00
ac ID =   33377                 5.1835E-02  1.4694E+01 -1.7379E-01  1.4695E+01
                               -3.9325E-01  1.2399E+01 -4.7742E+01  2.5147E+03

           1    5.90041E+00     3.8122E-01  1.1266E-02 -2.0030E+00  2.0389E+00
ac ID =   33377                -4.2726E-01  1.6015E+01  4.0156E-01  1.6026E+01
                               -3.9392E-01  1.2518E+01 -4.7770E+01  2.5147E+03

           1    6.00040E+00     3.8334E-01  1.2687E-02 -2.1720E+00  2.2057E+00
ac ID =   33377                -9.4311E-01  1.6386E+01  3.3830E-01  1.6416E+01
                               -3.9470E-01  1.2640E+01 -4.7797E+01  2.5147E+03

           1    6.10039E+00     3.9290E-01  1.2537E-03 -2.2470E+00  2.2811E+00
ac ID =   33377                 7.8296E-02  1.7052E+01  4.4105E-01  1.7058E+01
                               -3.9547E-01  1.2766E+01 -4.7824E+01  2.5147E+03

           1    6.20038E+00     4.0408E-01 -1.5083E-02 -2.2430E+00  2.2791E+00
ac ID =   33377                -1.1618E-01  1.7661E+01  3.5615E-02  1.7661E+01
                               -3.9621E-01  1.2896E+01 -4.7850E+01  2.5147E+03

           1    6.30037E+00     3.7418E-01 -1.8501E-02 -2.3135E+00  2.3437E+00
ac ID =   33377                 8.4561E-01  1.7773E+01 -4.3613E-01  1.7799E+01
                               -3.9720E-01  1.3028E+01 -4.7874E+01  2.5147E+03

           1    6.40036E+00     4.1903E-01 -7.0398E-03 -2.5119E+00  2.5467E+00
ac ID =   33377                 2.0025E-01  1.9381E+01 -2.8021E-01  1.9384E+01
                               -3.9817E-01  1.3163E+01 -4.7897E+01  2.5147E+03

           1    6.50035E+00     4.4329E-01 -8.0823E-03 -2.6547E+00  2.6915E+00
ac ID =   33377                 4.9595E-01  2.0537E+01 -2.3620E-01  2.0545E+01
                               -3.9912E-01  1.3301E+01 -4.7918E+01  2.5147E+03

           1    6.60034E+00     4.3578E-01  9.4893E-03 -2.6866E+00  2.7217E+00
ac ID =   33377                -3.8487E-01  2.1232E+01 -1.0001E-01  2.1236E+01
                               -4.0002E-01  1.3442E+01 -4.7938E+01  2.5147E+03

           1    6.70033E+00     4.5296E-01 -4.4180E-03 -2.6966E+00  2.7344E+00
ac ID =   33377                -2.8508E-01  2.2277E+01  1.4639E-01  2.2280E+01
                               -4.0092E-01  1.3585E+01 -4.7956E+01  2.5147E+03

           1    6.80032E+00     4.6148E-01 -6.1883E-03 -2.8204E+00  2.8579E+00
ac ID =   33377                -2.0993E-01  2.2965E+01  1.9061E-01  2.2967E+01
                               -4.0183E-01  1.3731E+01 -4.7972E+01  2.5147E+03

           1    6.90031E+00     4.6606E-01  2.6142E-02 -2.9968E+00  3.0330E+00
ac ID =   33377                -1.4207E+00  2.3846E+01  2.3400E-03  2.3888E+01
                               -4.0271E-01  1.3878E+01 -4.7985E+01  2.5147E+03

           1    7.00030E+00     4.8350E-01 -5.6733E-03 -3.0663E+00  3.1042E+00
ac ID =   33377                -5.1259E-01  2.4538E+01  1.2805E-02  2.4544E+01
                               -4.0349E-01  1.4028E+01 -4.7997E+01  2.5147E+03

           1    7.10029E+00     4.8156E-01  1.2394E-02 -3.0962E+00  3.1334E+00
ac ID =   33377                -3.3492E-01  2.5178E+01  8.9116E-02  2.5181E+01
                               -4.0420E-01  1.4181E+01 -4.8006E+01  2.5147E+03

           1    7.20028E+00     4.9762E-01 -3.9094E-03 -3.2009E+00  3.2393E+00
ac ID =   33377                -4.5793E-02  2.6742E+01  4.1653E-02  2.6742E+01
                               -4.0480E-01  1.4335E+01 -4.8012E+01  2.5147E+03

           1    7.30027E+00     5.2939E-01  4.2692E-03 -3.3709E+00  3.4122E+00
ac ID =   33377                -9.7612E-02  2.8593E+01  2.1627E-02  2.8594E+01
                               -4.0535E-01  1.4491E+01 -4.8015E+01  2.5147E+03

           1    7.40026E+00     5.3222E-01 -9.8873E-03 -3.4649E+00  3.5055E+00
ac ID =   33377                 2.3118E-01  2.9906E+01 -2.6516E-01  2.9908E+01
                               -4.0591E-01  1.4649E+01 -4.8016E+01  2.5147E+03

           1    7.50025E+00     5.4121E-01 -2.5754E-03 -3.4388E+00  3.4812E+00
ac ID =   33377                 7.4686E-02  3.0372E+01 -2.1417E-01  3.0373E+01
                               -4.0638E-01  1.4808E+01 -4.8013E+01  2.5147E+03

           1    7.60024E+00     5.2998E-01 -3.0275E-03 -3.4877E+00  3.5277E+00
ac ID =   33377                -4.6128E-01  3.1098E+01 -2.5662E-01  3.1103E+01
                               -4.0673E-01  1.4969E+01 -4.8007E+01  2.5147E+03

           1    7.70023E+00     5.5353E-01  2.1488E-02 -3.5967E+00  3.6391E+00
ac ID =   33377                -8.1683E-01  3.2118E+01 -2.7151E-01  3.2130E+01
                               -4.0706E-01  1.5131E+01 -4.7997E+01  2.5147E+03

           1    7.80022E+00     5.2924E-01  5.5537E-03 -3.6701E+00  3.7081E+00
ac ID =   33377                -8.6943E-01  3.2151E+01 -2.6481E-01  3.2164E+01
                               -4.0726E-01  1.5294E+01 -4.7984E+01  2.5147E+03

           1    7.90021E+00     5.5395E-01  1.7701E-02 -3.6994E+00  3.7407E+00
ac ID =   33377                -1.0681E+00  3.3613E+01 -4.1807E-01  3.3633E+01
                               -4.0739E-01  1.5458E+01 -4.7968E+01  2.5147E+03

           1    8.00020E+00     5.8684E-01  2.3675E-02 -3.6922E+00  3.7386E+00
ac ID =   33377                -1.1007E+00  3.5183E+01 -5.8312E-01  3.5205E+01
                               -4.0747E-01  1.5623E+01 -4.7947E+01  2.5147E+03

           1    8.10019E+00     5.6928E-01  1.0584E-02 -3.8235E+00  3.8657E+00
ac ID =   33377                -3.7652E-01  3.6372E+01 -3.8466E-01  3.6376E+01
                               -4.0757E-01  1.5788E+01 -4.7922E+01  2.5147E+03

           1    8.20018E+00     5.7658E-01 -4.8586E-03 -3.9099E+00  3.9522E+00
ac ID =   33377                -2.3310E-01  3.7450E+01  1.0487E-01  3.7451E+01
                               -4.0757E-01  1.5954E+01 -4.7893E+01  2.5147E+03

           1    8.30017E+00     6.0683E-01  1.5136E-02 -3.9327E+00  3.9792E+00
ac ID =   33377                -3.8925E-01  3.8680E+01  1.2580E-02  3.8682E+01
                               -4.0753E-01  1.6120E+01 -4.7860E+01  2.5147E+03

           1    8.40016E+00     6.5181E-01  1.7684E-03 -3.9657E+00  4.0189E+00
ac ID =   33377                -5.4774E-02  4.0244E+01 -2.0508E-01  4.0244E+01
                               -4.0749E-01  1.6287E+01 -4.7822E+01  2.5147E+03

           1    8.50015E+00     5.9921E-01  2.2339E-02 -3.9923E+00  4.0371E+00
ac ID =   33377                -7.5341E-01  4.0250E+01 -1.1542E-01  4.0257E+01
                               -4.0733E-01  1.6455E+01 -4.7780E+01  2.5147E+03

           1    8.60014E+00     6.3576E-01  1.1008E-02 -4.0821E+00  4.1313E+00
ac ID =   33377                -8.1812E-01  4.1901E+01 -1.0692E-01  4.1909E+01
                               -4.0705E-01  1.6623E+01 -4.7734E+01  2.5147E+03

           1    8.70013E+00     6.6699E-01  2.1909E-02 -4.1447E+00  4.1981E+00
ac ID =   33377                -1.5088E+00  4.3123E+01 -1.7482E-01  4.3150E+01
                               -4.0681E-01  1.6791E+01 -4.7684E+01  2.5147E+03

           1    8.80012E+00     6.2948E-01  2.9188E-02 -4.1260E+00  4.1738E+00
ac ID =   33377                -1.2181E+00  4.3184E+01 -2.6028E-01  4.3202E+01
                               -4.0662E-01  1.6960E+01 -4.7629E+01  2.5147E+03

           1    8.90011E+00     6.4903E-01  1.5744E-02 -4.1388E+00  4.1894E+00
ac ID =   33377                -1.4285E+00  4.4463E+01 -1.6183E-01  4.4486E+01
                               -4.0631E-01  1.7129E+01 -4.7569E+01  2.5147E+03

           1    9.00010E+00     6.6969E-01  1.1594E-02 -4.1789E+00  4.2323E+00
ac ID =   33377                -8.6465E-01  4.5855E+01 -4.6438E-01  4.5865E+01
                               -4.0606E-01  1.7298E+01 -4.7505E+01  2.5147E+03

           1    9.10009E+00     6.6321E-01  1.0395E-02 -4.1902E+00  4.2424E+00
ac ID =   33377                -9.7953E-01  4.6465E+01 -6.8976E-01  4.6480E+01
                               -4.0576E-01  1.7468E+01 -4.7436E+01  2.5147E+03

           1    9.20008E+00     6.4376E-01  3.3438E-02 -4.1635E+00  4.2131E+00
ac ID =   33377                -1.1586E+00  4.6676E+01 -5.3716E-01  4.6694E+01
                               -4.0543E-01  1.7638E+01 -4.7363E+01  2.5147E+03

           1    9.30007E+00     6.6226E-01  1.5814E-02 -4.1140E+00  4.1670E+00
ac ID =   33377                -1.4628E+00  4.7083E+01 -4.0226E-01  4.7107E+01
                               -4.0488E-01  1.7807E+01 -4.7285E+01  2.5147E+03

           1    9.40006E+00     6.7382E-01  3.7353E-02 -4.1255E+00  4.1803E+00
ac ID =   33377                -2.0320E+00  4.7953E+01 -3.3361E-01  4.7997E+01
                               -4.0423E-01  1.7977E+01 -4.7202E+01  2.5147E+03

           1    9.50005E+00     6.3551E-01  2.8821E-02 -4.1425E+00  4.1910E+00
ac ID =   33377                -2.3204E+00  4.8132E+01 -6.0071E-01  4.8192E+01
                               -4.0349E-01  1.8146E+01 -4.7115E+01  2.5147E+03

           1    9.60004E+00     6.6851E-01  2.2184E-02 -4.0760E+00  4.1305E+00
ac ID =   33377                -2.4359E+00  4.8756E+01 -6.7990E-01  4.8822E+01
                               -4.0279E-01  1.8316E+01 -4.7023E+01  2.5147E+03

           1    9.70003E+00     6.8299E-01  2.1030E-02 -4.0146E+00  4.0723E+00
ac ID =   33377                -2.2126E+00  4.9154E+01 -3.9985E-01  4.9206E+01
                               -4.0213E-01  1.8485E+01 -4.6926E+01  2.5147E+03

           1    9.80002E+00     6.8470E-01  3.1774E-02 -4.0184E+00  4.0764E+00
ac ID =   33377                -2.2763E+00  4.9848E+01 -5.0860E-01  4.9903E+01
                               -4.0149E-01  1.8654E+01 -4.6824E+01  2.5147E+03

           1    9.90001E+00     6.5492E-01  5.6902E-03 -4.0024E+00  4.0556E+00
ac ID =   33377                -1.2074E+00  4.9826E+01 -2.4728E-01  4.9841E+01
                               -4.0082E-01  1.8823E+01 -4.6718E+01  2.5147E+03

           1    1.00005E+01     6.6413E-01  2.6451E-02 -3.9606E+00  4.0160E+00
ac ID =   33377                -2.0465E+00  5.0260E+01  2.1150E-02  5.0302E+01
                               -4.0006E-01  1.8992E+01 -4.6607E+01  2.5147E+03

           1    1.01005E+01     6.5454E-01 -6.5492E-03 -3.8751E+00  3.9300E+00
ac ID =   33377                -1.1303E+00  5.0682E+01 -4.7271E-01  5.0697E+01
                               -3.9926E-01  1.9161E+01 -4.6492E+01  2.5147E+03

           1    1.02005E+01     6.4370E-01  3.7957E-02 -3.8169E+00  3.8710E+00
ac ID =   33377                -2.4875E+00  5.0581E+01 -7.4296E-01  5.0647E+01
                               -3.9849E-01  1.9328E+01 -4.6373E+01  2.5147E+03

           1    1.03005E+01     6.6448E-01  1.4866E-02 -3.8264E+00  3.8837E+00
ac ID =   33377                -2.2607E+00  5.1641E+01 -4.2389E-01  5.1692E+01
                               -3.9771E-01  1.9495E+01 -4.6248E+01  2.5147E+03

           1    1.04005E+01     6.3384E-01 -1.3570E-02 -3.7489E+00  3.8021E+00
ac ID =   33377                -1.7090E+00  5.1118E+01 -6.6964E-01  5.1151E+01
                               -3.9710E-01  1.9662E+01 -4.6120E+01  2.5147E+03

           1    1.05004E+01     6.2827E-01  3.1582E-02 -3.6204E+00  3.6747E+00
ac ID =   33377                -2.4000E+00  5.1221E+01 -6.9243E-01  5.1282E+01
                               -3.9665E-01  1.9828E+01 -4.5987E+01  2.5147E+03

           1    1.06004E+01     6.5237E-01 -1.2146E-03 -3.5327E+00  3.5925E+00
ac ID =   33377                -1.6024E+00  5.1340E+01 -9.4747E-02  5.1365E+01
                               -3.9622E-01  1.9993E+01 -4.5850E+01  2.5147E+03

           1    1.07004E+01     6.4836E-01  1.4353E-02 -3.5024E+00  3.5620E+00
ac ID =   33377                -1.0461E+00  5.1582E+01 -3.7035E-01  5.1594E+01
                               -3.9598E-01  2.0157E+01 -4.5709E+01  2.5147E+03

           1    1.08004E+01     6.4138E-01 -1.5591E-02 -3.4391E+00  3.4985E+00
ac ID =   33377                -1.2036E+00  5.1588E+01 -5.2126E-01  5.1605E+01
                               -3.9558E-01  2.0321E+01 -4.5564E+01  2.5147E+03

           1    1.09004E+01     6.1930E-01  7.1750E-03 -3.2942E+00  3.3519E+00
ac ID =   33377                -1.5798E+00  5.0816E+01 -7.3113E-01  5.0846E+01
                               -3.9529E-01  2.0485E+01 -4.5415E+01  2.5147E+03

           1    1.10004E+01     6.6868E-01 -1.2237E-02 -3.1984E+00  3.2676E+00
ac ID =   33377                -1.1435E+00  5.2189E+01 -2.7199E-01  5.2203E+01
                               -3.9516E-01  2.0647E+01 -4.5263E+01  2.5147E+03

           1    1.11004E+01     6.0807E-01 -9.6779E-03 -3.1579E+00  3.2159E+00
ac ID =   33377                -1.0009E+00  5.1272E+01  1.0418E-01  5.1282E+01
                               -3.9509E-01  2.0810E+01 -4.5107E+01  2.5147E+03

           1    1.12004E+01     6.2334E-01 -3.9964E-03 -3.0654E+00  3.1281E+00
ac ID =   33377                -1.8525E+00  5.1701E+01 -4.5047E-01  5.1737E+01
                               -3.9519E-01  2.0972E+01 -4.4948E+01  2.5147E+03

           1    1.13004E+01     6.5113E-01  9.3210E-03 -2.9181E+00  2.9899E+00
ac ID =   33377                -1.4890E+00  5.1964E+01 -6.7185E-01  5.1989E+01
                               -3.9554E-01  2.1134E+01 -4.4786E+01  2.5147E+03

           1    1.14004E+01     6.1015E-01 -2.8203E-02 -2.7954E+00  2.8614E+00
ac ID =   33377                -5.9150E-01  5.0915E+01 -7.7205E-01  5.0924E+01
                               -3.9584E-01  2.1296E+01 -4.4621E+01  2.5147E+03

           1    1.15003E+01     6.0556E-01 -3.3118E-02 -2.7279E+00  2.7945E+00
ac ID =   33377                -6.1626E-01  5.0637E+01 -3.8943E-01  5.0643E+01
                               -3.9629E-01  2.1457E+01 -4.4454E+01  2.5147E+03

           1    1.16003E+01     6.2294E-01 -1.2630E-02 -2.6781E+00  2.7496E+00
ac ID =   33377                -8.7815E-01  5.0780E+01 -3.0131E-01  5.0789E+01
                               -3.9715E-01  2.1618E+01 -4.4284E+01  2.5147E+03

           1    1.17003E+01     6.2381E-01 -2.2052E-02 -2.5664E+00  2.6412E+00
ac ID =   33377                -5.3903E-01  5.0625E+01 -8.0879E-01  5.0634E+01
                               -3.9797E-01  2.1780E+01 -4.4111E+01  2.5147E+03

           1    1.18003E+01     5.7867E-01 -3.7975E-02 -2.4553E+00  2.5228E+00
ac ID =   33377                -5.4002E-01  4.9746E+01 -7.5380E-01  4.9755E+01
                               -3.9881E-01  2.1941E+01 -4.3937E+01  2.5147E+03

           1    1.19003E+01     5.9887E-01 -2.1881E-02 -2.3604E+00  2.4352E+00
ac ID =   33377                -6.2387E-01  5.0461E+01 -3.8481E-01  5.0466E+01
                               -3.9985E-01  2.2102E+01 -4.3761E+01  2.5147E+03

           1    1.20003E+01     5.8367E-01  7.6941E-03 -2.2604E+00  2.3346E+00
ac ID =   33377                -1.4178E+00  4.9907E+01 -3.2067E-01  4.9928E+01
                               -4.0100E-01  2.2263E+01 -4.3582E+01  2.5147E+03

           1    1.21003E+01     5.4399E-01 -6.1028E-03 -2.1644E+00  2.2317E+00
ac ID =   33377                -1.5584E+00  4.8752E+01 -5.1690E-01  4.8779E+01
                               -4.0208E-01  2.2424E+01 -4.3402E+01  2.5147E+03

           1    1.22003E+01     5.4799E-01  1.8978E-03 -1.9709E+00  2.0457E+00
ac ID =   33377                -1.6911E+00  4.7994E+01 -6.3759E-01  4.8028E+01
                               -4.0319E-01  2.2585E+01 -4.3221E+01  2.5147E+03

           1    1.23003E+01     5.5097E-01 -3.6681E-03 -1.8216E+00  1.9031E+00
ac ID =   33377                -1.2725E+00  4.7163E+01 -6.1537E-01  4.7184E+01
                               -4.0444E-01  2.2746E+01 -4.3038E+01  2.5147E+03

           1    1.24003E+01     5.1656E-01  1.1616E-02 -1.7749E+00  1.8486E+00
ac ID =   33377                -1.6463E+00  4.6125E+01 -5.1115E-01  4.6157E+01
                               -4.0562E-01  2.2908E+01 -4.2854E+01  2.5147E+03

           1    1.25002E+01     5.0177E-01 -1.4050E-02 -1.6714E+00  1.7452E+00
ac ID =   33377                -9.2949E-01  4.5327E+01 -2.5042E-01  4.5338E+01
                               -4.0687E-01  2.3069E+01 -4.2669E+01  2.5147E+03

           1    1.26002E+01     5.1339E-01 -4.5022E-03 -1.4985E+00  1.5841E+00
ac ID =   33377                -1.0916E+00  4.4831E+01 -2.3928E-01  4.4845E+01
                               -4.0825E-01  2.3231E+01 -4.2484E+01  2.5147E+03

           1    1.27002E+01     5.1206E-01  1.4949E-02 -1.4003E+00  1.4911E+00
ac ID =   33377                -1.0992E+00  4.3939E+01 -7.3332E-01  4.3959E+01
                               -4.0973E-01  2.3392E+01 -4.2298E+01  2.5147E+03

           1    1.28002E+01     4.8103E-01  1.6089E-02 -1.3154E+00  1.4007E+00
ac ID =   33377                -2.1990E+00  4.3051E+01 -6.2983E-01  4.3111E+01
                               -4.1104E-01  2.3554E+01 -4.2112E+01  2.5147E+03

           1    1.29002E+01     4.5626E-01 -1.6870E-02 -1.1864E+00  1.2712E+00
ac ID =   33377                -1.2901E+00  4.1264E+01 -9.8389E-01  4.1296E+01
                               -4.1256E-01  2.3716E+01 -4.1926E+01  2.5147E+03

           1    1.30002E+01     4.4551E-01  1.0676E-02 -1.0821E+00  1.1703E+00
ac ID =   33377                -2.5045E+00  4.0345E+01 -8.0394E-01  4.0431E+01
                               -4.1419E-01  2.3879E+01 -4.1740E+01  2.5147E+03

           1    1.31002E+01     4.2781E-01  5.5424E-02 -9.5443E-01  1.0474E+00
ac ID =   33377                -3.4163E+00  3.9426E+01 -5.1813E-01  3.9578E+01
                               -4.1590E-01  2.4042E+01 -4.1554E+01  2.5147E+03

           1    1.32002E+01     4.2312E-01 -2.5672E-02 -8.7037E-01  9.6811E-01
ac ID =   33377                -2.1245E+00  3.9224E+01 -3.3882E-01  3.9283E+01
                               -4.1753E-01  2.4205E+01 -4.1368E+01  2.5147E+03

           1    1.33002E+01     4.2156E-01  1.8475E-02 -8.2401E-01  9.2577E-01
ac ID =   33377                -2.4360E+00  3.9404E+01 -8.5217E-01  3.9488E+01
                               -4.1944E-01  2.4369E+01 -4.1183E+01  2.5147E+03

           1    1.34002E+01     4.2986E-01  1.2660E-02 -7.0307E-01  8.2417E-01
ac ID =   33377                -2.9690E+00  3.9919E+01 -7.0243E-01  4.0036E+01
                               -4.2136E-01  2.4534E+01 -4.0999E+01  2.5147E+03

           1    1.35001E+01     4.1473E-01 -3.1131E-03 -5.7949E-01  7.1262E-01
ac ID =   33377                -1.9758E+00  3.9360E+01 -1.4583E-01  3.9410E+01
                               -4.2346E-01  2.4699E+01 -4.0816E+01  2.5147E+03

           1    1.36001E+01     4.1316E-01 -2.1238E-02 -5.2446E-01  6.6799E-01
ac ID =   33377                -1.8994E+00  3.9297E+01 -1.6844E-01  3.9344E+01
                               -4.2574E-01  2.4865E+01 -4.0634E+01  2.5147E+03

           1    1.37001E+01     4.2328E-01  2.9050E-02 -4.3987E-01  6.1114E-01
ac ID =   33377                -2.9684E+00  3.9044E+01 -7.8197E-01  3.9165E+01
                               -4.2829E-01  2.5031E+01 -4.0453E+01  2.5147E+03

           1    1.38001E+01     4.1657E-01  1.3050E-02 -3.2528E-01  5.2869E-01
ac ID =   33377                -3.1168E+00  3.8634E+01 -1.3525E+00  3.8783E+01
                               -4.3094E-01  2.5197E+01 -4.0274E+01  2.5147E+03

           1    1.39001E+01     3.9306E-01 -1.6060E-02 -2.2458E-01  4.5298E-01
ac ID =   33377                -2.1415E+00  3.7490E+01 -1.4412E+00  3.7579E+01
                               -4.3395E-01  2.5365E+01 -4.0096E+01  2.5147E+03

           1    1.40001E+01     4.0375E-01  3.1430E-02 -1.4467E-01  4.3004E-01
ac ID =   33377                -3.7966E+00  3.6972E+01 -6.2414E-01  3.7171E+01
                               -4.3730E-01  2.5532E+01 -3.9920E+01  2.5147E+03

           1    1.41001E+01     4.0241E-01  3.1401E-02 -5.4995E-02  4.0736E-01
ac ID =   33377                -3.5039E+00  3.6713E+01 -2.9168E-01  3.6881E+01
                               -4.4092E-01  2.5701E+01 -3.9746E+01  2.5147E+03

           1    1.42001E+01     3.8797E-01  3.5301E-03  2.3466E-02  3.8870E-01
ac ID =   33377                -2.8017E+00  3.5942E+01 -8.0360E-01  3.6060E+01
                               -4.4467E-01  2.5870E+01 -3.9574E+01  2.5147E+03

           1    1.43001E+01     3.7790E-01 -4.6778E-03  1.1420E-01  3.9481E-01
ac ID =   33377                -2.9257E+00  3.5936E+01 -1.1632E+00  3.6073E+01
                               -4.4866E-01  2.6040E+01 -3.9405E+01  2.5147E+03

           1    1.44001E+01     3.9311E-01  3.8603E-02  1.8571E-01  4.3648E-01
ac ID =   33377                -3.5099E+00  3.6133E+01 -9.7719E-01  3.6316E+01
                               -4.5297E-01  2.6211E+01 -3.9239E+01  2.5147E+03

           1    1.45000E+01     3.8397E-01 -9.3777E-03  2.2902E-01  4.4718E-01
ac ID =   33377                -2.8122E+00  3.6489E+01 -1.1333E+00  3.6615E+01
                               -4.5734E-01  2.6382E+01 -3.9074E+01  2.5147E+03

           1    1.46000E+01     3.3359E-01  1.3891E-02  2.7275E-01  4.3113E-01
ac ID =   33377                -3.4798E+00  3.4793E+01 -8.2733E-01  3.4976E+01
                               -4.6205E-01  2.6554E+01 -3.8913E+01  2.5147E+03

           1    1.47000E+01     3.5473E-01  6.2296E-03  3.4610E-01  4.9563E-01
ac ID =   33377                -3.4020E+00  3.4887E+01 -9.7622E-01  3.5066E+01
                               -4.6710E-01  2.6727E+01 -3.8755E+01  2.5147E+03

           1    1.48005E+01     3.2098E-01 -9.6431E-04  4.5538E-01  5.5713E-01
ac ID =   33377                -2.5284E+00  3.4537E+01 -1.1835E+00  3.4650E+01
                               -4.7247E-01  2.6901E+01 -3.8599E+01  2.5147E+03

           1    1.49005E+01     3.6949E-01  2.1786E-02  5.0561E-01  6.2661E-01
ac ID =   33377                -3.2641E+00  3.5947E+01 -1.6239E-02  3.6095E+01
                               -4.7807E-01  2.7075E+01 -3.8446E+01  2.5147E+03

           1    1.50005E+01     3.6942E-01  9.9243E-03  5.7117E-01  6.8030E-01
ac ID =   33377                -2.5565E+00  3.5408E+01 -1.3843E-02  3.5501E+01
                               -4.8393E-01  2.7250E+01 -3.8297E+01  2.5147E+03

           1    1.51005E+01     3.4072E-01 -3.8416E-04  6.0736E-01  6.9640E-01
ac ID =   33377                -2.3717E+00  3.4692E+01 -8.1636E-01  3.4782E+01
                               -4.8993E-01  2.7425E+01 -3.8151E+01  2.5147E+03

           1    1.52005E+01     3.2802E-01  1.5728E-02  6.8255E-01  7.5744E-01
ac ID =   33377                -3.1346E+00  3.3014E+01 -6.7409E-01  3.3169E+01
                               -4.9595E-01  2.7601E+01 -3.8008E+01  2.5147E+03

           1    1.53005E+01     3.0087E-01  4.1016E-02  7.3833E-01  7.9833E-01
ac ID =   33377                -3.1368E+00  3.1470E+01 -4.5571E-01  3.1629E+01
                               -5.0236E-01  2.7777E+01 -3.7869E+01  2.5147E+03

           1    1.54005E+01     3.2040E-01  2.0590E-03  7.9372E-01  8.5595E-01
ac ID =   33377                -2.5354E+00  3.2267E+01 -7.5224E-01  3.2375E+01
                               -5.0876E-01  2.7955E+01 -3.7733E+01  2.5147E+03

           1    1.55004E+01     3.3884E-01  3.1511E-03  7.9413E-01  8.6340E-01
ac ID =   33377                -3.0358E+00  3.2889E+01 -1.1209E+00  3.3048E+01
                               -5.1528E-01  2.8132E+01 -3.7601E+01  2.5147E+03

           1    1.56004E+01     3.4038E-01  1.6768E-02  8.0488E-01  8.7406E-01
ac ID =   33377                -2.7823E+00  3.3794E+01 -9.1611E-01  3.3921E+01
                               -5.2220E-01  2.8310E+01 -3.7472E+01  2.5147E+03

           1    1.57004E+01     3.2734E-01  2.8074E-03  8.4170E-01  9.0311E-01
ac ID =   33377                -1.9202E+00  3.3602E+01 -1.1879E-01  3.3657E+01
                               -5.2920E-01  2.8488E+01 -3.7347E+01  2.5147E+03

           1    1.58004E+01     3.4748E-01 -3.1630E-03  8.9327E-01  9.5848E-01
ac ID =   33377                -2.0088E+00  3.3478E+01  2.4390E-01  3.3539E+01
                               -5.3617E-01  2.8667E+01 -3.7226E+01  2.5147E+03

           1    1.59004E+01     3.0341E-01  7.7517E-03  8.9344E-01  9.4359E-01
ac ID =   33377                -1.9954E+00  3.1393E+01  9.3687E-02  3.1456E+01
                               -5.4338E-01  2.8846E+01 -3.7108E+01  2.5147E+03

           1    1.60004E+01     3.3067E-01 -7.7300E-03  9.1984E-01  9.7750E-01
ac ID =   33377                -1.6186E+00  3.1511E+01 -6.9221E-01  3.1560E+01
                               -5.5064E-01  2.9025E+01 -3.6994E+01  2.5147E+03

           1    1.61004E+01     3.0840E-01  6.7926E-03  9.6034E-01  1.0087E+00
ac ID =   33377                -2.3098E+00  3.1106E+01 -8.1974E-01  3.1202E+01
                               -5.5783E-01  2.9204E+01 -3.6883E+01  2.5147E+03

           1    1.62004E+01     2.8789E-01  1.0247E-02  1.0112E+00  1.0514E+00
ac ID =   33377                -1.7905E+00  3.0522E+01 -8.3485E-01  3.0586E+01
                               -5.6525E-01  2.9384E+01 -3.6776E+01  2.5147E+03

           1    1.63004E+01     3.0370E-01  1.5385E-02  9.9036E-01  1.0360E+00
ac ID =   33377                -2.5600E+00  2.9980E+01 -3.4070E-01  3.0091E+01
                               -5.7258E-01  2.9564E+01 -3.6673E+01  2.5147E+03

           1    1.64004E+01     2.9744E-01 -6.1520E-03  9.9696E-01  1.0404E+00
ac ID =   33377                -1.5603E+00  2.8647E+01 -7.0227E-01  2.8698E+01
                               -5.8009E-01  2.9744E+01 -3.6574E+01  2.5147E+03

           1    1.65003E+01     2.5740E-01  2.8660E-02  1.0390E+00  1.0707E+00
ac ID =   33377                -2.6362E+00  2.6652E+01 -5.0447E-01  2.6787E+01
                               -5.8752E-01  2.9924E+01 -3.6478E+01  2.5147E+03

           1    1.66003E+01     2.7316E-01 -1.0322E-03  1.0387E+00  1.0740E+00
ac ID =   33377                -1.1865E+00  2.6147E+01 -4.3404E-01  2.6178E+01
                               -5.9503E-01  3.0105E+01 -3.6385E+01  2.5147E+03

           1    1.67003E+01     2.8372E-01 -1.8314E-03  1.0523E+00  1.0899E+00
ac ID =   33377                -1.2120E+00  2.6233E+01 -1.6778E-01  2.6261E+01
                               -6.0253E-01  3.0286E+01 -3.6297E+01  2.5147E+03

           1    1.68003E+01     2.3854E-01 -9.4620E-03  1.0604E+00  1.0870E+00
ac ID =   33377                -1.1712E+00  2.4786E+01 -3.4210E-01  2.4816E+01
                               -6.0998E-01  3.0467E+01 -3.6211E+01  2.5147E+03

           1    1.69003E+01     2.4948E-01  3.4859E-03  1.0544E+00  1.0835E+00
ac ID =   33377                -1.8854E+00  2.4617E+01 -3.6621E-01  2.4692E+01
                               -6.1749E-01  3.0648E+01 -3.6130E+01  2.5147E+03

           1    1.70003E+01     2.8071E-01 -1.9199E-02  1.0697E+00  1.1061E+00
ac ID =   33377                -5.8271E-01  2.3824E+01 -6.6352E-01  2.3840E+01
                               -6.2520E-01  3.0829E+01 -3.6052E+01  2.5147E+03

           1    1.71003E+01     2.1803E-01 -1.7415E-03  1.0624E+00  1.0846E+00
ac ID =   33377                -1.5071E+00  2.2495E+01 -1.0128E+00  2.2568E+01
                               -6.3292E-01  3.1010E+01 -3.5977E+01  2.5147E+03

           1    1.72003E+01     2.0560E-01  9.6370E-03  1.0123E+00  1.0330E+00
ac ID =   33377                -1.9891E+00  2.1806E+01 -8.3458E-01  2.1912E+01
                               -6.4071E-01  3.1192E+01 -3.5906E+01  2.5147E+03

           1    1.73003E+01     2.5746E-01  1.0745E-02  9.8934E-01  1.0223E+00
ac ID =   33377                -2.0798E+00  2.2640E+01 -3.8009E-01  2.2738E+01
                               -6.4871E-01  3.1373E+01 -3.5838E+01  2.5147E+03

           1    1.74003E+01     2.4171E-01 -3.3837E-04  9.8603E-01  1.0152E+00
ac ID =   33377                -1.0885E+00  2.2185E+01 -1.3644E-01  2.2212E+01
                               -6.5667E-01  3.1555E+01 -3.5774E+01  2.5147E+03

           1    1.75002E+01     2.3180E-01  3.6096E-03  9.3661E-01  9.6487E-01
ac ID =   33377                -2.0746E+00  2.1787E+01 -1.7266E-01  2.1886E+01
                               -6.6456E-01  3.1737E+01 -3.5713E+01  2.5147E+03

           1    1.76002E+01     2.3724E-01  1.5446E-02  9.1992E-01  9.5014E-01
ac ID =   33377                -1.5422E+00  2.1002E+01 -3.7646E-01  2.1062E+01
                               -6.7277E-01  3.1918E+01 -3.5655E+01  2.5147E+03

           1    1.77002E+01     2.3200E-01 -1.0334E-02  8.8830E-01  9.1816E-01
ac ID =   33377                -1.2840E+00  2.0166E+01 -9.1254E-01  2.0227E+01
                               -6.8086E-01  3.2099E+01 -3.5600E+01  2.5147E+03

           1    1.78002E+01     2.1639E-01  2.1324E-03  8.8984E-01  9.1577E-01
ac ID =   33377                -2.3135E+00  1.9210E+01 -6.9815E-01  1.9361E+01
                               -6.8890E-01  3.2281E+01 -3.5548E+01  2.5147E+03

           1    1.79002E+01     2.1828E-01  2.8821E-02  8.7401E-01  9.0131E-01
ac ID =   33377                -2.1892E+00  1.9062E+01 -5.4625E-01  1.9195E+01
                               -6.9713E-01  3.2461E+01 -3.5498E+01  2.5147E+03

           1    1.80002E+01     2.2118E-01 -5.7377E-03  8.4146E-01  8.7006E-01
ac ID =   33377                -1.9097E+00  1.9058E+01 -9.5868E-01  1.9177E+01
                               -7.0528E-01  3.2642E+01 -3.5452E+01  2.5147E+03

           1    1.81002E+01     2.2031E-01  2.6839E-02  7.9074E-01  8.2130E-01
ac ID =   33377                -2.5149E+00  1.8390E+01 -9.2819E-01  1.8584E+01
                               -7.1359E-01  3.2823E+01 -3.5408E+01  2.5147E+03

           1    1.82002E+01     2.1495E-01  9.6253E-03  7.8544E-01  8.1438E-01
ac ID =   33377                -2.3380E+00  1.7574E+01 -7.9040E-01  1.7747E+01
                               -7.2195E-01  3.3003E+01 -3.5366E+01  2.5147E+03

           1    1.83002E+01     2.1281E-01 -1.2081E-03  7.5742E-01  7.8675E-01
ac ID =   33377                -2.1155E+00  1.6500E+01 -4.1848E-01  1.6640E+01
                               -7.3046E-01  3.3182E+01 -3.5327E+01  2.5147E+03

           1    1.84002E+01     1.9473E-01  1.1442E-02  7.2869E-01  7.5435E-01
ac ID =   33377                -1.9453E+00  1.5651E+01 -2.3073E-01  1.5773E+01
                               -7.3920E-01  3.3362E+01 -3.5291E+01  2.5147E+03

           1    1.85001E+01     2.0652E-01  7.1333E-03  6.7933E-01  7.1007E-01
ac ID =   33377                -2.0501E+00  1.4942E+01 -2.4002E-01  1.5083E+01
                               -7.4789E-01  3.3541E+01 -3.5257E+01  2.5147E+03

           1    1.86001E+01     1.8894E-01  9.9676E-03  6.4315E-01  6.7041E-01
ac ID =   33377                -2.1714E+00  1.4416E+01 -8.6895E-01  1.4604E+01
                               -7.5678E-01  3.3719E+01 -3.5225E+01  2.5147E+03

           1    1.87001E+01     1.8589E-01  9.5115E-03  6.3437E-01  6.6112E-01
ac ID =   33377                -1.9792E+00  1.3489E+01 -1.3107E+00  1.3696E+01
                               -7.6577E-01  3.3898E+01 -3.5195E+01  2.5147E+03

           1    1.88001E+01     2.0703E-01  1.1909E-02  5.8944E-01  6.2486E-01
ac ID =   33377                -2.4933E+00  1.3795E+01 -1.1240E+00  1.4063E+01
                               -7.7478E-01  3.4075E+01 -3.5168E+01  2.5147E+03

           1    1.89001E+01     1.9907E-01  1.2547E-02  5.4486E-01  5.8022E-01
ac ID =   33377                -2.5253E+00  1.3129E+01 -7.7480E-01  1.3392E+01
                               -7.8390E-01  3.4252E+01 -3.5142E+01  2.5147E+03

           1    1.90001E+01     1.6625E-01  1.8045E-02  5.0639E-01  5.3329E-01
ac ID =   33377                -2.5158E+00  1.2139E+01 -2.2480E-01  1.2399E+01
                               -7.9320E-01  3.4429E+01 -3.5118E+01  2.5147E+03

           1    1.91001E+01     2.0447E-01  2.1390E-02  4.7409E-01  5.1675E-01
ac ID =   33377                -2.4101E+00  1.2470E+01 -1.0306E-01  1.2701E+01
                               -8.0249E-01  3.4605E+01 -3.5096E+01  2.5147E+03

           1    1.92001E+01     2.1456E-01 -5.9591E-03  4.3356E-01  4.8378E-01
ac ID =   33377                -2.3730E+00  1.1803E+01 -6.8001E-01  1.2058E+01
                               -8.1182E-01  3.4780E+01 -3.5075E+01  2.5147E+03

           1    1.93001E+01     1.8121E-01  6.4112E-03  3.6342E-01  4.0614E-01
ac ID =   33377                -1.5623E+00  1.1328E+01 -1.1020E+00  1.1488E+01
                               -8.2137E-01  3.4955E+01 -3.5056E+01  2.5147E+03

           1    1.94001E+01     2.1446E-01 -3.8299E-04  3.0935E-01  3.7642E-01
ac ID =   33377                -2.0176E+00  1.1508E+01 -9.4884E-01  1.1722E+01
                               -8.3089E-01  3.5129E+01 -3.5038E+01  2.5147E+03

           1    1.95000E+01     2.1537E-01 -2.3827E-02  2.7333E-01  3.4880E-01
ac ID =   33377                -8.5938E-01  1.1399E+01 -6.2213E-01  1.1448E+01
                               -8.4059E-01  3.5302E+01 -3.5021E+01  2.5147E+03

           1    1.96000E+01     1.9612E-01  1.0019E-02  2.1852E-01  2.9379E-01
ac ID =   33377                -1.2968E+00  1.0207E+01 -5.0298E-01  1.0301E+01
                               -8.5046E-01  3.5475E+01 -3.5005E+01  2.5147E+03

           1    1.97005E+01     2.0215E-01 -5.7615E-03  1.6984E-01  2.6409E-01
ac ID =   33377                -1.3410E+00  9.7033E+00 -9.9204E-01  9.8456E+00
                               -8.6040E-01  3.5647E+01 -3.4990E+01  2.5147E+03

           1    1.98005E+01     2.2834E-01  5.7841E-04  1.3070E-01  2.6311E-01
ac ID =   33377                -1.0227E+00  9.8964E+00 -1.3405E+00  1.0039E+01
                               -8.7034E-01  3.5818E+01 -3.4977E+01  2.5147E+03

           1    1.99005E+01     1.9969E-01 -1.4634E-02  1.0324E-01  2.2528E-01
ac ID =   33377                -1.0800E+00  9.3784E+00 -5.3766E-01  9.4556E+00
                               -8.8036E-01  3.5988E+01 -3.4964E+01  2.5147E+03

           1    2.00005E+01     1.9373E-01 -3.1620E-03  5.5141E-02  2.0145E-01
ac ID =   33377                -8.4525E-01  8.8141E+00  3.2693E-01  8.8606E+00
                               -8.9057E-01  3.6157E+01 -3.4951E+01  2.5147E+03

           1    2.01005E+01     2.2352E-01  1.1446E-02  3.4661E-02  2.2648E-01
ac ID =   33377                -1.5676E+00  8.5338E+00  1.1837E-01  8.6774E+00
                               -9.0078E-01  3.6325E+01 -3.4939E+01  2.5147E+03

           1    2.02005E+01     2.2471E-01 -1.3220E-03 -4.6045E-02  2.2938E-01
ac ID =   33377                -6.8061E-01  7.7171E+00 -8.9296E-01  7.7983E+00
                               -9.1098E-01  3.6492E+01 -3.4927E+01  2.5147E+03

           1    2.03005E+01     1.9457E-01 -2.4460E-02 -7.0512E-02  2.0840E-01
ac ID =   33377                -1.9567E-01  6.6275E+00 -1.3228E+00  6.7610E+00
                               -9.2115E-01  3.6658E+01 -3.4916E+01  2.5147E+03

           1    2.04005E+01     1.9581E-01 -4.5290E-03 -7.7574E-02  2.1066E-01
ac ID =   33377                -4.3625E-02  6.5113E+00 -8.3230E-01  6.5644E+00
                               -9.3137E-01  3.6824E+01 -3.4905E+01  2.5147E+03

           1    2.05004E+01     2.4095E-01 -4.8629E-03 -1.6084E-01  2.8974E-01
ac ID =   33377                -3.2143E-01  6.9401E+00 -4.3765E-01  6.9613E+00
                               -9.4158E-01  3.6988E+01 -3.4894E+01  2.5147E+03

           1    2.06004E+01     2.0506E-01 -2.8487E-02 -1.9287E-01  2.8295E-01
ac ID =   33377                 3.0906E-01  6.0033E+00 -5.2659E-01  6.0343E+00
                               -9.5175E-01  3.7151E+01 -3.4883E+01  2.5147E+03

           1    2.07004E+01     2.1114E-01 -2.4287E-02 -1.9066E-01  2.8552E-01
ac ID =   33377                 5.2875E-01  5.1765E+00 -8.8756E-01  5.2786E+00
                               -9.6200E-01  3.7313E+01 -3.4871E+01  2.5147E+03

           1    2.08004E+01     2.3479E-01 -1.4912E-02 -2.1905E-01  3.2145E-01
ac ID =   33377                -1.4505E-01  5.2015E+00 -7.7793E-01  5.2613E+00
                               -9.7219E-01  3.7474E+01 -3.4860E+01  2.5147E+03

           1    2.09004E+01     2.1713E-01 -1.8162E-02 -2.6047E-01  3.3959E-01
ac ID =   33377                 3.2928E-01  4.4988E+00 -2.7528E-01  4.5192E+00
                               -9.8244E-01  3.7635E+01 -3.4848E+01  2.5147E+03

           1    2.10004E+01     2.1839E-01 -3.2694E-02 -2.7465E-01  3.5241E-01
ac ID =   33377                 7.6339E-01  4.1134E+00 -2.3387E-01  4.1902E+00
                               -9.9271E-01  3.7794E+01 -3.4836E+01  2.5147E+03

           1    2.11004E+01     2.3624E-01 -3.4622E-03 -3.4218E-01  4.1582E-01
ac ID =   33377                -5.3633E-02  4.0679E+00 -5.1243E-01  4.1004E+00
                               -1.0029E+00  3.7951E+01 -3.4823E+01  2.5147E+03

           1    2.12004E+01     2.3877E-01 -1.1860E-02 -3.6341E-01  4.3499E-01
ac ID =   33377                 5.0063E-01  3.6570E+00 -1.1945E+00  3.8796E+00
                               -1.0131E+00  3.8108E+01 -3.4810E+01  2.5147E+03

           1    2.13004E+01     2.2726E-01 -2.7913E-02 -3.6457E-01  4.3051E-01
ac ID =   33377                 1.0972E+00  2.4592E+00 -1.0544E+00  2.8919E+00
                               -1.0231E+00  3.8264E+01 -3.4796E+01  2.5147E+03

           1    2.14004E+01     2.4284E-01 -9.8357E-03 -4.4772E-01  5.0943E-01
ac ID =   33377                 1.1821E-01  2.5693E+00 -6.0551E-01  2.6424E+00
                               -1.0330E+00  3.8418E+01 -3.4782E+01  2.5147E+03

           1    2.15003E+01     2.6242E-01 -4.2195E-03 -4.9313E-01  5.5862E-01
ac ID =   33377                 2.9370E-01  2.6172E+00 -4.0232E-01  2.6642E+00
                               -1.0428E+00  3.8571E+01 -3.4766E+01  2.5147E+03

           1    2.16003E+01     2.2219E-01 -2.5740E-02 -4.9785E-01  5.4579E-01
ac ID =   33377                 6.2471E-01  1.7226E+00 -1.1876E-01  1.8362E+00
                               -1.0523E+00  3.8723E+01 -3.4750E+01  2.5147E+03

           1    2.17003E+01     2.3857E-01 -2.3730E-02 -5.1011E-01  5.6364E-01
ac ID =   33377                 5.9859E-01  1.0082E+00 -1.6177E-01  1.1836E+00
                               -1.0619E+00  3.8874E+01 -3.4732E+01  2.5147E+03

           1    2.18003E+01     2.5225E-01 -1.3369E-02 -5.3142E-01  5.8840E-01
ac ID =   33377                 3.3420E-01  7.9962E-01 -7.5937E-01  1.1523E+00
                               -1.0714E+00  3.9024E+01 -3.4713E+01  2.5147E+03

           1    2.19003E+01     2.3370E-01 -1.0418E-02 -5.8633E-01  6.3128E-01
ac ID =   33377                 4.2596E-01 -3.4171E-01 -5.3297E-01  7.6306E-01
                               -1.0808E+00  3.9172E+01 -3.4693E+01  2.5147E+03

           1    2.20003E+01     2.2264E-01 -3.6133E-02 -6.1159E-01  6.5186E-01
ac ID =   33377                 9.0261E-01 -6.3619E-01 -8.7164E-01  1.4068E+00
                               -1.0901E+00  3.9319E+01 -3.4672E+01  2.5147E+03

           1    2.21003E+01     2.4818E-01  1.9351E-03 -5.9533E-01  6.4499E-01
ac ID =   33377                 2.4635E-01 -7.5983E-01 -7.5619E-01  1.0999E+00
                               -1.0994E+00  3.9466E+01 -3.4650E+01  2.5147E+03

           1    2.22003E+01     2.5268E-01 -2.7910E-02 -6.1686E-01  6.6719E-01
ac ID =   33377                 7.5124E-01 -1.3066E+00 -7.5798E-01  1.6871E+00
                               -1.1084E+00  3.9611E+01 -3.4626E+01  2.5147E+03

           1    2.23003E+01     2.2275E-01 -1.1623E-02 -6.5953E-01  6.9622E-01
ac ID =   33377                 4.2846E-01 -2.5158E+00 -4.7545E-01  2.5959E+00
                               -1.1175E+00  3.9755E+01 -3.4601E+01  2.5147E+03

           1    2.24003E+01     2.4529E-01 -1.1481E-02 -6.5288E-01  6.9753E-01
ac ID =   33377                 3.5664E-01 -2.8980E+00 -6.4817E-01  2.9909E+00
                               -1.1265E+00  3.9898E+01 -3.4574E+01  2.5147E+03

           1    2.25002E+01     2.3507E-01 -1.4864E-02 -6.5310E-01  6.9428E-01
ac ID =   33377                -5.5161E-02 -3.6055E+00 -4.7585E-01  3.6372E+00
                               -1.1354E+00  4.0040E+01 -3.4545E+01  2.5147E+03

           1    2.26002E+01     2.2583E-01 -2.3885E-02 -6.3846E-01  6.7765E-01
ac ID =   33377                 4.8900E-01 -4.7431E+00 -3.8116E-01  4.7834E+00
                               -1.1444E+00  4.0180E+01 -3.4515E+01  2.5147E+03

           1    2.27002E+01     2.4460E-01 -1.8382E-02 -6.4296E-01  6.8816E-01
ac ID =   33377                 2.8674E-01 -4.4529E+00 -5.9118E-01  4.5011E+00
                               -1.1534E+00  4.0320E+01 -3.4484E+01  2.5147E+03

           1    2.28002E+01     2.4815E-01 -1.5317E-02 -6.7146E-01  7.1601E-01
ac ID =   33377                 1.5879E-01 -5.0861E+00 -1.1203E+00  5.2105E+00
                               -1.1623E+00  4.0459E+01 -3.4451E+01  2.5147E+03

           1    2.29002E+01     2.2027E-01 -2.4304E-02 -6.5307E-01  6.8965E-01
ac ID =   33377                 4.0178E-01 -5.9022E+00 -1.0764E+00  6.0130E+00
                               -1.1713E+00  4.0596E+01 -3.4416E+01  2.5147E+03

           1    2.30002E+01     2.4141E-01 -7.5474E-03 -6.3633E-01  6.8063E-01
ac ID =   33377                 2.4866E-01 -6.0682E+00 -7.2657E-01  6.1166E+00
                               -1.1802E+00  4.0733E+01 -3.4380E+01  2.5147E+03

           1    2.31002E+01     2.4022E-01 -3.3319E-02 -6.4248E-01  6.8673E-01
ac ID =   33377                 5.7826E-01 -6.5480E+00 -6.9571E-01  6.6102E+00
                               -1.1892E+00  4.0869E+01 -3.4342E+01  2.5147E+03

           1    2.32002E+01     2.3460E-01 -5.6541E-03 -6.6344E-01  7.0372E-01
ac ID =   33377                -1.4319E-01 -7.1639E+00 -3.3806E-01  7.1733E+00
                               -1.1982E+00  4.1004E+01 -3.4302E+01  2.5147E+03

           1    2.33002E+01     2.5516E-01 -1.5375E-02 -6.5503E-01  7.0314E-01
ac ID =   33377                -4.1740E-02 -7.1738E+00 -6.3694E-01  7.2022E+00
                               -1.2072E+00  4.1138E+01 -3.4261E+01  2.5147E+03

           1    2.34002E+01     2.3459E-01 -2.3442E-02 -6.2579E-01  6.6872E-01
ac ID =   33377                 2.8537E-01 -8.1181E+00 -7.0945E-01  8.1541E+00
                               -1.2163E+00  4.1271E+01 -3.4218E+01  2.5147E+03

           1    2.35001E+01     2.2453E-01 -7.3362E-03 -6.2799E-01  6.6697E-01
ac ID =   33377                 1.3530E-01 -8.9420E+00 -5.5356E-01  8.9601E+00
                               -1.2254E+00  4.1403E+01 -3.4174E+01  2.5147E+03

           1    2.36001E+01     2.4077E-01 -2.0373E-02 -6.3494E-01  6.7937E-01
ac ID =   33377                 2.2388E-01 -9.0502E+00 -7.3232E-01  9.0826E+00
                               -1.2345E+00  4.1535E+01 -3.4128E+01  2.5147E+03

           1    2.37001E+01     2.2253E-01 -1.2745E-02 -6.1414E-01  6.5334E-01
ac ID =   33377                 3.4642E-01 -9.7496E+00 -9.8689E-01  9.8055E+00
                               -1.2437E+00  4.1665E+01 -3.4080E+01  2.5147E+03

           1    2.38001E+01     2.1710E-01 -1.5405E-02 -5.9338E-01  6.3204E-01
ac ID =   33377                 5.8206E-01 -1.0292E+01 -1.1333E+00  1.0370E+01
                               -1.2528E+00  4.1795E+01 -3.4031E+01  2.5147E+03

           1    2.39001E+01     2.2918E-01 -1.4906E-02 -5.7800E-01  6.2196E-01
ac ID =   33377                 2.3170E-01 -1.0622E+01 -8.2214E-01  1.0656E+01
                               -1.2618E+00  4.1924E+01 -3.3980E+01  2.5147E+03

           1    2.40001E+01     2.1414E-01 -1.7743E-02 -5.7244E-01  6.1143E-01
ac ID =   33377                 7.3827E-01 -1.1235E+01 -8.1399E-01  1.1288E+01
                               -1.2710E+00  4.2053E+01 -3.3927E+01  2.5147E+03

           1    2.41001E+01     2.0192E-01 -1.6249E-02 -5.6349E-01  5.9880E-01
ac ID =   33377                 5.7498E-01 -1.2337E+01 -5.4616E-01  1.2362E+01
                               -1.2800E+00  4.2180E+01 -3.3873E+01  2.5147E+03

           1    2.42001E+01     2.0860E-01 -1.2254E-03 -5.2797E-01  5.6768E-01
ac ID =   33377                -1.0687E-01 -1.2772E+01 -4.5294E-01  1.2780E+01
                               -1.2889E+00  4.2307E+01 -3.3817E+01  2.5147E+03

           1    2.43001E+01     2.0768E-01 -1.7730E-02 -4.9145E-01  5.3382E-01
ac ID =   33377                 6.5738E-01 -1.3316E+01 -7.0828E-01  1.3351E+01
                               -1.2977E+00  4.2434E+01 -3.3760E+01  2.5147E+03

           1    2.44001E+01     2.0305E-01 -2.1088E-02 -4.8113E-01  5.2265E-01
ac ID =   33377                 6.4673E-01 -1.3562E+01 -7.4060E-01  1.3598E+01
                               -1.3065E+00  4.2560E+01 -3.3701E+01  2.5147E+03

           1    2.45005E+01     1.9377E-01 -3.7118E-03 -4.5815E-01  4.9746E-01
ac ID =   33377                 3.3560E-01 -1.4103E+01 -1.0707E+00  1.4148E+01
                               -1.3152E+00  4.2685E+01 -3.3641E+01  2.5147E+03

           1    2.46005E+01     1.9453E-01 -1.9188E-02 -4.3182E-01  4.7400E-01
ac ID =   33377                 7.6673E-01 -1.4591E+01 -1.1839E+00  1.4659E+01
                               -1.3237E+00  4.2810E+01 -3.3579E+01  2.5147E+03

           1    2.47005E+01     1.9078E-01 -2.3339E-02 -3.7726E-01  4.2340E-01
ac ID =   33377                 1.2871E+00 -1.5313E+01 -7.4644E-01  1.5385E+01
                               -1.3321E+00  4.2935E+01 -3.3516E+01  2.5147E+03

           1    2.48005E+01     1.8585E-01 -3.9383E-02 -3.1872E-01  3.7104E-01
ac ID =   33377                 1.5073E+00 -1.6046E+01 -8.1872E-01  1.6137E+01
                               -1.3405E+00  4.3058E+01 -3.3452E+01  2.5147E+03

           1    2.49005E+01     1.8606E-01 -6.2641E-03 -3.3174E-01  3.8041E-01
ac ID =   33377                 1.0796E+00 -1.6223E+01 -5.3109E-01  1.6267E+01
                               -1.3487E+00  4.3182E+01 -3.3387E+01  2.5147E+03

