 LSTC 50th% Full_FE H-III Dummy (Beta Version, February 17, 2019)        
                    ls-dyna smp s R16 R16.0_619_d222963 date 03/18/2025

{BEGIN LEGEND}
 Entity #        Title
    22626                                                                                     
{END LEGEND}




 n o d a l   p r i n t   o u t   f o r   t i m e  s t e p       1                              ( at time 0.0000000E+00 )

 nodal point  x-disp     y-disp      z-disp      x-vel       y-vel       z-vel      x-accl      y-accl      z-accl      x-coor      y-coor      z-coor
    22626  0.00000E+00 0.00000E+00 0.00000E+00 0.00000E+00 0.00000E+00-3.12000E+00 0.00000E+00 0.00000E+00 0.00000E+00 4.79642E+01-2.20298E+01 7.33850E+00



 n o d a l   p r i n t   o u t   f o r   t i m e  s t e p       1                              ( at time 0.0000000E+00 )

 nodal point  x-rot      y-rot       z-rot       x-rot vel   y-rot vel   z-rot vel   x-rot acc   y-rot acc   z-rot acc
    22626  0.00000E+00 0.00000E+00 0.00000E+00 0.00000E+00 0.00000E+00 0.00000E+00 0.00000E+00 0.00000E+00 0.00000E+00



 n o d a l   p r i n t   o u t   f o r   t i m e  s t e p     201                              ( at time 9.9989993E-02 )

 nodal point  x-disp     y-disp      z-disp      x-vel       y-vel       z-vel      x-accl      y-accl      z-accl      x-coor      y-coor      z-coor
    22626  8.34076E-07-4.04493E-06-3.12016E-01 4.76702E-05-4.96468E-04-3.12074E+00 4.76750E-04-4.96518E-03-7.42748E-03 4.79642E+01-2.20298E+01 7.02648E+00



 n o d a l   p r i n t   o u t   f o r   t i m e  s t e p     201                              ( at time 9.9989993E-02 )

 nodal point  x-rot      y-rot       z-rot       x-rot vel   y-rot vel   z-rot vel   x-rot acc   y-rot acc   z-rot acc
    22626  9.60758E-09 3.04049E-08 5.26989E-08 1.30636E-06 2.72194E-06 5.21128E-06 1.30649E-05 2.72221E-05 5.21180E-05



 n o d a l   p r i n t   o u t   f o r   t i m e  s t e p     401                              ( at time 1.9997999E-01 )

 nodal point  x-disp     y-disp      z-disp      x-vel       y-vel       z-vel      x-accl      y-accl      z-accl      x-coor      y-coor      z-coor
    22626 -5.12799E-05-5.21571E-04-6.23853E-01-1.09755E-03-1.11138E-02-3.11558E+00-1.14534E-02-1.06184E-01 5.16132E-02 4.79641E+01-2.20303E+01 6.71465E+00



 n o d a l   p r i n t   o u t   f o r   t i m e  s t e p     401                              ( at time 1.9997999E-01 )

 nodal point  x-rot      y-rot       z-rot       x-rot vel   y-rot vel   z-rot vel   x-rot acc   y-rot acc   z-rot acc
    22626  4.60627E-07 1.32978E-06 2.50221E-06 2.66237E-06 1.90239E-05 3.49158E-05 1.35614E-05 1.63036E-04 2.97075E-04



 n o d a l   p r i n t   o u t   f o r   t i m e  s t e p     601                              ( at time 2.9996998E-01 )

 nodal point  x-disp     y-disp      z-disp      x-vel       y-vel       z-vel      x-accl      y-accl      z-accl      x-coor      y-coor      z-coor
    22626 -2.45725E-05-1.97634E-03-9.35238E-01 1.65993E-03-1.60479E-02-3.11415E+00 2.75777E-02-4.93451E-02 1.43471E-02 4.79642E+01-2.20318E+01 6.40326E+00



 n o d a l   p r i n t   o u t   f o r   t i m e  s t e p     601                              ( at time 2.9996998E-01 )

 nodal point  x-rot      y-rot       z-rot       x-rot vel   y-rot vel   z-rot vel   x-rot acc   y-rot acc   z-rot acc
    22626  6.74877E-07 2.41159E-06 4.82788E-06 8.28719E-06 5.38094E-06 1.46433E-05 5.62539E-05-1.36444E-04-2.02746E-04



 n o d a l   p r i n t   o u t   f o r   t i m e  s t e p     801                              ( at time 3.9995997E-01 )

 nodal point  x-disp     y-disp      z-disp      x-vel       y-vel       z-vel      x-accl      y-accl      z-accl      x-coor      y-coor      z-coor
    22626  5.94768E-05-3.57404E-03-1.24663E+00 1.93299E-04-1.73924E-02-3.11353E+00-1.46678E-02-1.34471E-02 6.15420E-03 4.79642E+01-2.20334E+01 6.09187E+00



 n o d a l   p r i n t   o u t   f o r   t i m e  s t e p     801                              ( at time 3.9995997E-01 )

 nodal point  x-rot      y-rot       z-rot       x-rot vel   y-rot vel   z-rot vel   x-rot acc   y-rot acc   z-rot acc
    22626  1.58161E-06 3.68094E-06 6.68037E-06 6.24126E-06 2.42073E-05 3.81911E-05-2.04614E-05 1.88283E-04 2.35501E-04



 n o d a l   p r i n t   o u t   f o r   t i m e  s t e p    1001                              ( at time 4.9994997E-01 )

 nodal point  x-disp     y-disp      z-disp      x-vel       y-vel       z-vel      x-accl      y-accl      z-accl      x-coor      y-coor      z-coor
    22626  7.27462E-05-5.63144E-03-1.55782E+00 8.92057E-04-2.38468E-02-3.11085E+00 6.98828E-03-6.45500E-02 2.68129E-02 4.79643E+01-2.20354E+01 5.78068E+00



 n o d a l   p r i n t   o u t   f o r   t i m e  s t e p    1001                              ( at time 4.9994997E-01 )

 nodal point  x-rot      y-rot       z-rot       x-rot vel   y-rot vel   z-rot vel   x-rot acc   y-rot acc   z-rot acc
    22626  1.49468E-06 6.64834E-06 1.18372E-05-4.84079E-06 4.37510E-05 7.19331E-05-1.10832E-04 1.95456E-04 3.37454E-04



 n o d a l   p r i n t   o u t   f o r   t i m e  s t e p    1201                              ( at time 5.9993996E-01 )

 nodal point  x-disp     y-disp      z-disp      x-vel       y-vel       z-vel      x-accl      y-accl      z-accl      x-coor      y-coor      z-coor
    22626  5.29422E-05-8.13743E-03-1.86888E+00-5.62472E-04-2.61218E-02-3.11084E+00-1.45467E-02-2.27524E-02 1.23990E-04 4.79642E+01-2.20379E+01 5.46962E+00



 n o d a l   p r i n t   o u t   f o r   t i m e  s t e p    1201                              ( at time 5.9993996E-01 )

 nodal point  x-rot      y-rot       z-rot       x-rot vel   y-rot vel   z-rot vel   x-rot acc   y-rot acc   z-rot acc
    22626  1.26547E-06 9.87488E-06 1.77376E-05-2.17209E-06 2.63781E-05 5.29955E-05 2.66897E-05-1.73747E-04-1.89395E-04



 n o d a l   p r i n t   o u t   f o r   t i m e  s t e p    1401                              ( at time 6.9992995E-01 )

 nodal point  x-disp     y-disp      z-disp      x-vel       y-vel       z-vel      x-accl      y-accl      z-accl      x-coor      y-coor      z-coor
    22626  1.97065E-05-1.10207E-02-2.17976E+00 7.16652E-04-3.22417E-02-3.10770E+00 1.27925E-02-6.12053E-02 3.13957E-02 4.79642E+01-2.20408E+01 5.15874E+00



 n o d a l   p r i n t   o u t   f o r   t i m e  s t e p    1401                              ( at time 6.9992995E-01 )

 nodal point  x-rot      y-rot       z-rot       x-rot vel   y-rot vel   z-rot vel   x-rot acc   y-rot acc   z-rot acc
    22626  1.10197E-06 1.30704E-05 2.27057E-05-2.42487E-06 3.78355E-05 5.93274E-05-2.52808E-06 1.14586E-04 6.33254E-05



 n o d a l   p r i n t   o u t   f o r   t i m e  s t e p    1601                              ( at time 7.9991994E-01 )

 nodal point  x-disp     y-disp      z-disp      x-vel       y-vel       z-vel      x-accl      y-accl      z-accl      x-coor      y-coor      z-coor
    22626  1.33084E-04-1.45710E-02-2.49038E+00 1.37371E-03-3.68174E-02-3.10600E+00 6.57123E-03-4.57612E-02 1.69962E-02 4.79643E+01-2.20444E+01 4.84812E+00



 n o d a l   p r i n t   o u t   f o r   t i m e  s t e p    1601                              ( at time 7.9991994E-01 )

 nodal point  x-rot      y-rot       z-rot       x-rot vel   y-rot vel   z-rot vel   x-rot acc   y-rot acc   z-rot acc
    22626  1.00685E-06 1.72062E-05 2.96654E-05 2.96679E-06 4.88946E-05 7.64963E-05 5.39221E-05 1.10602E-04 1.71706E-04



 n o d a l   p r i n t   o u t   f o r   t i m e  s t e p    1801                              ( at time 8.9990994E-01 )

 nodal point  x-disp     y-disp      z-disp      x-vel       y-vel       z-vel      x-accl      y-accl      z-accl      x-coor      y-coor      z-coor
    22626  2.07427E-04-1.82140E-02-2.80104E+00-5.06233E-04-3.64354E-02-3.10742E+00-1.88013E-02 3.82022E-03-1.41969E-02 4.79644E+01-2.20480E+01 4.53746E+00



 n o d a l   p r i n t   o u t   f o r   t i m e  s t e p    1801                              ( at time 8.9990994E-01 )

 nodal point  x-rot      y-rot       z-rot       x-rot vel   y-rot vel   z-rot vel   x-rot acc   y-rot acc   z-rot acc
    22626  1.02414E-06 2.13200E-05 3.66568E-05-1.91033E-06 3.79573E-05 6.83277E-05-4.87762E-05-1.09384E-04-8.16943E-05



 n o d a l   p r i n t   o u t   f o r   t i m e  s t e p    2001                              ( at time 9.9989993E-01 )

 nodal point  x-disp     y-disp      z-disp      x-vel       y-vel       z-vel      x-accl      y-accl      z-accl      x-coor      y-coor      z-coor
    22626  1.09798E-04-2.19275E-02-3.11175E+00-8.17553E-04-3.83965E-02-3.10755E+00-3.11350E-03-1.96136E-02-1.33766E-03 4.79643E+01-2.20517E+01 4.22675E+00



 n o d a l   p r i n t   o u t   f o r   t i m e  s t e p    2001                              ( at time 9.9989993E-01 )

 nodal point  x-rot      y-rot       z-rot       x-rot vel   y-rot vel   z-rot vel   x-rot acc   y-rot acc   z-rot acc
    22626  8.57207E-07 2.55324E-05 4.38497E-05-8.77608E-07 4.61774E-05 8.59649E-05 1.03283E-05 8.22090E-05 1.76390E-04



 n o d a l   p r i n t   o u t   f o r   t i m e  s t e p    2201                              ( at time 1.0998899E+00 )

 nodal point  x-disp     y-disp      z-disp      x-vel       y-vel       z-vel      x-accl      y-accl      z-accl      x-coor      y-coor      z-coor
    22626  9.19009E-05-2.58761E-02-3.42246E+00-2.09513E-04-4.02574E-02-3.10712E+00 6.08101E-03-1.86104E-02 4.36111E-03 4.79643E+01-2.20557E+01 3.91605E+00



 n o d a l   p r i n t   o u t   f o r   t i m e  s t e p    2201                              ( at time 1.0998899E+00 )

 nodal point  x-rot      y-rot       z-rot       x-rot vel   y-rot vel   z-rot vel   x-rot acc   y-rot acc   z-rot acc
    22626  9.33063E-07 3.03119E-05 5.24803E-05 5.33082E-06 4.66237E-05 7.52608E-05 6.20905E-05 4.46283E-06-1.07052E-04



 n o d a l   p r i n t   o u t   f o r   t i m e  s t e p    2401                              ( at time 1.1998799E+00 )

 nodal point  x-disp     y-disp      z-disp      x-vel       y-vel       z-vel      x-accl      y-accl      z-accl      x-coor      y-coor      z-coor
    22626  1.34296E-04-2.98901E-02-3.73320E+00 7.35380E-04-3.98067E-02-3.10850E+00 9.44988E-03 4.50798E-03-1.37844E-02 4.79643E+01-2.20597E+01 3.60531E+00



 n o d a l   p r i n t   o u t   f o r   t i m e  s t e p    2401                              ( at time 1.1998799E+00 )

 nodal point  x-rot      y-rot       z-rot       x-rot vel   y-rot vel   z-rot vel   x-rot acc   y-rot acc   z-rot acc
    22626  1.33588E-06 3.44644E-05 5.93280E-05 5.03568E-06 3.98557E-05 6.55346E-05-2.95172E-06-6.76864E-05-9.72712E-05



 n o d a l   p r i n t   o u t   f o r   t i m e  s t e p    2601                              ( at time 1.2998699E+00 )

 nodal point  x-disp     y-disp      z-disp      x-vel       y-vel       z-vel      x-accl      y-accl      z-accl      x-coor      y-coor      z-coor
    22626  1.46151E-04-3.37303E-02-4.04413E+00-4.22122E-04-3.65967E-02-3.11132E+00-1.15762E-02 3.21027E-02-2.82840E-02 4.79643E+01-2.20635E+01 3.29437E+00



 n o d a l   p r i n t   o u t   f o r   t i m e  s t e p    2601                              ( at time 1.2998699E+00 )

 nodal point  x-rot      y-rot       z-rot       x-rot vel   y-rot vel   z-rot vel   x-rot acc   y-rot acc   z-rot acc
    22626  1.63862E-06 3.85414E-05 6.61325E-05-2.48074E-06 4.53997E-05 7.97875E-05-7.51716E-05 5.54455E-05 1.42543E-04



 n o d a l   p r i n t   o u t   f o r   t i m e  s t e p    2801                              ( at time 1.3998599E+00 )

 nodal point  x-disp     y-disp      z-disp      x-vel       y-vel       z-vel      x-accl      y-accl      z-accl      x-coor      y-coor      z-coor
    22626  3.21734E-05-3.71240E-02-4.35543E+00-1.30816E-03-3.14329E-02-3.11511E+00-8.86122E-03 5.16434E-02-3.78647E-02 4.79642E+01-2.20669E+01 2.98307E+00



 n o d a l   p r i n t   o u t   f o r   t i m e  s t e p    2801                              ( at time 1.3998599E+00 )

 nodal point  x-rot      y-rot       z-rot       x-rot vel   y-rot vel   z-rot vel   x-rot acc   y-rot acc   z-rot acc
    22626  1.20363E-06 4.29480E-05 7.39891E-05-4.46122E-06 4.44883E-05 7.34182E-05-1.98068E-05-9.11452E-06-6.36993E-05



 n o d a l   p r i n t   o u t   f o r   t i m e  s t e p    3001                              ( at time 1.4998499E+00 )

 nodal point  x-disp     y-disp      z-disp      x-vel       y-vel       z-vel      x-accl      y-accl      z-accl      x-coor      y-coor      z-coor
    22626 -7.76425E-05-4.01686E-02-4.66702E+00-4.95012E-04-2.97668E-02-3.11713E+00 8.13224E-03 1.66625E-02-2.02008E-02 4.79641E+01-2.20700E+01 2.67148E+00



 n o d a l   p r i n t   o u t   f o r   t i m e  s t e p    3001                              ( at time 1.4998499E+00 )

 nodal point  x-rot      y-rot       z-rot       x-rot vel   y-rot vel   z-rot vel   x-rot acc   y-rot acc   z-rot acc
    22626  8.27114E-07 4.68496E-05 8.05196E-05-1.60491E-06 3.18589E-05 5.70571E-05 2.85659E-05-1.26307E-04-1.63627E-04



 n o d a l   p r i n t   o u t   f o r   t i m e  s t e p    3201                              ( at time 1.5998399E+00 )

 nodal point  x-disp     y-disp      z-disp      x-vel       y-vel       z-vel      x-accl      y-accl      z-accl      x-coor      y-coor      z-coor
    22626 -1.24448E-04-4.30592E-02-4.97879E+00-6.98618E-04-2.75141E-02-3.11940E+00-2.03626E-03 2.25294E-02-2.26663E-02 4.79641E+01-2.20728E+01 2.35971E+00



 n o d a l   p r i n t   o u t   f o r   t i m e  s t e p    3201                              ( at time 1.5998399E+00 )

 nodal point  x-rot      y-rot       z-rot       x-rot vel   y-rot vel   z-rot vel   x-rot acc   y-rot acc   z-rot acc
    22626  5.14376E-07 4.99092E-05 8.53944E-05-1.50648E-06 3.26859E-05 4.79418E-05 9.84369E-07 8.27083E-06-9.11615E-05



 n o d a l   p r i n t   o u t   f o r   t i m e  s t e p    3401                              ( at time 1.6998299E+00 )

 nodal point  x-disp     y-disp      z-disp      x-vel       y-vel       z-vel      x-accl      y-accl      z-accl      x-coor      y-coor      z-coor
    22626 -2.11157E-04-4.55735E-02-5.29088E+00-1.12995E-03-2.24373E-02-3.12325E+00-4.31379E-03 5.07728E-02-3.85585E-02 4.79640E+01-2.20754E+01 2.04762E+00



 n o d a l   p r i n t   o u t   f o r   t i m e  s t e p    3401                              ( at time 1.6998299E+00 )

 nodal point  x-rot      y-rot       z-rot       x-rot vel   y-rot vel   z-rot vel   x-rot acc   y-rot acc   z-rot acc
    22626  3.01216E-07 5.29903E-05 9.04268E-05-3.82395E-06 2.98298E-05 4.78346E-05-2.31770E-05-2.85632E-05-1.07280E-06



 n o d a l   p r i n t   o u t   f o r   t i m e  s t e p    3601                              ( at time 1.7998199E+00 )

 nodal point  x-disp     y-disp      z-disp      x-vel       y-vel       z-vel      x-accl      y-accl      z-accl      x-coor      y-coor      z-coor
    22626 -3.12810E-04-4.75641E-02-5.60339E+00-1.32793E-03-1.77154E-02-3.12732E+00-1.97997E-03 4.72238E-02-4.07355E-02 4.79639E+01-2.20774E+01 1.73511E+00



 n o d a l   p r i n t   o u t   f o r   t i m e  s t e p    3601                              ( at time 1.7998199E+00 )

 nodal point  x-rot      y-rot       z-rot       x-rot vel   y-rot vel   z-rot vel   x-rot acc   y-rot acc   z-rot acc
    22626  1.54625E-07 5.57778E-05 9.51854E-05-3.63746E-07 2.13884E-05 4.22020E-05 3.46055E-05-8.44225E-05-5.63312E-05



 n o d a l   p r i n t   o u t   f o r   t i m e  s t e p    3801                              ( at time 1.8998099E+00 )

 nodal point  x-disp     y-disp      z-disp      x-vel       y-vel       z-vel      x-accl      y-accl      z-accl      x-coor      y-coor      z-coor
    22626 -5.00404E-04-4.92021E-02-5.91621E+00-2.16349E-03-1.51632E-02-3.12982E+00-8.35643E-03 2.55249E-02-2.49125E-02 4.79637E+01-2.20790E+01 1.42229E+00



 n o d a l   p r i n t   o u t   f o r   t i m e  s t e p    3801                              ( at time 1.8998099E+00 )

 nodal point  x-rot      y-rot       z-rot       x-rot vel   y-rot vel   z-rot vel   x-rot acc   y-rot acc   z-rot acc
    22626 -8.88377E-08 5.76772E-05 9.86017E-05 1.57912E-06 1.55072E-05 2.75264E-05 1.94306E-05-5.88188E-05-1.46770E-04



 n o d a l   p r i n t   o u t   f o r   t i m e  s t e p    4001                              ( at time 1.9997999E+00 )

 nodal point  x-disp     y-disp      z-disp      x-vel       y-vel       z-vel      x-accl      y-accl      z-accl      x-coor      y-coor      z-coor
    22626 -6.74100E-04-5.05924E-02-6.22929E+00-1.65280E-03-1.28114E-02-3.13210E+00 5.10741E-03 2.35204E-02-2.28619E-02 4.79635E+01-2.20804E+01 1.10922E+00



 n o d a l   p r i n t   o u t   f o r   t i m e  s t e p    4001                              ( at time 1.9997999E+00 )

 nodal point  x-rot      y-rot       z-rot       x-rot vel   y-rot vel   z-rot vel   x-rot acc   y-rot acc   z-rot acc
    22626  1.16768E-07 5.90104E-05 1.00908E-04 3.44252E-06 1.32236E-05 2.01710E-05 1.86358E-05-2.28379E-05-7.35615E-05



 n o d a l   p r i n t   o u t   f o r   t i m e  s t e p    4201                              ( at time 2.0997899E+00 )

 nodal point  x-disp     y-disp      z-disp      x-vel       y-vel       z-vel      x-accl      y-accl      z-accl      x-coor      y-coor      z-coor
    22626 -8.43323E-04-5.16834E-02-6.54262E+00-1.85918E-03-9.15740E-03-3.13518E+00-2.06396E-03 3.65432E-02-3.07925E-02 4.79633E+01-2.20815E+01 7.95877E-01



 n o d a l   p r i n t   o u t   f o r   t i m e  s t e p    4201                              ( at time 2.0997899E+00 )

 nodal point  x-rot      y-rot       z-rot       x-rot vel   y-rot vel   z-rot vel   x-rot acc   y-rot acc   z-rot acc
    22626  4.03260E-07 5.96529E-05 1.01999E-04-1.40180E-06 3.31278E-06 1.56778E-06-4.84480E-05-9.91179E-05-1.86051E-04



 n o d a l   p r i n t   o u t   f o r   t i m e  s t e p    4401                              ( at time 2.1997798E+00 )

 nodal point  x-disp     y-disp      z-disp      x-vel       y-vel       z-vel      x-accl      y-accl      z-accl      x-coor      y-coor      z-coor
    22626 -1.08545E-03-5.23703E-02-6.85629E+00-2.77447E-03-4.41454E-03-3.13895E+00-9.15390E-03 4.74334E-02-3.76620E-02 4.79631E+01-2.20822E+01 4.82213E-01



 n o d a l   p r i n t   o u t   f o r   t i m e  s t e p    4401                              ( at time 2.1997798E+00 )

 nodal point  x-rot      y-rot       z-rot       x-rot vel   y-rot vel   z-rot vel   x-rot acc   y-rot acc   z-rot acc
    22626  2.25896E-07 5.96466E-05 1.01932E-04-1.16255E-06-2.21099E-06-3.18379E-06 2.39284E-06-5.52433E-05-4.75206E-05



 n o d a l   p r i n t   o u t   f o r   t i m e  s t e p    4601                              ( at time 2.2997698E+00 )

 nodal point  x-disp     y-disp      z-disp      x-vel       y-vel       z-vel      x-accl      y-accl      z-accl      x-coor      y-coor      z-coor
    22626 -1.39470E-03-5.25656E-02-7.17034E+00-3.51789E-03-8.51729E-05-3.14227E+00-7.43486E-03 4.32980E-02-3.32460E-02 4.79628E+01-2.20824E+01 1.68163E-01



 n o d a l   p r i n t   o u t   f o r   t i m e  s t e p    4601                              ( at time 2.2997698E+00 )

 nodal point  x-rot      y-rot       z-rot       x-rot vel   y-rot vel   z-rot vel   x-rot acc   y-rot acc   z-rot acc
    22626 -1.61964E-07 5.93303E-05 1.01557E-04-4.52596E-06-9.87072E-06-1.31201E-05-3.36374E-05-7.66048E-05-9.93725E-05



 n o d a l   p r i n t   o u t   f o r   t i m e  s t e p    4801                              ( at time 2.3997598E+00 )

 nodal point  x-disp     y-disp      z-disp      x-vel       y-vel       z-vel      x-accl      y-accl      z-accl      x-coor      y-coor      z-coor
    22626 -1.76365E-03-5.24787E-02-7.48464E+00-3.61307E-03 1.85413E-03-3.14440E+00-9.51959E-04 1.93950E-02-2.12762E-02 4.79624E+01-2.20823E+01-1.46134E-01



 n o d a l   p r i n t   o u t   f o r   t i m e  s t e p    4801                              ( at time 2.3997598E+00 )

 nodal point  x-rot      y-rot       z-rot       x-rot vel   y-rot vel   z-rot vel   x-rot acc   y-rot acc   z-rot acc
    22626 -7.09706E-07 5.80651E-05 9.90711E-05-5.97186E-06-1.62913E-05-3.38505E-05-1.44605E-05-6.42119E-05-2.07325E-04



 n o d a l   p r i n t   o u t   f o r   t i m e  s t e p    5001                              ( at time 2.4997498E+00 )

 nodal point  x-disp     y-disp      z-disp      x-vel       y-vel       z-vel      x-accl      y-accl      z-accl      x-coor      y-coor      z-coor
    22626 -2.15679E-03-5.21715E-02-7.79916E+00-4.24326E-03 4.96272E-03-3.14711E+00-6.30250E-03 3.10890E-02-2.70989E-02 4.79620E+01-2.20820E+01-4.60661E-01



 n o d a l   p r i n t   o u t   f o r   t i m e  s t e p    5001                              ( at time 2.4997498E+00 )

 nodal point  x-rot      y-rot       z-rot       x-rot vel   y-rot vel   z-rot vel   x-rot acc   y-rot acc   z-rot acc
    22626 -1.15562E-06 5.58304E-05 9.51023E-05-4.13442E-06-2.62962E-05-4.86149E-05 1.83763E-05-1.00059E-04-1.47659E-04



 n o d a l   p r i n t   o u t   f o r   t i m e  s t e p    5201                              ( at time 2.5997398E+00 )

 nodal point  x-disp     y-disp      z-disp      x-vel       y-vel       z-vel      x-accl      y-accl      z-accl      x-coor      y-coor      z-coor
    22626 -2.63143E-03-5.14572E-02-8.11403E+00-5.25675E-03 9.27303E-03-3.15070E+00-1.01359E-02 4.31075E-02-3.59047E-02 4.79615E+01-2.20812E+01-7.75526E-01



 n o d a l   p r i n t   o u t   f o r   t i m e  s t e p    5201                              ( at time 2.5997398E+00 )

 nodal point  x-rot      y-rot       z-rot       x-rot vel   y-rot vel   z-rot vel   x-rot acc   y-rot acc   z-rot acc
    22626 -1.52723E-06 5.27247E-05 8.96617E-05-4.71525E-06-3.58849E-05-6.22718E-05-5.80894E-06-9.58968E-05-1.36583E-04



 n o d a l   p r i n t   o u t   f o r   t i m e  s t e p    5401                              ( at time 2.6997298E+00 )

 nodal point  x-disp     y-disp      z-disp      x-vel       y-vel       z-vel      x-accl      y-accl      z-accl      x-coor      y-coor      z-coor
    22626 -3.20150E-03-5.03227E-02-8.42924E+00-6.42517E-03 1.29784E-02-3.15421E+00-1.16853E-02 3.70570E-02-3.51726E-02 4.79610E+01-2.20801E+01-1.09074E+00



 n o d a l   p r i n t   o u t   f o r   t i m e  s t e p    5401                              ( at time 2.6997298E+00 )

 nodal point  x-rot      y-rot       z-rot       x-rot vel   y-rot vel   z-rot vel   x-rot acc   y-rot acc   z-rot acc
    22626 -1.82355E-06 4.89731E-05 8.31558E-05-1.86029E-06-4.12634E-05-6.67431E-05 2.85524E-05-5.37911E-05-4.47173E-05



 n o d a l   p r i n t   o u t   f o r   t i m e  s t e p    5601                              ( at time 2.7997198E+00 )

 nodal point  x-disp     y-disp      z-disp      x-vel       y-vel       z-vel      x-accl      y-accl      z-accl      x-coor      y-coor      z-coor
    22626 -3.91540E-03-4.88983E-02-8.74475E+00-7.68444E-03 1.51480E-02-3.15635E+00-1.25940E-02 2.16989E-02-2.13525E-02 4.79603E+01-2.20787E+01-1.40625E+00



 n o d a l   p r i n t   o u t   f o r   t i m e  s t e p    5601                              ( at time 2.7997198E+00 )

 nodal point  x-rot      y-rot       z-rot       x-rot vel   y-rot vel   z-rot vel   x-rot acc   y-rot acc   z-rot acc
    22626 -1.95885E-06 4.40772E-05 7.50460E-05 3.12597E-07-5.72652E-05-9.83843E-05 2.17310E-05-1.60033E-04-3.16445E-04



 n o d a l   p r i n t   o u t   f o r   t i m e  s t e p    5801                              ( at time 2.8997098E+00 )

 nodal point  x-disp     y-disp      z-disp      x-vel       y-vel       z-vel      x-accl      y-accl      z-accl      x-coor      y-coor      z-coor
    22626 -4.68720E-03-4.73299E-02-9.06044E+00-7.81951E-03 1.61411E-02-3.15804E+00-1.35089E-03 9.93118E-03-1.69151E-02 4.79595E+01-2.20771E+01-1.72194E+00



 n o d a l   p r i n t   o u t   f o r   t i m e  s t e p    5801                              ( at time 2.8997098E+00 )

 nodal point  x-rot      y-rot       z-rot       x-rot vel   y-rot vel   z-rot vel   x-rot acc   y-rot acc   z-rot acc
    22626 -1.75894E-06 3.76361E-05 6.41372E-05 2.43506E-06-6.65516E-05-1.15399E-04 2.12268E-05-9.28739E-05-1.70160E-04



 n o d a l   p r i n t   o u t   f o r   t i m e  s t e p    6001                              ( at time 2.9996998E+00 )

 nodal point  x-disp     y-disp      z-disp      x-vel       y-vel       z-vel      x-accl      y-accl      z-accl      x-coor      y-coor      z-coor
    22626 -5.50794E-03-4.55981E-02-9.37632E+00-8.82779E-03 1.86345E-02-3.16041E+00-1.00838E-02 2.49370E-02-2.36916E-02 4.79587E+01-2.20754E+01-2.03782E+00



 n o d a l   p r i n t   o u t   f o r   t i m e  s t e p    6001                              ( at time 2.9996998E+00 )

 nodal point  x-rot      y-rot       z-rot       x-rot vel   y-rot vel   z-rot vel   x-rot acc   y-rot acc   z-rot acc
    22626 -1.52842E-06 3.07753E-05 5.25716E-05 6.19445E-07-7.09063E-05-1.20937E-04-1.81580E-05-4.35510E-05-5.53892E-05



 n o d a l   p r i n t   o u t   f o r   t i m e  s t e p    6201                              ( at time 3.0996898E+00 )

 nodal point  x-disp     y-disp      z-disp      x-vel       y-vel       z-vel      x-accl      y-accl      z-accl      x-coor      y-coor      z-coor
    22626 -6.47335E-03-4.36171E-02-9.69245E+00-1.04141E-02 2.05583E-02-3.16240E+00-1.58644E-02 1.92399E-02-1.98790E-02 4.79577E+01-2.20734E+01-2.35394E+00



 n o d a l   p r i n t   o u t   f o r   t i m e  s t e p    6201                              ( at time 3.0996898E+00 )

 nodal point  x-rot      y-rot       z-rot       x-rot vel   y-rot vel   z-rot vel   x-rot acc   y-rot acc   z-rot acc
    22626 -1.57854E-06 2.34154E-05 3.99403E-05-1.99319E-06-7.57376E-05-1.33470E-04-2.61290E-05-4.83180E-05-1.25344E-04



 n o d a l   p r i n t   o u t   f o r   t i m e  s t e p    6401                              ( at time 3.1996798E+00 )

 nodal point  x-disp     y-disp      z-disp      x-vel       y-vel       z-vel      x-accl      y-accl      z-accl      x-coor      y-coor      z-coor
    22626 -7.54462E-03-4.15865E-02-1.00087E+01-1.09376E-02 1.97567E-02-3.16298E+00-5.23586E-03-8.01642E-03-5.79891E-03 4.79566E+01-2.20714E+01-2.67020E+00



 n o d a l   p r i n t   o u t   f o r   t i m e  s t e p    6401                              ( at time 3.1996798E+00 )

 nodal point  x-rot      y-rot       z-rot       x-rot vel   y-rot vel   z-rot vel   x-rot acc   y-rot acc   z-rot acc
    22626 -1.71201E-06 1.53413E-05 2.63440E-05-1.57081E-06-8.52567E-05-1.43866E-04 4.22420E-06-9.52003E-05-1.03964E-04



 n o d a l   p r i n t   o u t   f o r   t i m e  s t e p    6601                              ( at time 3.2996698E+00 )

 nodal point  x-disp     y-disp      z-disp      x-vel       y-vel       z-vel      x-accl      y-accl      z-accl      x-coor      y-coor      z-coor
    22626 -8.65074E-03-3.97069E-02-1.03249E+01-1.11909E-02 1.78261E-02-3.16270E+00-2.53367E-03-1.93082E-02 2.78978E-03 4.79555E+01-2.20695E+01-2.98645E+00



 n o d a l   p r i n t   o u t   f o r   t i m e  s t e p    6601                              ( at time 3.2996698E+00 )

 nodal point  x-rot      y-rot       z-rot       x-rot vel   y-rot vel   z-rot vel   x-rot acc   y-rot acc   z-rot acc
    22626 -1.97924E-06 6.64723E-06 1.15805E-05-2.52605E-06-8.94597E-05-1.51602E-04-9.55334E-06-4.20347E-05-7.73738E-05



 n o d a l   p r i n t   o u t   f o r   t i m e  s t e p    6801                              ( at time 3.3996598E+00 )

 nodal point  x-disp     y-disp      z-disp      x-vel       y-vel       z-vel      x-accl      y-accl      z-accl      x-coor      y-coor      z-coor
    22626 -9.80147E-03-3.80157E-02-1.06412E+01-1.17019E-02 1.60353E-02-3.16262E+00-5.11011E-03-1.79096E-02 7.65399E-04 4.79544E+01-2.20678E+01-3.30268E+00



 n o d a l   p r i n t   o u t   f o r   t i m e  s t e p    6801                              ( at time 3.3996598E+00 )

 nodal point  x-rot      y-rot       z-rot       x-rot vel   y-rot vel   z-rot vel   x-rot acc   y-rot acc   z-rot acc
    22626 -2.02865E-06-2.24389E-06-3.71490E-06-2.57499E-06-8.80816E-05-1.53094E-04-4.89427E-07 1.37829E-05-1.49175E-05



 n o d a l   p r i n t   o u t   f o r   t i m e  s t e p    7001                              ( at time 3.4996498E+00 )

 nodal point  x-disp     y-disp      z-disp      x-vel       y-vel       z-vel      x-accl      y-accl      z-accl      x-coor      y-coor      z-coor
    22626 -1.09992E-02-3.64860E-02-1.09574E+01-1.23230E-02 1.44966E-02-3.16281E+00-6.21206E-03-1.53892E-02-1.90516E-03 4.79532E+01-2.20663E+01-3.61892E+00



 n o d a l   p r i n t   o u t   f o r   t i m e  s t e p    7001                              ( at time 3.4996498E+00 )

 nodal point  x-rot      y-rot       z-rot       x-rot vel   y-rot vel   z-rot vel   x-rot acc   y-rot acc   z-rot acc
    22626 -2.02229E-06-1.09081E-05-1.85462E-05 6.30679E-07-8.71499E-05-1.47277E-04 3.20599E-05 9.31751E-06 5.81757E-05



 n o d a l   p r i n t   o u t   f o r   t i m e  s t e p    7201                              ( at time 3.5996397E+00 )

 nodal point  x-disp     y-disp      z-disp      x-vel       y-vel       z-vel      x-accl      y-accl      z-accl      x-coor      y-coor      z-coor
    22626 -1.22540E-02-3.51433E-02-1.12737E+01-1.24138E-02 1.20912E-02-3.16261E+00-9.07563E-04-2.40559E-02 2.06014E-03 4.79519E+01-2.20649E+01-3.93517E+00



 n o d a l   p r i n t   o u t   f o r   t i m e  s t e p    7201                              ( at time 3.5996397E+00 )

 nodal point  x-rot      y-rot       z-rot       x-rot vel   y-rot vel   z-rot vel   x-rot acc   y-rot acc   z-rot acc
    22626 -2.03235E-06-1.95336E-05-3.30327E-05 1.99824E-06-8.48407E-05-1.38736E-04 1.36770E-05 2.30948E-05 8.54173E-05



 n o d a l   p r i n t   o u t   f o r   t i m e  s t e p    7401                              ( at time 3.6996297E+00 )

 nodal point  x-disp     y-disp      z-disp      x-vel       y-vel       z-vel      x-accl      y-accl      z-accl      x-coor      y-coor      z-coor
    22626 -1.34840E-02-3.40996E-02-1.15899E+01-1.21456E-02 8.70890E-03-3.16159E+00 2.68223E-03-3.38267E-02 1.01219E-02 4.79507E+01-2.20639E+01-4.25135E+00



 n o d a l   p r i n t   o u t   f o r   t i m e  s t e p    7401                              ( at time 3.6996297E+00 )

 nodal point  x-rot      y-rot       z-rot       x-rot vel   y-rot vel   z-rot vel   x-rot acc   y-rot acc   z-rot acc
    22626 -1.77798E-06-2.78202E-05-4.68282E-05 3.66514E-06-8.13550E-05-1.36538E-04 1.66707E-05 3.48599E-05 2.19837E-05



 n o d a l   p r i n t   o u t   f o r   t i m e  s t e p    7601                              ( at time 3.7996197E+00 )

 nodal point  x-disp     y-disp      z-disp      x-vel       y-vel       z-vel      x-accl      y-accl      z-accl      x-coor      y-coor      z-coor
    22626 -1.46689E-02-3.33670E-02-1.19059E+01-1.15857E-02 6.00407E-03-3.16088E+00 5.59924E-03-2.70511E-02 7.11990E-03 4.79495E+01-2.20632E+01-4.56744E+00



 n o d a l   p r i n t   o u t   f o r   t i m e  s t e p    7601                              ( at time 3.7996197E+00 )

 nodal point  x-rot      y-rot       z-rot       x-rot vel   y-rot vel   z-rot vel   x-rot acc   y-rot acc   z-rot acc
    22626 -1.31306E-06-3.56356E-05-6.00945E-05 5.29310E-06-7.23477E-05-1.21961E-04 1.62812E-05 9.00820E-05 1.45778E-04



 n o d a l   p r i n t   o u t   f o r   t i m e  s t e p    7801                              ( at time 3.8996097E+00 )

 nodal point  x-disp     y-disp      z-disp      x-vel       y-vel       z-vel      x-accl      y-accl      z-accl      x-coor      y-coor      z-coor
    22626 -1.57963E-02-3.28660E-02-1.22220E+01-1.09420E-02 4.21958E-03-3.16081E+00 6.43797E-03-1.78467E-02 7.65399E-04 4.79484E+01-2.20627E+01-4.88349E+00



 n o d a l   p r i n t   o u t   f o r   t i m e  s t e p    7801                              ( at time 3.8996097E+00 )

 nodal point  x-rot      y-rot       z-rot       x-rot vel   y-rot vel   z-rot vel   x-rot acc   y-rot acc   z-rot acc
    22626 -9.53684E-07-4.22374E-05-7.12169E-05 5.94866E-07-5.77995E-05-9.62841E-05-4.69869E-05 1.45496E-04 2.56799E-04



 n o d a l   p r i n t   o u t   f o r   t i m e  s t e p    8001                              ( at time 3.9995997E+00 )

 nodal point  x-disp     y-disp      z-disp      x-vel       y-vel       z-vel      x-accl      y-accl      z-accl      x-coor      y-coor      z-coor
    22626 -1.68641E-02-3.24956E-02-1.25381E+01-1.03905E-02 3.14182E-03-3.16114E+00 5.51575E-03-1.07786E-02-3.36920E-03 4.79473E+01-2.20623E+01-5.19956E+00



 n o d a l   p r i n t   o u t   f o r   t i m e  s t e p    8001                              ( at time 3.9995997E+00 )

 nodal point  x-rot      y-rot       z-rot       x-rot vel   y-rot vel   z-rot vel   x-rot acc   y-rot acc   z-rot acc
    22626 -8.22788E-07-4.74860E-05-7.99029E-05-1.61542E-07-4.67792E-05-8.00758E-05-7.56485E-06 1.10214E-04 1.62099E-04



 n o d a l   p r i n t   o u t   f o r   t i m e  s t e p    8201                              ( at time 4.0995897E+00 )

 nodal point  x-disp     y-disp      z-disp      x-vel       y-vel       z-vel      x-accl      y-accl      z-accl      x-coor      y-coor      z-coor
    22626 -1.78205E-02-3.22962E-02-1.28541E+01-8.59992E-03 6.31292E-04-3.16063E+00 1.79074E-02-2.51078E-02 5.08597E-03 4.79464E+01-2.20621E+01-5.51562E+00



 n o d a l   p r i n t   o u t   f o r   t i m e  s t e p    8201                              ( at time 4.0995897E+00 )

 nodal point  x-rot      y-rot       z-rot       x-rot vel   y-rot vel   z-rot vel   x-rot acc   y-rot acc   z-rot acc
    22626 -8.31737E-07-5.16148E-05-8.68746E-05-2.50496E-07-3.22641E-05-5.65584E-05-8.89626E-07 1.45165E-04 2.35197E-04



 n o d a l   p r i n t   o u t   f o r   t i m e  s t e p    8401                              ( at time 4.1995797E+00 )

 nodal point  x-disp     y-disp      z-disp      x-vel       y-vel       z-vel      x-accl      y-accl      z-accl      x-coor      y-coor      z-coor
    22626 -1.86017E-02-3.23585E-02-1.31701E+01-6.97685E-03-1.78918E-03-3.16005E+00 1.62323E-02-2.42072E-02 5.85377E-03 4.79456E+01-2.20621E+01-5.83162E+00



 n o d a l   p r i n t   o u t   f o r   t i m e  s t e p    8401                              ( at time 4.1995797E+00 )

 nodal point  x-rot      y-rot       z-rot       x-rot vel   y-rot vel   z-rot vel   x-rot acc   y-rot acc   z-rot acc
    22626 -8.15006E-07-5.39932E-05-9.08284E-05-1.07466E-07-1.42609E-05-2.31779E-05 1.43045E-06 1.80051E-04 3.33839E-04



 n o d a l   p r i n t   o u t   f o r   t i m e  s t e p    8601                              ( at time 4.2995697E+00 )

 nodal point  x-disp     y-disp      z-disp      x-vel       y-vel       z-vel      x-accl      y-accl      z-accl      x-coor      y-coor      z-coor
    22626 -1.92351E-02-3.26571E-02-1.34861E+01-5.55475E-03-3.87864E-03-3.15988E+00 1.42224E-02-2.08966E-02 1.73109E-03 4.79449E+01-2.20624E+01-6.14757E+00



 n o d a l   p r i n t   o u t   f o r   t i m e  s t e p    8601                              ( at time 4.2995697E+00 )

 nodal point  x-rot      y-rot       z-rot       x-rot vel   y-rot vel   z-rot vel   x-rot acc   y-rot acc   z-rot acc
    22626 -8.35836E-07-5.44318E-05-9.16826E-05-3.41369E-07 2.79341E-06 4.64550E-06-2.33928E-06 1.70560E-04 2.78262E-04



 n o d a l   p r i n t   o u t   f o r   t i m e  s t e p    8801                              ( at time 4.3995597E+00 )

 nodal point  x-disp     y-disp      z-disp      x-vel       y-vel       z-vel      x-accl      y-accl      z-accl      x-coor      y-coor      z-coor
    22626 -1.97013E-02-3.30859E-02-1.38021E+01-3.79904E-03-4.73600E-03-3.16048E+00 1.75589E-02-8.57450E-03-6.05883E-03 4.79445E+01-2.20629E+01-6.46355E+00



 n o d a l   p r i n t   o u t   f o r   t i m e  s t e p    8801                              ( at time 4.3995597E+00 )

 nodal point  x-rot      y-rot       z-rot       x-rot vel   y-rot vel   z-rot vel   x-rot acc   y-rot acc   z-rot acc
    22626 -8.09042E-07-5.31554E-05-8.93629E-05 7.08563E-07 2.23557E-05 4.02122E-05 1.05004E-05 1.95643E-04 3.55703E-04



 n o d a l   p r i n t   o u t   f o r   t i m e  s t e p    9001                              ( at time 4.4995497E+00 )

 nodal point  x-disp     y-disp      z-disp      x-vel       y-vel       z-vel      x-accl      y-accl      z-accl      x-coor      y-coor      z-coor
    22626 -1.99959E-02-3.36582E-02-1.41181E+01-1.85138E-03-7.19591E-03-3.15985E+00 1.94785E-02-2.46015E-02 6.31870E-03 4.79442E+01-2.20634E+01-6.77956E+00



 n o d a l   p r i n t   o u t   f o r   t i m e  s t e p    9001                              ( at time 4.4995497E+00 )

 nodal point  x-rot      y-rot       z-rot       x-rot vel   y-rot vel   z-rot vel   x-rot acc   y-rot acc   z-rot acc
    22626 -7.41703E-07-4.96589E-05-8.31613E-05-7.61924E-07 4.65178E-05 8.27832E-05-1.47063E-05 2.41644E-04 4.25751E-04



 n o d a l   p r i n t   o u t   f o r   t i m e  s t e p    9201                              ( at time 4.5995397E+00 )

 nodal point  x-disp     y-disp      z-disp      x-vel       y-vel       z-vel      x-accl      y-accl      z-accl      x-coor      y-coor      z-coor
    22626 -2.00803E-02-3.45369E-02-1.44339E+01 1.16789E-04-9.78071E-03-3.15698E+00 1.96837E-02-2.58506E-02 2.87419E-02 4.79441E+01-2.20643E+01-7.09537E+00



 n o d a l   p r i n t   o u t   f o r   t i m e  s t e p    9201                              ( at time 4.5995397E+00 )

 nodal point  x-rot      y-rot       z-rot       x-rot vel   y-rot vel   z-rot vel   x-rot acc   y-rot acc   z-rot acc
    22626 -8.67021E-07-4.33086E-05-7.36716E-05 6.39631E-06 8.00853E-05 1.02957E-04 7.15895E-05 3.35709E-04 2.01755E-04



 n o d a l   p r i n t   o u t   f o r   t i m e  s t e p    9401                              ( at time 4.6995297E+00 )

 nodal point  x-disp     y-disp      z-disp      x-vel       y-vel       z-vel      x-accl      y-accl      z-accl      x-coor      y-coor      z-coor
    22626 -1.99374E-02-3.55869E-02-1.47493E+01 2.47500E-03-1.11782E-02-3.15189E+00 2.35844E-02-1.39768E-02 5.09051E-02 4.79442E+01-2.20654E+01-7.41084E+00



 n o d a l   p r i n t   o u t   f o r   t i m e  s t e p    9401                              ( at time 4.6995297E+00 )

 nodal point  x-rot      y-rot       z-rot       x-rot vel   y-rot vel   z-rot vel   x-rot acc   y-rot acc   z-rot acc
    22626  2.38324E-07-3.18605E-05-6.11710E-05 1.17294E-05 1.59268E-04 1.45759E-04 5.33360E-05 7.91907E-04 4.28070E-04



 n o d a l   p r i n t   o u t   f o r   t i m e  s t e p    9601                              ( at time 4.7995197E+00 )

 nodal point  x-disp     y-disp      z-disp      x-vel       y-vel       z-vel      x-accl      y-accl      z-accl      x-coor      y-coor      z-coor
    22626 -1.95574E-02-3.67147E-02-1.50641E+01 4.98189E-03-1.12723E-02-3.14289E+00 2.50715E-02-9.40824E-04 8.99740E-02 4.79446E+01-2.20665E+01-7.72558E+00



 n o d a l   p r i n t   o u t   f o r   t i m e  s t e p    9601                              ( at time 4.7995197E+00 )

 nodal point  x-rot      y-rot       z-rot       x-rot vel   y-rot vel   z-rot vel   x-rot acc   y-rot acc   z-rot acc
    22626  3.02058E-06-1.11003E-05-4.56780E-05 4.55413E-05 2.70998E-04 1.65111E-04 3.38153E-04 1.11741E-03 1.93535E-04



 n o d a l   p r i n t   o u t   f o r   t i m e  s t e p    9801                              ( at time 4.8995097E+00 )

 nodal point  x-disp     y-disp      z-disp      x-vel       y-vel       z-vel      x-accl      y-accl      z-accl      x-coor      y-coor      z-coor
    22626 -1.89574E-02-3.77783E-02-1.53777E+01 7.38442E-03-1.01755E-02-3.12820E+00 2.40277E-02 1.09694E-02 1.46945E-01 4.79452E+01-2.20676E+01-8.03915E+00



 n o d a l   p r i n t   o u t   f o r   t i m e  s t e p    9801                              ( at time 4.8995097E+00 )

 nodal point  x-rot      y-rot       z-rot       x-rot vel   y-rot vel   z-rot vel   x-rot acc   y-rot acc   z-rot acc
    22626  1.08735E-05 2.30671E-05-2.90470E-05 1.08838E-04 4.19753E-04 1.66635E-04 6.33028E-04 1.48770E-03 1.52425E-05



 n o d a l   p r i n t   o u t   f o r   t i m e  s t e p   10001                              ( at time 4.9994997E+00 )

 nodal point  x-disp     y-disp      z-disp      x-vel       y-vel       z-vel      x-accl      y-accl      z-accl      x-coor      y-coor      z-coor
    22626 -1.80522E-02-3.86939E-02-1.56893E+01 1.07932E-02-8.25060E-03-3.10556E+00 3.40915E-02 1.92508E-02 2.26426E-01 4.79461E+01-2.20685E+01-8.35084E+00



 n o d a l   p r i n t   o u t   f o r   t i m e  s t e p   10001                              ( at time 4.9994997E+00 )

 nodal point  x-rot      y-rot       z-rot       x-rot vel   y-rot vel   z-rot vel   x-rot acc   y-rot acc   z-rot acc
    22626  2.65061E-05 7.57415E-05-1.33132E-05 2.16813E-04 6.34425E-04 1.48640E-04 1.07986E-03 2.14693E-03-1.79967E-04



 n o d a l   p r i n t   o u t   f o r   t i m e  s t e p   10202                              ( at time 5.0999896E+00 )

 nodal point  x-disp     y-disp      z-disp      x-vel       y-vel       z-vel      x-accl      y-accl      z-accl      x-coor      y-coor      z-coor
    22626 -1.67500E-02-3.94054E-02-1.60000E+01 1.53011E-02-5.67432E-03-3.07747E+00 4.48590E-02 2.56373E-02 2.79524E-01 4.79474E+01-2.20692E+01-8.66153E+00



 n o d a l   p r i n t   o u t   f o r   t i m e  s t e p   10202                              ( at time 5.0999896E+00 )

 nodal point  x-rot      y-rot       z-rot       x-rot vel   y-rot vel   z-rot vel   x-rot acc   y-rot acc   z-rot acc
    22626  5.41304E-05 1.51896E-04 7.48471E-07 3.25354E-04 8.75957E-04 1.27559E-04 1.08012E-03 2.40355E-03-2.09781E-04



 n o d a l   p r i n t   o u t   f o r   t i m e  s t e p   10402                              ( at time 5.1999796E+00 )

 nodal point  x-disp     y-disp      z-disp      x-vel       y-vel       z-vel      x-accl      y-accl      z-accl      x-coor      y-coor      z-coor
    22626 -1.49932E-02-3.97630E-02-1.63063E+01 1.96801E-02-1.17102E-03-3.04688E+00 4.37943E-02 4.50373E-02 3.05921E-01 4.79492E+01-2.20696E+01-8.96776E+00



 n o d a l   p r i n t   o u t   f o r   t i m e  s t e p   10402                              ( at time 5.1999796E+00 )

 nodal point  x-rot      y-rot       z-rot       x-rot vel   y-rot vel   z-rot vel   x-rot acc   y-rot acc   z-rot acc
    22626  9.39850E-05 2.52772E-04 1.18901E-05 4.67447E-04 1.15852E-03 9.25293E-05 1.42106E-03 2.82590E-03-3.50334E-04



 n o d a l   p r i n t   o u t   f o r   t i m e  s t e p   10602                              ( at time 5.2999696E+00 )

 nodal point  x-disp     y-disp      z-disp      x-vel       y-vel       z-vel      x-accl      y-accl      z-accl      x-coor      y-coor      z-coor
    22626 -1.28843E-02-3.96050E-02-1.66093E+01 2.31436E-02 4.71688E-03-3.01383E+00 3.46383E-02 5.88849E-02 3.30548E-01 4.79513E+01-2.20694E+01-9.27080E+00



 n o d a l   p r i n t   o u t   f o r   t i m e  s t e p   10602                              ( at time 5.2999696E+00 )

 nodal point  x-rot      y-rot       z-rot       x-rot vel   y-rot vel   z-rot vel   x-rot acc   y-rot acc   z-rot acc
    22626  1.48608E-04 3.83547E-04 1.87679E-05 6.25508E-04 1.44973E-03 4.39818E-05 1.58077E-03 2.91236E-03-4.85524E-04



 n o d a l   p r i n t   o u t   f o r   t i m e  s t e p   10802                              ( at time 5.3999596E+00 )

 nodal point  x-disp     y-disp      z-disp      x-vel       y-vel       z-vel      x-accl      y-accl      z-accl      x-coor      y-coor      z-coor
    22626 -1.03198E-02-3.88422E-02-1.69089E+01 2.79627E-02 1.03557E-02-2.97778E+00 4.81960E-02 5.63941E-02 3.60471E-01 4.79539E+01-2.20686E+01-9.57036E+00



 n o d a l   p r i n t   o u t   f o r   t i m e  s t e p   10802                              ( at time 5.3999596E+00 )

 nodal point  x-rot      y-rot       z-rot       x-rot vel   y-rot vel   z-rot vel   x-rot acc   y-rot acc   z-rot acc
    22626  2.19254E-04 5.44352E-04 2.08071E-05 7.94142E-04 1.76662E-03-1.13877E-05 1.68651E-03 3.16923E-03-5.53751E-04



 n o d a l   p r i n t   o u t   f o r   t i m e  s t e p   11002                              ( at time 5.4999496E+00 )

 nodal point  x-disp     y-disp      z-disp      x-vel       y-vel       z-vel      x-accl      y-accl      z-accl      x-coor      y-coor      z-coor
    22626 -7.23654E-03-3.75140E-02-1.72047E+01 3.32521E-02 1.67290E-02-2.93878E+00 5.28996E-02 6.37393E-02 3.90090E-01 4.79569E+01-2.20673E+01-9.86616E+00



 n o d a l   p r i n t   o u t   f o r   t i m e  s t e p   11002                              ( at time 5.4999496E+00 )

 nodal point  x-rot      y-rot       z-rot       x-rot vel   y-rot vel   z-rot vel   x-rot acc   y-rot acc   z-rot acc
    22626  3.05831E-04 7.38481E-04 1.62288E-05 9.56193E-04 2.11249E-03-8.28717E-05 1.62067E-03 3.45905E-03-7.14912E-04



 n o d a l   p r i n t   o u t   f o r   t i m e  s t e p   11202                              ( at time 5.5999396E+00 )

 nodal point  x-disp     y-disp      z-disp      x-vel       y-vel       z-vel      x-accl      y-accl      z-accl      x-coor      y-coor      z-coor
    22626 -3.65481E-03-3.54289E-02-1.74966E+01 3.82682E-02 2.54759E-02-2.89967E+00 5.01654E-02 8.74780E-02 3.91151E-01 4.79605E+01-2.20652E+01-1.01581E+01



 n o d a l   p r i n t   o u t   f o r   t i m e  s t e p   11202                              ( at time 5.5999396E+00 )

 nodal point  x-rot      y-rot       z-rot       x-rot vel   y-rot vel   z-rot vel   x-rot acc   y-rot acc   z-rot acc
    22626  4.11220E-04 9.66180E-04 4.47949E-06 1.14745E-03 2.45049E-03-1.59368E-04 1.91274E-03 3.38040E-03-7.65039E-04



 n o d a l   p r i n t   o u t   f o r   t i m e  s t e p   11402                              ( at time 5.6999296E+00 )

 nodal point  x-disp     y-disp      z-disp      x-vel       y-vel       z-vel      x-accl      y-accl      z-accl      x-coor      y-coor      z-coor
    22626  4.41783E-04-3.24935E-02-1.77845E+01 4.40603E-02 3.24028E-02-2.86004E+00 5.79268E-02 6.92750E-02 3.96321E-01 4.79646E+01-2.20623E+01-1.04460E+01



 n o d a l   p r i n t   o u t   f o r   t i m e  s t e p   11402                              ( at time 5.6999296E+00 )

 nodal point  x-rot      y-rot       z-rot       x-rot vel   y-rot vel   z-rot vel   x-rot acc   y-rot acc   z-rot acc
    22626  5.33353E-04 1.22978E-03-1.48394E-05 1.28989E-03 2.80748E-03-2.32595E-04 1.42459E-03 3.57018E-03-7.32337E-04



 n o d a l   p r i n t   o u t   f o r   t i m e  s t e p   11602                              ( at time 5.7999195E+00 )

 nodal point  x-disp     y-disp      z-disp      x-vel       y-vel       z-vel      x-accl      y-accl      z-accl      x-coor      y-coor      z-coor
    22626  5.12881E-03-2.87933E-02-1.80684E+01 4.97631E-02 4.14234E-02-2.81828E+00 5.70343E-02 9.02152E-02 4.17620E-01 4.79693E+01-2.20586E+01-1.07299E+01



 n o d a l   p r i n t   o u t   f o r   t i m e  s t e p   11602                              ( at time 5.7999195E+00 )

 nodal point  x-rot      y-rot       z-rot       x-rot vel   y-rot vel   z-rot vel   x-rot acc   y-rot acc   z-rot acc
    22626  6.72460E-04 1.52789E-03-4.26934E-05 1.48947E-03 3.14855E-03-3.27495E-04 1.99599E-03 3.41107E-03-9.49098E-04



 n o d a l   p r i n t   o u t   f o r   t i m e  s t e p   11802                              ( at time 5.8999095E+00 )

 nodal point  x-disp     y-disp      z-disp      x-vel       y-vel       z-vel      x-accl      y-accl      z-accl      x-coor      y-coor      z-coor
    22626  1.03893E-02-2.42743E-02-1.83480E+01 5.55911E-02 4.90126E-02-2.77494E+00 5.82857E-02 7.59003E-02 4.33434E-01 4.79746E+01-2.20541E+01-1.10095E+01



 n o d a l   p r i n t   o u t   f o r   t i m e  s t e p   11802                              ( at time 5.8999095E+00 )

 nodal point  x-rot      y-rot       z-rot       x-rot vel   y-rot vel   z-rot vel   x-rot acc   y-rot acc   z-rot acc
    22626  8.30586E-04 1.86049E-03-7.97933E-05 1.67057E-03 3.50630E-03-4.24147E-04 1.81118E-03 3.57788E-03-9.66620E-04



 n o d a l   p r i n t   o u t   f o r   t i m e  s t e p   12002                              ( at time 5.9998995E+00 )

 nodal point  x-disp     y-disp      z-disp      x-vel       y-vel       z-vel      x-accl      y-accl      z-accl      x-coor      y-coor      z-coor
    22626  1.62985E-02-1.90712E-02-1.86234E+01 6.26787E-02 5.55613E-02-2.73219E+00 7.08832E-02 6.54931E-02 4.27523E-01 4.79805E+01-2.20489E+01-1.12849E+01



 n o d a l   p r i n t   o u t   f o r   t i m e  s t e p   12002                              ( at time 5.9998995E+00 )

 nodal point  x-rot      y-rot       z-rot       x-rot vel   y-rot vel   z-rot vel   x-rot acc   y-rot acc   z-rot acc
    22626  1.00730E-03 2.22862E-03-1.26546E-04 1.85666E-03 3.84222E-03-5.22102E-04 1.86108E-03 3.35954E-03-9.79644E-04



 n o d a l   p r i n t   o u t   f o r   t i m e  s t e p   12202                              ( at time 6.0998895E+00 )

 nodal point  x-disp     y-disp      z-disp      x-vel       y-vel       z-vel      x-accl      y-accl      z-accl      x-coor      y-coor      z-coor
    22626  2.29068E-02-1.31178E-02-1.88943E+01 6.97407E-02 6.28774E-02-2.68792E+00 7.06270E-02 7.31688E-02 4.42772E-01 4.79871E+01-2.20429E+01-1.15558E+01



 n o d a l   p r i n t   o u t   f o r   t i m e  s t e p   12202                              ( at time 6.0998895E+00 )

 nodal point  x-rot      y-rot       z-rot       x-rot vel   y-rot vel   z-rot vel   x-rot acc   y-rot acc   z-rot acc
    22626  1.20296E-03 2.62961E-03-1.82763E-04 2.04937E-03 4.16770E-03-6.09625E-04 1.92732E-03 3.25514E-03-8.75320E-04



 n o d a l   p r i n t   o u t   f o r   t i m e  s t e p   12402                              ( at time 6.1998795E+00 )

 nodal point  x-disp     y-disp      z-disp      x-vel       y-vel       z-vel      x-accl      y-accl      z-accl      x-coor      y-coor      z-coor
    22626  3.02579E-02-6.43018E-03-1.91608E+01 7.70798E-02 7.04886E-02-2.64265E+00 7.33976E-02 7.61194E-02 4.52731E-01 4.79944E+01-2.20362E+01-1.18223E+01



 n o d a l   p r i n t   o u t   f o r   t i m e  s t e p   12402                              ( at time 6.1998795E+00 )

 nodal point  x-rot      y-rot       z-rot       x-rot vel   y-rot vel   z-rot vel   x-rot acc   y-rot acc   z-rot acc
    22626  1.41851E-03 3.06253E-03-2.49693E-04 2.25833E-03 4.48907E-03-7.15736E-04 2.08976E-03 3.21402E-03-1.06122E-03



 n o d a l   p r i n t   o u t   f o r   t i m e  s t e p   12602                              ( at time 6.2998695E+00 )

 nodal point  x-disp     y-disp      z-disp      x-vel       y-vel       z-vel      x-accl      y-accl      z-accl      x-coor      y-coor      z-coor
    22626  3.83591E-02 8.57306E-04-1.94228E+01 8.47687E-02 7.60092E-02-2.59693E+00 7.68969E-02 5.52111E-02 4.57231E-01 4.80025E+01-2.20289E+01-1.20843E+01



 n o d a l   p r i n t   o u t   f o r   t i m e  s t e p   12602                              ( at time 6.2998695E+00 )

 nodal point  x-rot      y-rot       z-rot       x-rot vel   y-rot vel   z-rot vel   x-rot acc   y-rot acc   z-rot acc
    22626  1.65353E-03 3.52649E-03-3.25471E-04 2.44962E-03 4.79001E-03-8.14645E-04 1.91306E-03 3.00969E-03-9.89194E-04



 n o d a l   p r i n t   o u t   f o r   t i m e  s t e p   12802                              ( at time 6.3998595E+00 )

 nodal point  x-disp     y-disp      z-disp      x-vel       y-vel       z-vel      x-accl      y-accl      z-accl      x-coor      y-coor      z-coor
    22626  4.73239E-02 8.78941E-03-1.96800E+01 9.41511E-02 8.26622E-02-2.54979E+00 9.38336E-02 6.65369E-02 4.71458E-01 4.80115E+01-2.20210E+01-1.23415E+01



 n o d a l   p r i n t   o u t   f o r   t i m e  s t e p   12802                              ( at time 6.3998595E+00 )

 nodal point  x-rot      y-rot       z-rot       x-rot vel   y-rot vel   z-rot vel   x-rot acc   y-rot acc   z-rot acc
    22626  1.90875E-03 4.02036E-03-4.12396E-04 2.65635E-03 5.08225E-03-9.19729E-04 2.06754E-03 2.92267E-03-1.05094E-03



 n o d a l   p r i n t   o u t   f o r   t i m e  s t e p   13002                              ( at time 6.4998495E+00 )

 nodal point  x-disp     y-disp      z-disp      x-vel       y-vel       z-vel      x-accl      y-accl      z-accl      x-coor      y-coor      z-coor
    22626  5.71713E-02 1.74120E-02-1.99325E+01 1.02551E-01 9.01736E-02-2.50031E+00 8.40060E-02 7.51216E-02 4.94900E-01 4.80214E+01-2.20124E+01-1.25940E+01



 n o d a l   p r i n t   o u t   f o r   t i m e  s t e p   13002                              ( at time 6.4998495E+00 )

 nodal point  x-rot      y-rot       z-rot       x-rot vel   y-rot vel   z-rot vel   x-rot acc   y-rot acc   z-rot acc
    22626  2.18501E-03 4.54377E-03-5.09390E-04 2.86701E-03 5.37931E-03-1.02415E-03 2.10681E-03 2.97087E-03-1.04429E-03



 n o d a l   p r i n t   o u t   f o r   t i m e  s t e p   13202                              ( at time 6.5998395E+00 )

 nodal point  x-disp     y-disp      z-disp      x-vel       y-vel       z-vel      x-accl      y-accl      z-accl      x-coor      y-coor      z-coor
    22626  6.78821E-02 2.67771E-02-2.01800E+01 1.10414E-01 9.76707E-02-2.44987E+00 7.86428E-02 7.49779E-02 5.04456E-01 4.80321E+01-2.20030E+01-1.28415E+01



 n o d a l   p r i n t   o u t   f o r   t i m e  s t e p   13202                              ( at time 6.5998395E+00 )

 nodal point  x-rot      y-rot       z-rot       x-rot vel   y-rot vel   z-rot vel   x-rot acc   y-rot acc   z-rot acc
    22626  2.48256E-03 5.09622E-03-6.16953E-04 3.08114E-03 5.67879E-03-1.12994E-03 2.14156E-03 2.99507E-03-1.05808E-03



 n o d a l   p r i n t   o u t   f o r   t i m e  s t e p   13402                              ( at time 6.6998295E+00 )

 nodal point  x-disp     y-disp      z-disp      x-vel       y-vel       z-vel      x-accl      y-accl      z-accl      x-coor      y-coor      z-coor
    22626  7.94010E-02 3.69155E-02-2.04224E+01 1.19285E-01 1.05524E-01-2.39865E+00 8.87182E-02 7.85410E-02 5.12227E-01 4.80436E+01-2.19929E+01-1.30839E+01



 n o d a l   p r i n t   o u t   f o r   t i m e  s t e p   13402                              ( at time 6.6998295E+00 )

 nodal point  x-rot      y-rot       z-rot       x-rot vel   y-rot vel   z-rot vel   x-rot acc   y-rot acc   z-rot acc
    22626  2.80146E-03 5.67776E-03-7.36641E-04 3.31557E-03 5.96315E-03-1.26174E-03 2.34448E-03 2.84396E-03-1.31813E-03



 n o d a l   p r i n t   o u t   f o r   t i m e  s t e p   13602                              ( at time 6.7998195E+00 )

 nodal point  x-disp     y-disp      z-disp      x-vel       y-vel       z-vel      x-accl      y-accl      z-accl      x-coor      y-coor      z-coor
    22626  9.17752E-02 4.77842E-02-2.06595E+01 1.27978E-01 1.12378E-01-2.34368E+00 8.69383E-02 6.85473E-02 5.49784E-01 4.80560E+01-2.19820E+01-1.33210E+01



 n o d a l   p r i n t   o u t   f o r   t i m e  s t e p   13602                              ( at time 6.7998195E+00 )

 nodal point  x-rot      y-rot       z-rot       x-rot vel   y-rot vel   z-rot vel   x-rot acc   y-rot acc   z-rot acc
    22626  3.14484E-03 6.28971E-03-8.68345E-04 3.55364E-03 6.26715E-03-1.37773E-03 2.38090E-03 3.04030E-03-1.15998E-03



 n o d a l   p r i n t   o u t   f o r   t i m e  s t e p   13802                              ( at time 6.8998095E+00 )

 nodal point  x-disp     y-disp      z-disp      x-vel       y-vel       z-vel      x-accl      y-accl      z-accl      x-coor      y-coor      z-coor
    22626  1.04950E-01 5.93808E-02-2.08912E+01 1.35801E-01 1.20001E-01-2.29039E+00 7.82392E-02 7.62373E-02 5.32896E-01 4.80691E+01-2.19704E+01-1.35527E+01



 n o d a l   p r i n t   o u t   f o r   t i m e  s t e p   13802                              ( at time 6.8998095E+00 )

 nodal point  x-rot      y-rot       z-rot       x-rot vel   y-rot vel   z-rot vel   x-rot acc   y-rot acc   z-rot acc
    22626  3.51091E-03 6.93153E-03-1.01179E-03 3.78876E-03 6.55537E-03-1.49769E-03 2.35149E-03 2.88247E-03-1.19971E-03



 n o d a l   p r i n t   o u t   f o r   t i m e  s t e p   14002                              ( at time 6.9997995E+00 )

 nodal point  x-disp     y-disp      z-disp      x-vel       y-vel       z-vel      x-accl      y-accl      z-accl      x-coor      y-coor      z-coor
    22626  1.18864E-01 7.17178E-02-2.11175E+01 1.42575E-01 1.27661E-01-2.23489E+00 6.77411E-02 7.66081E-02 5.55116E-01 4.80830E+01-2.19581E+01-1.37790E+01



 n o d a l   p r i n t   o u t   f o r   t i m e  s t e p   14002                              ( at time 6.9997995E+00 )

 nodal point  x-rot      y-rot       z-rot       x-rot vel   y-rot vel   z-rot vel   x-rot acc   y-rot acc   z-rot acc
    22626  3.90318E-03 7.60250E-03-1.16662E-03 4.05782E-03 6.85334E-03-1.62000E-03 2.69090E-03 2.98001E-03-1.22325E-03



 n o d a l   p r i n t   o u t   f o r   t i m e  s t e p   14202                              ( at time 7.0997895E+00 )

 nodal point  x-disp     y-disp      z-disp      x-vel       y-vel       z-vel      x-accl      y-accl      z-accl      x-coor      y-coor      z-coor
    22626  1.33489E-01 8.47446E-02-2.13382E+01 1.49580E-01 1.33602E-01-2.17898E+00 7.00593E-02 5.94140E-02 5.59071E-01 4.80977E+01-2.19450E+01-1.39997E+01



 n o d a l   p r i n t   o u t   f o r   t i m e  s t e p   14202                              ( at time 7.0997895E+00 )

 nodal point  x-rot      y-rot       z-rot       x-rot vel   y-rot vel   z-rot vel   x-rot acc   y-rot acc   z-rot acc
    22626  4.32107E-03 8.30373E-03-1.33381E-03 4.31220E-03 7.16106E-03-1.73816E-03 2.54398E-03 3.07750E-03-1.18167E-03



 n o d a l   p r i n t   o u t   f o r   t i m e  s t e p   14402                              ( at time 7.1997794E+00 )

 nodal point  x-disp     y-disp      z-disp      x-vel       y-vel       z-vel      x-accl      y-accl      z-accl      x-coor      y-coor      z-coor
    22626  1.48763E-01 9.83513E-02-2.15531E+01 1.56574E-01 1.39078E-01-2.12131E+00 6.99478E-02 5.47710E-02 5.76755E-01 4.81129E+01-2.19314E+01-1.42146E+01



 n o d a l   p r i n t   o u t   f o r   t i m e  s t e p   14402                              ( at time 7.1997794E+00 )

 nodal point  x-rot      y-rot       z-rot       x-rot vel   y-rot vel   z-rot vel   x-rot acc   y-rot acc   z-rot acc
    22626  4.76575E-03 9.03586E-03-1.51237E-03 4.58928E-03 7.46031E-03-1.85102E-03 2.77110E-03 2.99279E-03-1.12874E-03



 n o d a l   p r i n t   o u t   f o r   t i m e  s t e p   14602                              ( at time 7.2997694E+00 )

 nodal point  x-disp     y-disp      z-disp      x-vel       y-vel       z-vel      x-accl      y-accl      z-accl      x-coor      y-coor      z-coor
    22626  1.64682E-01 1.12498E-01-2.17622E+01 1.62841E-01 1.43968E-01-2.06156E+00 6.26758E-02 4.89025E-02 5.97626E-01 4.81289E+01-2.19173E+01-1.44237E+01



 n o d a l   p r i n t   o u t   f o r   t i m e  s t e p   14602                              ( at time 7.2997694E+00 )

 nodal point  x-rot      y-rot       z-rot       x-rot vel   y-rot vel   z-rot vel   x-rot acc   y-rot acc   z-rot acc
    22626  5.23830E-03 9.79911E-03-1.70196E-03 4.87544E-03 7.78572E-03-1.95222E-03 2.86195E-03 3.25444E-03-1.01208E-03



 n o d a l   p r i n t   o u t   f o r   t i m e  s t e p   14802                              ( at time 7.3997594E+00 )

 nodal point  x-disp     y-disp      z-disp      x-vel       y-vel       z-vel      x-accl      y-accl      z-accl      x-coor      y-coor      z-coor
    22626  1.81170E-01 1.27083E-01-2.19654E+01 1.67456E-01 1.47801E-01-2.00039E+00 4.61509E-02 3.83341E-02 6.11694E-01 4.81454E+01-2.19027E+01-1.46269E+01



 n o d a l   p r i n t   o u t   f o r   t i m e  s t e p   14802                              ( at time 7.3997594E+00 )

 nodal point  x-rot      y-rot       z-rot       x-rot vel   y-rot vel   z-rot vel   x-rot acc   y-rot acc   z-rot acc
    22626  5.73829E-03 1.05937E-02-1.90187E-03 5.13183E-03 8.10271E-03-2.06160E-03 2.56415E-03 3.17017E-03-1.09395E-03



 n o d a l   p r i n t   o u t   f o r   t i m e  s t e p   15002                              ( at time 7.4997494E+00 )

 nodal point  x-disp     y-disp      z-disp      x-vel       y-vel       z-vel      x-accl      y-accl      z-accl      x-coor      y-coor      z-coor
    22626  1.98168E-01 1.41959E-01-2.21622E+01 1.71527E-01 1.50517E-01-1.93788E+00 4.07213E-02 2.71653E-02 6.25243E-01 4.81623E+01-2.18878E+01-1.48237E+01



 n o d a l   p r i n t   o u t   f o r   t i m e  s t e p   15002                              ( at time 7.4997494E+00 )

 nodal point  x-rot      y-rot       z-rot       x-rot vel   y-rot vel   z-rot vel   x-rot acc   y-rot acc   z-rot acc
    22626  6.26688E-03 1.14193E-02-2.11102E-03 5.44400E-03 8.38519E-03-2.15681E-03 3.12200E-03 2.82510E-03-9.52134E-04



 n o d a l   p r i n t   o u t   f o r   t i m e  s t e p   15202                              ( at time 7.5997394E+00 )

 nodal point  x-disp     y-disp      z-disp      x-vel       y-vel       z-vel      x-accl      y-accl      z-accl      x-coor      y-coor      z-coor
    22626  2.15665E-01 1.57087E-01-2.23527E+01 1.77842E-01 1.52304E-01-1.87189E+00 6.31504E-02 1.78719E-02 6.59892E-01 4.81798E+01-2.18727E+01-1.50142E+01



 n o d a l   p r i n t   o u t   f o r   t i m e  s t e p   15202                              ( at time 7.5997394E+00 )

 nodal point  x-rot      y-rot       z-rot       x-rot vel   y-rot vel   z-rot vel   x-rot acc   y-rot acc   z-rot acc
    22626  6.82585E-03 1.22733E-02-2.32958E-03 5.73076E-03 8.66795E-03-2.25216E-03 2.86786E-03 2.82794E-03-9.53584E-04



 n o d a l   p r i n t   o u t   f o r   t i m e  s t e p   15402                              ( at time 7.6997294E+00 )

 nodal point  x-disp     y-disp      z-disp      x-vel       y-vel       z-vel      x-accl      y-accl      z-accl      x-coor      y-coor      z-coor
    22626  2.33726E-01 1.72213E-01-2.25364E+01 1.83755E-01 1.51237E-01-1.80427E+00 5.91345E-02-1.06715E-02 6.76285E-01 4.81979E+01-2.18576E+01-1.51979E+01



 n o d a l   p r i n t   o u t   f o r   t i m e  s t e p   15402                              ( at time 7.6997294E+00 )

 nodal point  x-rot      y-rot       z-rot       x-rot vel   y-rot vel   z-rot vel   x-rot acc   y-rot acc   z-rot acc
    22626  7.41511E-03 1.31550E-02-2.55706E-03 6.06022E-03 8.93614E-03-2.31948E-03 3.29496E-03 2.68214E-03-6.73349E-04



 n o d a l   p r i n t   o u t   f o r   t i m e  s t e p   15602                              ( at time 7.7997194E+00 )

 nodal point  x-disp     y-disp      z-disp      x-vel       y-vel       z-vel      x-accl      y-accl      z-accl      x-coor      y-coor      z-coor
    22626  2.52359E-01 1.87338E-01-2.27135E+01 1.88728E-01 1.51690E-01-1.73786E+00 4.97385E-02 4.52892E-03 6.64229E-01 4.82165E+01-2.18425E+01-1.53750E+01



 n o d a l   p r i n t   o u t   f o r   t i m e  s t e p   15602                              ( at time 7.7997194E+00 )

 nodal point  x-rot      y-rot       z-rot       x-rot vel   y-rot vel   z-rot vel   x-rot acc   y-rot acc   z-rot acc
    22626  8.03708E-03 1.40606E-02-2.79196E-03 6.38938E-03 9.16060E-03-2.39636E-03 3.29187E-03 2.24484E-03-7.68840E-04



 n o d a l   p r i n t   o u t   f o r   t i m e  s t e p   15802                              ( at time 7.8997094E+00 )

 nodal point  x-disp     y-disp      z-disp      x-vel       y-vel       z-vel      x-accl      y-accl      z-accl      x-coor      y-coor      z-coor
    22626  2.71471E-01 2.02287E-01-2.28838E+01 1.92943E-01 1.49735E-01-1.66836E+00 4.21552E-02-1.95565E-02 6.95070E-01 4.82357E+01-2.18275E+01-1.55453E+01



 n o d a l   p r i n t   o u t   f o r   t i m e  s t e p   15802                              ( at time 7.8997094E+00 )

 nodal point  x-rot      y-rot       z-rot       x-rot vel   y-rot vel   z-rot vel   x-rot acc   y-rot acc   z-rot acc
    22626  8.69106E-03 1.49912E-02-3.03392E-03 6.72513E-03 9.40531E-03-2.49282E-03 3.35783E-03 2.44737E-03-9.64715E-04



 n o d a l   p r i n t   o u t   f o r   t i m e  s t e p   16002                              ( at time 7.9996994E+00 )

 nodal point  x-disp     y-disp      z-disp      x-vel       y-vel       z-vel      x-accl      y-accl      z-accl      x-coor      y-coor      z-coor
    22626  2.91111E-01 2.17034E-01-2.30471E+01 1.98827E-01 1.46935E-01-1.59789E+00 5.88480E-02-2.80054E-02 7.04753E-01 4.82553E+01-2.18128E+01-1.57086E+01



 n o d a l   p r i n t   o u t   f o r   t i m e  s t e p   16002                              ( at time 7.9996994E+00 )

 nodal point  x-rot      y-rot       z-rot       x-rot vel   y-rot vel   z-rot vel   x-rot acc   y-rot acc   z-rot acc
    22626  9.37849E-03 1.59424E-02-3.28362E-03 7.05626E-03 9.60496E-03-2.54914E-03 3.31162E-03 1.99665E-03-5.63188E-04



 n o d a l   p r i n t   o u t   f o r   t i m e  s t e p   16202                              ( at time 8.0996894E+00 )

 nodal point  x-disp     y-disp      z-disp      x-vel       y-vel       z-vel      x-accl      y-accl      z-accl      x-coor      y-coor      z-coor
    22626  3.11188E-01 2.31402E-01-2.32033E+01 2.04010E-01 1.41127E-01-1.52562E+00 5.18304E-02-5.80854E-02 7.22707E-01 4.82754E+01-2.17984E+01-1.58648E+01



 n o d a l   p r i n t   o u t   f o r   t i m e  s t e p   16202                              ( at time 8.0996894E+00 )

 nodal point  x-rot      y-rot       z-rot       x-rot vel   y-rot vel   z-rot vel   x-rot acc   y-rot acc   z-rot acc
    22626  1.01020E-02 1.69138E-02-3.53996E-03 7.41425E-03 9.80770E-03-2.59936E-03 3.58033E-03 2.02757E-03-5.02273E-04



 n o d a l   p r i n t   o u t   f o r   t i m e  s t e p   16402                              ( at time 8.1996794E+00 )

 nodal point  x-disp     y-disp      z-disp      x-vel       y-vel       z-vel      x-accl      y-accl      z-accl      x-coor      y-coor      z-coor
    22626  3.31795E-01 2.45291E-01-2.33523E+01 2.09367E-01 1.35985E-01-1.45421E+00 5.35748E-02-5.14161E-02 7.14255E-01 4.82960E+01-2.17845E+01-1.60138E+01



 n o d a l   p r i n t   o u t   f o r   t i m e  s t e p   16402                              ( at time 8.1996794E+00 )

 nodal point  x-rot      y-rot       z-rot       x-rot vel   y-rot vel   z-rot vel   x-rot acc   y-rot acc   z-rot acc
    22626  1.08598E-02 1.79016E-02-3.80279E-03 7.75044E-03 9.94421E-03-2.65855E-03 3.36220E-03 1.36530E-03-5.91999E-04



 n o d a l   p r i n t   o u t   f o r   t i m e  s t e p   16602                              ( at time 8.2996694E+00 )

 nodal point  x-disp     y-disp      z-disp      x-vel       y-vel       z-vel      x-accl      y-accl      z-accl      x-coor      y-coor      z-coor
    22626  3.52904E-01 2.58524E-01-2.34939E+01 2.13243E-01 1.29569E-01-1.38025E+00 3.87691E-02-6.41698E-02 7.39604E-01 4.83171E+01-2.17713E+01-1.61554E+01



 n o d a l   p r i n t   o u t   f o r   t i m e  s t e p   16602                              ( at time 8.2996694E+00 )

 nodal point  x-rot      y-rot       z-rot       x-rot vel   y-rot vel   z-rot vel   x-rot acc   y-rot acc   z-rot acc
    22626  1.16527E-02 1.89056E-02-4.07180E-03 8.14577E-03 1.00842E-02-2.75741E-03 3.95371E-03 1.39965E-03-9.88673E-04



 n o d a l   p r i n t   o u t   f o r   t i m e  s t e p   16802                              ( at time 8.3996594E+00 )

 nodal point  x-disp     y-disp      z-disp      x-vel       y-vel       z-vel      x-accl      y-accl      z-accl      x-coor      y-coor      z-coor
    22626  3.74598E-01 2.71458E-01-2.36280E+01 2.20244E-01 1.26733E-01-1.30365E+00 7.00185E-02-2.83632E-02 7.66109E-01 4.83388E+01-2.17583E+01-1.62895E+01



 n o d a l   p r i n t   o u t   f o r   t i m e  s t e p   16802                              ( at time 8.3996594E+00 )

 nodal point  x-rot      y-rot       z-rot       x-rot vel   y-rot vel   z-rot vel   x-rot acc   y-rot acc   z-rot acc
    22626  1.24882E-02 1.99190E-02-4.34798E-03 8.54198E-03 1.01740E-02-2.79243E-03 3.96249E-03 8.97960E-04-3.50248E-04



 n o d a l   p r i n t   o u t   f o r   t i m e  s t e p   17002                              ( at time 8.4996494E+00 )

 nodal point  x-disp     y-disp      z-disp      x-vel       y-vel       z-vel      x-accl      y-accl      z-accl      x-coor      y-coor      z-coor
    22626  3.96892E-01 2.83542E-01-2.37547E+01 2.25276E-01 1.15961E-01-1.23012E+00 5.03233E-02-1.07730E-01 7.35348E-01 4.83611E+01-2.17462E+01-1.64162E+01



 n o d a l   p r i n t   o u t   f o r   t i m e  s t e p   17002                              ( at time 8.4996494E+00 )

 nodal point  x-rot      y-rot       z-rot       x-rot vel   y-rot vel   z-rot vel   x-rot acc   y-rot acc   z-rot acc
    22626  1.33582E-02 2.09435E-02-4.62745E-03 8.85077E-03 1.03417E-02-2.82094E-03 3.08824E-03 1.67746E-03-2.85123E-04



 n o d a l   p r i n t   o u t   f o r   t i m e  s t e p   17202                              ( at time 8.5996394E+00 )

 nodal point  x-disp     y-disp      z-disp      x-vel       y-vel       z-vel      x-accl      y-accl      z-accl      x-coor      y-coor      z-coor
    22626  4.19601E-01 2.94952E-01-2.38741E+01 2.30436E-01 1.11457E-01-1.15934E+00 5.15988E-02-4.50484E-02 7.07901E-01 4.83838E+01-2.17348E+01-1.65356E+01



 n o d a l   p r i n t   o u t   f o r   t i m e  s t e p   17202                              ( at time 8.5996394E+00 )

 nodal point  x-rot      y-rot       z-rot       x-rot vel   y-rot vel   z-rot vel   x-rot acc   y-rot acc   z-rot acc
    22626  1.42659E-02 2.19836E-02-4.91291E-03 9.28519E-03 1.04212E-02-2.85596E-03 4.34462E-03 7.95691E-04-3.50199E-04



 n o d a l   p r i n t   o u t   f o r   t i m e  s t e p   17402                              ( at time 8.6996293E+00 )

 nodal point  x-disp     y-disp      z-disp      x-vel       y-vel       z-vel      x-accl      y-accl      z-accl      x-coor      y-coor      z-coor
    22626  4.43065E-01 3.06094E-01-2.39863E+01 2.39399E-01 1.07869E-01-1.08647E+00 8.96399E-02-3.58793E-02 7.28751E-01 4.84072E+01-2.17237E+01-1.66478E+01



 n o d a l   p r i n t   o u t   f o r   t i m e  s t e p   17402                              ( at time 8.6996293E+00 )

 nodal point  x-rot      y-rot       z-rot       x-rot vel   y-rot vel   z-rot vel   x-rot acc   y-rot acc   z-rot acc
    22626  1.52166E-02 2.30269E-02-5.20297E-03 9.68296E-03 1.04554E-02-2.92518E-03 3.97800E-03 3.41259E-04-6.92299E-04



 n o d a l   p r i n t   o u t   f o r   t i m e  s t e p   17602                              ( at time 8.7996193E+00 )

 nodal point  x-disp     y-disp      z-disp      x-vel       y-vel       z-vel      x-accl      y-accl      z-accl      x-coor      y-coor      z-coor
    22626  4.67357E-01 3.16597E-01-2.40913E+01 2.45586E-01 1.01038E-01-1.01589E+00 6.18787E-02-6.83203E-02 7.05894E-01 4.84315E+01-2.17132E+01-1.67528E+01



 n o d a l   p r i n t   o u t   f o r   t i m e  s t e p   17602                              ( at time 8.7996193E+00 )

 nodal point  x-rot      y-rot       z-rot       x-rot vel   y-rot vel   z-rot vel   x-rot acc   y-rot acc   z-rot acc
    22626  1.62032E-02 2.40802E-02-5.49731E-03 1.00405E-02 1.06015E-02-2.95194E-03 3.57550E-03 1.46174E-03-2.67678E-04



 n o d a l   p r i n t   o u t   f o r   t i m e  s t e p   17802                              ( at time 8.8996093E+00 )

 nodal point  x-disp     y-disp      z-disp      x-vel       y-vel       z-vel      x-accl      y-accl      z-accl      x-coor      y-coor      z-coor
    22626  4.92131E-01 3.26595E-01-2.41896E+01 2.51171E-01 9.94519E-02-9.50446E-01 5.58519E-02-1.58617E-02 6.54500E-01 4.84563E+01-2.17032E+01-1.68511E+01



 n o d a l   p r i n t   o u t   f o r   t i m e  s t e p   17802                              ( at time 8.8996093E+00 )

 nodal point  x-rot      y-rot       z-rot       x-rot vel   y-rot vel   z-rot vel   x-rot acc   y-rot acc   z-rot acc
    22626  1.72296E-02 2.51414E-02-5.79380E-03 1.04714E-02 1.06764E-02-2.97469E-03 4.30984E-03 7.48412E-04-2.27466E-04



 n o d a l   p r i n t   o u t   f o r   t i m e  s t e p   18002                              ( at time 8.9995993E+00 )

 nodal point  x-disp     y-disp      z-disp      x-vel       y-vel       z-vel      x-accl      y-accl      z-accl      x-coor      y-coor      z-coor
    22626  5.17666E-01 3.36325E-01-2.42812E+01 2.59873E-01 9.31507E-02-8.81642E-01 8.70352E-02-6.30179E-02 6.88110E-01 4.84818E+01-2.16935E+01-1.69427E+01



 n o d a l   p r i n t   o u t   f o r   t i m e  s t e p   18002                              ( at time 8.9995993E+00 )

 nodal point  x-rot      y-rot       z-rot       x-rot vel   y-rot vel   z-rot vel   x-rot acc   y-rot acc   z-rot acc
    22626  1.82951E-02 2.62129E-02-6.09470E-03 1.08178E-02 1.07491E-02-3.00111E-03 3.46464E-03 7.27716E-04-2.64222E-04



 n o d a l   p r i n t   o u t   f o r   t i m e  s t e p   18202                              ( at time 9.0995893E+00 )

 nodal point  x-disp     y-disp      z-disp      x-vel       y-vel       z-vel      x-accl      y-accl      z-accl      x-coor      y-coor      z-coor
    22626  5.44145E-01 3.45632E-01-2.43659E+01 2.67879E-01 9.26213E-02-8.14649E-01 8.00679E-02-5.29425E-03 6.69991E-01 4.85083E+01-2.16842E+01-1.70274E+01



 n o d a l   p r i n t   o u t   f o r   t i m e  s t e p   18202                              ( at time 9.0995893E+00 )

 nodal point  x-rot      y-rot       z-rot       x-rot vel   y-rot vel   z-rot vel   x-rot acc   y-rot acc   z-rot acc
    22626  1.93996E-02 2.72867E-02-6.39822E-03 1.12870E-02 1.07673E-02-3.00543E-03 4.69209E-03 1.82036E-04-4.32457E-05



 n o d a l   p r i n t   o u t   f o r   t i m e  s t e p   18402                              ( at time 9.1995793E+00 )

 nodal point  x-disp     y-disp      z-disp      x-vel       y-vel       z-vel      x-accl      y-accl      z-accl      x-coor      y-coor      z-coor
    22626  5.71242E-01 3.54842E-01-2.44441E+01 2.74116E-01 8.91934E-02-7.47430E-01 6.23712E-02-3.42825E-02 6.72264E-01 4.85354E+01-2.16749E+01-1.71056E+01



 n o d a l   p r i n t   o u t   f o r   t i m e  s t e p   18402                              ( at time 9.1995793E+00 )

 nodal point  x-rot      y-rot       z-rot       x-rot vel   y-rot vel   z-rot vel   x-rot acc   y-rot acc   z-rot acc
    22626  2.05463E-02 2.83666E-02-6.70380E-03 1.16296E-02 1.08771E-02-3.04065E-03 3.42625E-03 1.09807E-03-3.52176E-04



 n o d a l   p r i n t   o u t   f o r   t i m e  s t e p   18602                              ( at time 9.2995693E+00 )

 nodal point  x-disp     y-disp      z-disp      x-vel       y-vel       z-vel      x-accl      y-accl      z-accl      x-coor      y-coor      z-coor
    22626  5.99203E-01 3.63671E-01-2.45156E+01 2.83976E-01 8.48552E-02-6.83652E-01 9.86139E-02-4.33870E-02 6.37837E-01 4.85634E+01-2.16661E+01-1.71771E+01



 n o d a l   p r i n t   o u t   f o r   t i m e  s t e p   18602                              ( at time 9.2995693E+00 )

 nodal point  x-rot      y-rot       z-rot       x-rot vel   y-rot vel   z-rot vel   x-rot acc   y-rot acc   z-rot acc
    22626  2.17313E-02 2.94539E-02-7.01425E-03 1.20625E-02 1.09167E-02-3.05330E-03 4.32990E-03 3.95591E-04-1.26549E-04



 n o d a l   p r i n t   o u t   f o r   t i m e  s t e p   18802                              ( at time 9.3995593E+00 )

 nodal point  x-disp     y-disp      z-disp      x-vel       y-vel       z-vel      x-accl      y-accl      z-accl      x-coor      y-coor      z-coor
    22626  6.27888E-01 3.72274E-01-2.45807E+01 2.89672E-01 8.71075E-02-6.17068E-01 5.69628E-02 2.25257E-02 6.65906E-01 4.85921E+01-2.16575E+01-1.72422E+01



 n o d a l   p r i n t   o u t   f o r   t i m e  s t e p   18802                              ( at time 9.3995593E+00 )

 nodal point  x-rot      y-rot       z-rot       x-rot vel   y-rot vel   z-rot vel   x-rot acc   y-rot acc   z-rot acc
    22626  2.29552E-02 3.05441E-02-7.32546E-03 1.24396E-02 1.09498E-02-3.10437E-03 3.77139E-03 3.30886E-04-5.10724E-04



 n o d a l   p r i n t   o u t   f o r   t i m e  s t e p   19002                              ( at time 9.4995493E+00 )

 nodal point  x-disp     y-disp      z-disp      x-vel       y-vel       z-vel      x-accl      y-accl      z-accl      x-coor      y-coor      z-coor
    22626  6.57362E-01 3.80906E-01-2.46393E+01 2.97872E-01 8.40370E-02-5.55542E-01 8.20130E-02-3.07084E-02 6.15323E-01 4.86215E+01-2.16489E+01-1.73008E+01



 n o d a l   p r i n t   o u t   f o r   t i m e  s t e p   19002                              ( at time 9.4995493E+00 )

 nodal point  x-rot      y-rot       z-rot       x-rot vel   y-rot vel   z-rot vel   x-rot acc   y-rot acc   z-rot acc
    22626  2.42189E-02 3.16402E-02-7.64026E-03 1.28512E-02 1.09858E-02-3.14751E-03 4.11605E-03 3.60812E-04-4.31469E-04



 n o d a l   p r i n t   o u t   f o r   t i m e  s t e p   19202                              ( at time 9.5995393E+00 )

 nodal point  x-disp     y-disp      z-disp      x-vel       y-vel       z-vel      x-accl      y-accl      z-accl      x-coor      y-coor      z-coor
    22626  6.87532E-01 3.89282E-01-2.46919E+01 3.05692E-01 8.51147E-02-4.96367E-01 7.82085E-02 1.07783E-02 5.91810E-01 4.86517E+01-2.16405E+01-1.73534E+01



 n o d a l   p r i n t   o u t   f o r   t i m e  s t e p   19202                              ( at time 9.5995393E+00 )

 nodal point  x-rot      y-rot       z-rot       x-rot vel   y-rot vel   z-rot vel   x-rot acc   y-rot acc   z-rot acc
    22626  2.55212E-02 3.27372E-02-7.95837E-03 1.31994E-02 1.10005E-02-3.20158E-03 3.48214E-03 1.46995E-04-5.40733E-04



 n o d a l   p r i n t   o u t   f o r   t i m e  s t e p   19402                              ( at time 9.6995293E+00 )

 nodal point  x-disp     y-disp      z-disp      x-vel       y-vel       z-vel      x-accl      y-accl      z-accl      x-coor      y-coor      z-coor
    22626  7.18420E-01 3.97835E-01-2.47386E+01 3.12600E-01 8.60686E-02-4.35717E-01 6.90786E-02 9.53942E-03 6.06558E-01 4.86826E+01-2.16320E+01-1.74001E+01



 n o d a l   p r i n t   o u t   f o r   t i m e  s t e p   19402                              ( at time 9.6995293E+00 )

 nodal point  x-rot      y-rot       z-rot       x-rot vel   y-rot vel   z-rot vel   x-rot acc   y-rot acc   z-rot acc
    22626  2.68608E-02 3.38394E-02-8.28115E-03 1.35910E-02 1.10512E-02-3.22226E-03 3.91700E-03 5.06672E-04-2.06798E-04



 n o d a l   p r i n t   o u t   f o r   t i m e  s t e p   19602                              ( at time 9.7995193E+00 )

 nodal point  x-disp     y-disp      z-disp      x-vel       y-vel       z-vel      x-accl      y-accl      z-accl      x-coor      y-coor      z-coor
    22626  7.50005E-01 4.06397E-01-2.47794E+01 3.19925E-01 8.39034E-02-3.80169E-01 7.32559E-02-2.16539E-02 5.55537E-01 4.87142E+01-2.16234E+01-1.74409E+01



 n o d a l   p r i n t   o u t   f o r   t i m e  s t e p   19602                              ( at time 9.7995193E+00 )

 nodal point  x-rot      y-rot       z-rot       x-rot vel   y-rot vel   z-rot vel   x-rot acc   y-rot acc   z-rot acc
    22626  2.82380E-02 3.49435E-02-8.60527E-03 1.39240E-02 1.10626E-02-3.22236E-03 3.32941E-03 1.13763E-04-1.03853E-06



 n o d a l   p r i n t   o u t   f o r   t i m e  s t e p   19802                              ( at time 9.8995093E+00 )

 nodal point  x-disp     y-disp      z-disp      x-vel       y-vel       z-vel      x-accl      y-accl      z-accl      x-coor      y-coor      z-coor
    22626  7.82098E-01 4.15018E-01-2.48144E+01 3.22900E-01 9.02234E-02-3.22993E-01 2.97538E-02 6.32067E-02 5.71815E-01 4.87463E+01-2.16148E+01-1.74759E+01



 n o d a l   p r i n t   o u t   f o r   t i m e  s t e p   19802                              ( at time 9.8995093E+00 )

 nodal point  x-rot      y-rot       z-rot       x-rot vel   y-rot vel   z-rot vel   x-rot acc   y-rot acc   z-rot acc
    22626  2.96515E-02 3.60493E-02-8.93435E-03 1.43407E-02 1.10550E-02-3.31166E-03 4.16771E-03-7.58453E-05-8.93066E-04



 n o d a l   p r i n t   o u t   f o r   t i m e  s t e p   20003                              ( at time 9.9999992E+00 )

 nodal point  x-disp     y-disp      z-disp      x-vel       y-vel       z-vel      x-accl      y-accl      z-accl      x-coor      y-coor      z-coor
[...]
    22626  2.62719E-01 1.60544E-01-7.13022E-02 1.88389E-02 9.07664E-03-6.20815E-03 9.91390E-05 6.78065E-05 3.61507E-04



 n o d a l   p r i n t   o u t   f o r   t i m e  s t e p   45205                              ( at time 2.2599738E+01 )

 nodal point  x-disp     y-disp      z-disp      x-vel       y-vel       z-vel      x-accl      y-accl      z-accl      x-coor      y-coor      z-coor
    22626  4.57579E+00 1.39916E+00-1.96885E+01 2.41188E-01 1.52082E-02 4.88170E-01 1.37705E-02-2.27866E-02-5.31394E-03 5.25400E+01-2.06306E+01-1.23500E+01



 n o d a l   p r i n t   o u t   f o r   t i m e  s t e p   45205                              ( at time 2.2599738E+01 )

 nodal point  x-rot      y-rot       z-rot       x-rot vel   y-rot vel   z-rot vel   x-rot acc   y-rot acc   z-rot acc
    22626  2.64603E-01 1.61453E-01-7.19209E-02 1.88465E-02 9.08346E-03-6.17196E-03 7.60774E-05 6.81791E-05 3.61959E-04



 n o d a l   p r i n t   o u t   f o r   t i m e  s t e p   45405                              ( at time 2.2699728E+01 )

 nodal point  x-disp     y-disp      z-disp      x-vel       y-vel       z-vel      x-accl      y-accl      z-accl      x-coor      y-coor      z-coor
    22626  4.59996E+00 1.40058E+00-1.96397E+01 2.42446E-01 1.29005E-02 4.87293E-01 1.25812E-02-2.30790E-02-8.76702E-03 5.25641E+01-2.06292E+01-1.23012E+01



 n o d a l   p r i n t   o u t   f o r   t i m e  s t e p   45405                              ( at time 2.2699728E+01 )

 nodal point  x-rot      y-rot       z-rot       x-rot vel   y-rot vel   z-rot vel   x-rot acc   y-rot acc   z-rot acc
    22626  2.66488E-01 1.62362E-01-7.25365E-02 1.88634E-02 9.09765E-03-6.14269E-03 1.69408E-04 1.41884E-04 2.92649E-04



 n o d a l   p r i n t   o u t   f o r   t i m e  s t e p   45605                              ( at time 2.2799718E+01 )

 nodal point  x-disp     y-disp      z-disp      x-vel       y-vel       z-vel      x-accl      y-accl      z-accl      x-coor      y-coor      z-coor
    22626  4.62425E+00 1.40174E+00-1.95910E+01 2.43492E-01 1.05344E-02 4.86204E-01 1.04617E-02-2.36630E-02-1.08994E-02 5.25884E+01-2.06280E+01-1.22525E+01



 n o d a l   p r i n t   o u t   f o r   t i m e  s t e p   45605                              ( at time 2.2799718E+01 )

 nodal point  x-rot      y-rot       z-rot       x-rot vel   y-rot vel   z-rot vel   x-rot acc   y-rot acc   z-rot acc
    22626  2.68375E-01 1.63272E-01-7.31486E-02 1.88696E-02 9.10702E-03-6.10444E-03 6.20318E-05 9.37462E-05 3.82585E-04



 n o d a l   p r i n t   o u t   f o r   t i m e  s t e p   45805                              ( at time 2.2899708E+01 )

 nodal point  x-disp     y-disp      z-disp      x-vel       y-vel       z-vel      x-accl      y-accl      z-accl      x-coor      y-coor      z-coor
    22626  4.64864E+00 1.40269E+00-1.95424E+01 2.44312E-01 8.54278E-03 4.85329E-01 8.19789E-03-1.99187E-02-8.75093E-03 5.26128E+01-2.06271E+01-1.22039E+01



 n o d a l   p r i n t   o u t   f o r   t i m e  s t e p   45805                              ( at time 2.2899708E+01 )

 nodal point  x-rot      y-rot       z-rot       x-rot vel   y-rot vel   z-rot vel   x-rot acc   y-rot acc   z-rot acc
    22626  2.70262E-01 1.64183E-01-7.37573E-02 1.88845E-02 9.11152E-03-6.07604E-03 1.49308E-04 4.50437E-05 2.84066E-04



 n o d a l   p r i n t   o u t   f o r   t i m e  s t e p   46005                              ( at time 2.2999698E+01 )

 nodal point  x-disp     y-disp      z-disp      x-vel       y-vel       z-vel      x-accl      y-accl      z-accl      x-coor      y-coor      z-coor
    22626  4.67313E+00 1.40344E+00-1.94940E+01 2.45538E-01 6.72946E-03 4.84449E-01 1.22649E-02-1.81349E-02-8.79607E-03 5.26373E+01-2.06264E+01-1.21555E+01



 n o d a l   p r i n t   o u t   f o r   t i m e  s t e p   46005                              ( at time 2.2999698E+01 )

 nodal point  x-rot      y-rot       z-rot       x-rot vel   y-rot vel   z-rot vel   x-rot acc   y-rot acc   z-rot acc
    22626  2.72152E-01 1.65094E-01-7.43629E-02 1.89005E-02 9.12014E-03-6.04151E-03 1.59625E-04 8.61832E-05 3.45278E-04



 n o d a l   p r i n t   o u t   f o r   t i m e  s t e p   46205                              ( at time 2.3099688E+01 )

 nodal point  x-disp     y-disp      z-disp      x-vel       y-vel       z-vel      x-accl      y-accl      z-accl      x-coor      y-coor      z-coor
    22626  4.69774E+00 1.40400E+00-1.94456E+01 2.46408E-01 4.71587E-03 4.83133E-01 8.69266E-03-2.01381E-02-1.31631E-02 5.26619E+01-2.06258E+01-1.21071E+01



 n o d a l   p r i n t   o u t   f o r   t i m e  s t e p   46205                              ( at time 2.3099688E+01 )

 nodal point  x-rot      y-rot       z-rot       x-rot vel   y-rot vel   z-rot vel   x-rot acc   y-rot acc   z-rot acc
    22626  2.74042E-01 1.66007E-01-7.49650E-02 1.89136E-02 9.12968E-03-6.00445E-03 1.30903E-04 9.53966E-05 3.70614E-04



 n o d a l   p r i n t   o u t   f o r   t i m e  s t e p   46405                              ( at time 2.3199678E+01 )

 nodal point  x-disp     y-disp      z-disp      x-vel       y-vel       z-vel      x-accl      y-accl      z-accl      x-coor      y-coor      z-coor
    22626  4.72242E+00 1.40441E+00-1.93974E+01 2.47298E-01 3.29777E-03 4.81471E-01 8.90679E-03-1.41823E-02-1.66235E-02 5.26866E+01-2.06254E+01-1.20589E+01



 n o d a l   p r i n t   o u t   f o r   t i m e  s t e p   46405                              ( at time 2.3199678E+01 )

 nodal point  x-rot      y-rot       z-rot       x-rot vel   y-rot vel   z-rot vel   x-rot acc   y-rot acc   z-rot acc
    22626  2.75934E-01 1.66920E-01-7.55639E-02 1.89365E-02 9.12810E-03-5.97519E-03 2.28847E-04-1.58246E-05 2.92625E-04



 n o d a l   p r i n t   o u t   f o r   t i m e  s t e p   46605                              ( at time 2.3299668E+01 )

 nodal point  x-disp     y-disp      z-disp      x-vel       y-vel       z-vel      x-accl      y-accl      z-accl      x-coor      y-coor      z-coor
    22626  4.74721E+00 1.40466E+00-1.93493E+01 2.48327E-01 1.89991E-03 4.80350E-01 1.02928E-02-1.39801E-02-1.12084E-02 5.27114E+01-2.06251E+01-1.20108E+01



 n o d a l   p r i n t   o u t   f o r   t i m e  s t e p   46605                              ( at time 2.3299668E+01 )

 nodal point  x-rot      y-rot       z-rot       x-rot vel   y-rot vel   z-rot vel   x-rot acc   y-rot acc   z-rot acc
    22626  2.77829E-01 1.67833E-01-7.61601E-02 1.89558E-02 9.13647E-03-5.94995E-03 1.93085E-04 8.37910E-05 2.52500E-04



 n o d a l   p r i n t   o u t   f o r   t i m e  s t e p   46805                              ( at time 2.3399658E+01 )

 nodal point  x-disp     y-disp      z-disp      x-vel       y-vel       z-vel      x-accl      y-accl      z-accl      x-coor      y-coor      z-coor
    22626  4.77208E+00 1.40479E+00-1.93013E+01 2.49090E-01 8.13071E-04 4.78459E-01 7.62383E-03-1.08694E-02-1.89080E-02 5.27363E+01-2.06250E+01-1.19628E+01



 n o d a l   p r i n t   o u t   f o r   t i m e  s t e p   46805                              ( at time 2.3399658E+01 )

 nodal point  x-rot      y-rot       z-rot       x-rot vel   y-rot vel   z-rot vel   x-rot acc   y-rot acc   z-rot acc
    22626  2.79725E-01 1.68747E-01-7.67532E-02 1.89782E-02 9.14126E-03-5.91678E-03 2.23761E-04 4.78930E-05 3.31726E-04



 n o d a l   p r i n t   o u t   f o r   t i m e  s t e p   47005                              ( at time 2.3499648E+01 )

 nodal point  x-disp     y-disp      z-disp      x-vel       y-vel       z-vel      x-accl      y-accl      z-accl      x-coor      y-coor      z-coor
    22626  4.79703E+00 1.40483E+00-1.92536E+01 2.49753E-01-5.53466E-05 4.76824E-01 6.63490E-03-8.68497E-03-1.63570E-02 5.27612E+01-2.06250E+01-1.19151E+01



 n o d a l   p r i n t   o u t   f o r   t i m e  s t e p   47005                              ( at time 2.3499648E+01 )

 nodal point  x-rot      y-rot       z-rot       x-rot vel   y-rot vel   z-rot vel   x-rot acc   y-rot acc   z-rot acc
    22626  2.81624E-01 1.69661E-01-7.73434E-02 1.89988E-02 9.14096E-03-5.89317E-03 2.06214E-04-2.98982E-06 2.36079E-04



 n o d a l   p r i n t   o u t   f o r   t i m e  s t e p   47205                              ( at time 2.3599638E+01 )

 nodal point  x-disp     y-disp      z-disp      x-vel       y-vel       z-vel      x-accl      y-accl      z-accl      x-coor      y-coor      z-coor
    22626  4.82203E+00 1.40477E+00-1.92060E+01 2.50511E-01-5.44108E-04 4.75238E-01 7.57748E-03-4.88816E-03-1.58593E-02 5.27862E+01-2.06250E+01-1.18675E+01



 n o d a l   p r i n t   o u t   f o r   t i m e  s t e p   47205                              ( at time 2.3599638E+01 )

 nodal point  x-rot      y-rot       z-rot       x-rot vel   y-rot vel   z-rot vel   x-rot acc   y-rot acc   z-rot acc
    22626  2.83525E-01 1.70575E-01-7.79312E-02 1.90228E-02 9.14601E-03-5.86928E-03 2.40233E-04 5.05019E-05 2.38943E-04



 n o d a l   p r i n t   o u t   f o r   t i m e  s t e p   47405                              ( at time 2.3699628E+01 )

 nodal point  x-disp     y-disp      z-disp      x-vel       y-vel       z-vel      x-accl      y-accl      z-accl      x-coor      y-coor      z-coor
    22626  4.84710E+00 1.40469E+00-1.91586E+01 2.50877E-01-1.20855E-03 4.73493E-01 3.66692E-03-6.64500E-03-1.74506E-02 5.28113E+01-2.06251E+01-1.18201E+01



 n o d a l   p r i n t   o u t   f o r   t i m e  s t e p   47405                              ( at time 2.3699628E+01 )

 nodal point  x-rot      y-rot       z-rot       x-rot vel   y-rot vel   z-rot vel   x-rot acc   y-rot acc   z-rot acc
    22626  2.85428E-01 1.71489E-01-7.85167E-02 1.90437E-02 9.14433E-03-5.84528E-03 2.09492E-04-1.68026E-05 2.40019E-04



 n o d a l   p r i n t   o u t   f o r   t i m e  s t e p   47605                              ( at time 2.3799618E+01 )

 nodal point  x-disp     y-disp      z-disp      x-vel       y-vel       z-vel      x-accl      y-accl      z-accl      x-coor      y-coor      z-coor
    22626  4.87220E+00 1.40457E+00-1.91113E+01 2.51337E-01-9.91307E-04 4.71393E-01 4.59662E-03 2.17264E-03-2.10022E-02 5.28364E+01-2.06252E+01-1.17728E+01



 n o d a l   p r i n t   o u t   f o r   t i m e  s t e p   47605                              ( at time 2.3799618E+01 )

 nodal point  x-rot      y-rot       z-rot       x-rot vel   y-rot vel   z-rot vel   x-rot acc   y-rot acc   z-rot acc
    22626  2.87333E-01 1.72404E-01-7.91001E-02 1.90584E-02 9.14369E-03-5.82725E-03 1.46849E-04-6.41752E-06 1.80301E-04



 n o d a l   p r i n t   o u t   f o r   t i m e  s t e p   47805                              ( at time 2.3899608E+01 )

 nodal point  x-disp     y-disp      z-disp      x-vel       y-vel       z-vel      x-accl      y-accl      z-accl      x-coor      y-coor      z-coor
    22626  4.89735E+00 1.40448E+00-1.90643E+01 2.51650E-01-9.98419E-04 4.69733E-01 3.13013E-03-7.11223E-05-1.65981E-02 5.28615E+01-2.06253E+01-1.17258E+01



 n o d a l   p r i n t   o u t   f o r   t i m e  s t e p   47805                              ( at time 2.3899608E+01 )

 nodal point  x-rot      y-rot       z-rot       x-rot vel   y-rot vel   z-rot vel   x-rot acc   y-rot acc   z-rot acc
    22626  2.89240E-01 1.73318E-01-7.96814E-02 1.90815E-02 9.14563E-03-5.80406E-03 2.30542E-04 1.94199E-05 2.31897E-04



 n o d a l   p r i n t   o u t   f o r   t i m e  s t e p   48005                              ( at time 2.3999598E+01 )

 nodal point  x-disp     y-disp      z-disp      x-vel       y-vel       z-vel      x-accl      y-accl      z-accl      x-coor      y-coor      z-coor
    22626  4.92253E+00 1.40442E+00-1.90174E+01 2.52096E-01-1.59997E-04 4.68075E-01 4.45713E-03 8.38514E-03-1.65865E-02 5.28867E+01-2.06254E+01-1.16789E+01



 n o d a l   p r i n t   o u t   f o r   t i m e  s t e p   48005                              ( at time 2.3999598E+01 )

 nodal point  x-rot      y-rot       z-rot       x-rot vel   y-rot vel   z-rot vel   x-rot acc   y-rot acc   z-rot acc
    22626  2.91149E-01 1.74233E-01-8.02610E-02 1.91017E-02 9.14342E-03-5.78498E-03 2.02585E-04-2.21307E-05 1.90849E-04



 n o d a l   p r i n t   o u t   f o r   t i m e  s t e p   48205                              ( at time 2.4099588E+01 )

 nodal point  x-disp     y-disp      z-disp      x-vel       y-vel       z-vel      x-accl      y-accl      z-accl      x-coor      y-coor      z-coor
    22626  4.94774E+00 1.40444E+00-1.89707E+01 2.52221E-01 5.18296E-04 4.65624E-01 1.25420E-03 6.78356E-03-2.45129E-02 5.29119E+01-2.06254E+01-1.16322E+01



 n o d a l   p r i n t   o u t   f o r   t i m e  s t e p   48205                              ( at time 2.4099588E+01 )

 nodal point  x-rot      y-rot       z-rot       x-rot vel   y-rot vel   z-rot vel   x-rot acc   y-rot acc   z-rot acc
    22626  2.93060E-01 1.75147E-01-8.08387E-02 1.91180E-02 9.13970E-03-5.77150E-03 1.62885E-04-3.72656E-05 1.34835E-04



 n o d a l   p r i n t   o u t   f o r   t i m e  s t e p   48405                              ( at time 2.4199578E+01 )

 nodal point  x-disp     y-disp      z-disp      x-vel       y-vel       z-vel      x-accl      y-accl      z-accl      x-coor      y-coor      z-coor
    22626  4.97295E+00 1.40454E+00-1.89242E+01 2.52151E-01 1.74196E-03 4.63779E-01-6.96259E-04 1.22380E-02-1.84533E-02 5.29371E+01-2.06253E+01-1.15857E+01



 n o d a l   p r i n t   o u t   f o r   t i m e  s t e p   48405                              ( at time 2.4199578E+01 )

 nodal point  x-rot      y-rot       z-rot       x-rot vel   y-rot vel   z-rot vel   x-rot acc   y-rot acc   z-rot acc
    22626  2.94972E-01 1.76061E-01-8.14151E-02 1.91419E-02 9.14012E-03-5.76130E-03 2.38501E-04 4.29387E-06 1.01982E-04



 n o d a l   p r i n t   o u t   f o r   t i m e  s t e p   48605                              ( at time 2.4299568E+01 )

 nodal point  x-disp     y-disp      z-disp      x-vel       y-vel       z-vel      x-accl      y-accl      z-accl      x-coor      y-coor      z-coor
    22626  4.99816E+00 1.40478E+00-1.88780E+01 2.51982E-01 3.16729E-03 4.61627E-01-1.69233E-03 1.42547E-02-2.15222E-02 5.29623E+01-2.06250E+01-1.15395E+01



 n o d a l   p r i n t   o u t   f o r   t i m e  s t e p   48605                              ( at time 2.4299568E+01 )

 nodal point  x-rot      y-rot       z-rot       x-rot vel   y-rot vel   z-rot vel   x-rot acc   y-rot acc   z-rot acc
    22626  2.96888E-01 1.76975E-01-8.19905E-02 1.91608E-02 9.13850E-03-5.74639E-03 1.89411E-04-1.61972E-05 1.49114E-04



 n o d a l   p r i n t   o u t   f o r   t i m e  s t e p   48805                              ( at time 2.4399558E+01 )

 nodal point  x-disp     y-disp      z-disp      x-vel       y-vel       z-vel      x-accl      y-accl      z-accl      x-coor      y-coor      z-coor
    22626  5.02335E+00 1.40519E+00-1.88319E+01 2.51671E-01 4.67771E-03 4.59211E-01-3.10777E-03 1.51056E-02-2.41636E-02 5.29875E+01-2.06246E+01-1.14934E+01



 n o d a l   p r i n t   o u t   f o r   t i m e  s t e p   48805                              ( at time 2.4399558E+01 )

 nodal point  x-rot      y-rot       z-rot       x-rot vel   y-rot vel   z-rot vel   x-rot acc   y-rot acc   z-rot acc
    22626  2.98804E-01 1.77888E-01-8.25648E-02 1.91718E-02 9.13536E-03-5.73780E-03 1.09552E-04-3.14723E-05 8.58898E-05



 n o d a l   p r i n t   o u t   f o r   t i m e  s t e p   49006                              ( at time 2.4500048E+01 )

 nodal point  x-disp     y-disp      z-disp      x-vel       y-vel       z-vel      x-accl      y-accl      z-accl      x-coor      y-coor      z-coor
    22626  5.04862E+00 1.40576E+00-1.87859E+01 2.51328E-01 6.71368E-03 4.57102E-01-3.41624E-03 2.02606E-02-2.09862E-02 5.30128E+01-2.06240E+01-1.14474E+01



 n o d a l   p r i n t   o u t   f o r   t i m e  s t e p   49006                              ( at time 2.4500048E+01 )

 nodal point  x-rot      y-rot       z-rot       x-rot vel   y-rot vel   z-rot vel   x-rot acc   y-rot acc   z-rot acc
    22626  3.00732E-01 1.78806E-01-8.31413E-02 1.91933E-02 9.13565E-03-5.73604E-03 2.14034E-04 2.87306E-06 1.75535E-05



 n o d a l   p r i n t   o u t   f o r   t i m e  s t e p   49206                              ( at time 2.4600038E+01 )

 nodal point  x-disp     y-disp      z-disp      x-vel       y-vel       z-vel      x-accl      y-accl      z-accl      x-coor      y-coor      z-coor
    22626  5.07373E+00 1.40651E+00-1.87403E+01 2.50996E-01 8.42097E-03 4.55452E-01-3.31909E-03 1.70745E-02-1.64962E-02 5.30379E+01-2.06233E+01-1.14018E+01



 n o d a l   p r i n t   o u t   f o r   t i m e  s t e p   49206                              ( at time 2.4600038E+01 )

 nodal point  x-rot      y-rot       z-rot       x-rot vel   y-rot vel   z-rot vel   x-rot acc   y-rot acc   z-rot acc
    22626  3.02652E-01 1.79719E-01-8.37143E-02 1.92078E-02 9.13279E-03-5.72892E-03 1.45691E-04-2.85756E-05 7.11922E-05



 n o d a l   p r i n t   o u t   f o r   t i m e  s t e p   49406                              ( at time 2.4700028E+01 )

 nodal point  x-disp     y-disp      z-disp      x-vel       y-vel       z-vel      x-accl      y-accl      z-accl      x-coor      y-coor      z-coor
    22626  5.09880E+00 1.40744E+00-1.86948E+01 2.50472E-01 1.03846E-02 4.53152E-01-5.23864E-03 1.96387E-02-2.30090E-02 5.30630E+01-2.06223E+01-1.13563E+01



 n o d a l   p r i n t   o u t   f o r   t i m e  s t e p   49406                              ( at time 2.4700028E+01 )

 nodal point  x-rot      y-rot       z-rot       x-rot vel   y-rot vel   z-rot vel   x-rot acc   y-rot acc   z-rot acc
    22626  3.04572E-01 1.80632E-01-8.42869E-02 1.92121E-02 9.13094E-03-5.72511E-03 4.22867E-05-1.84702E-05 3.80860E-05



 n o d a l   p r i n t   o u t   f o r   t i m e  s t e p   49606                              ( at time 2.4800018E+01 )

 nodal point  x-disp     y-disp      z-disp      x-vel       y-vel       z-vel      x-accl      y-accl      z-accl      x-coor      y-coor      z-coor
    22626  5.12379E+00 1.40857E+00-1.86496E+01 2.49580E-01 1.21739E-02 4.51321E-01-8.92691E-03 1.78948E-02-1.83092E-02 5.30880E+01-2.06212E+01-1.13111E+01



 n o d a l   p r i n t   o u t   f o r   t i m e  s t e p   49606                              ( at time 2.4800018E+01 )

 nodal point  x-rot      y-rot       z-rot       x-rot vel   y-rot vel   z-rot vel   x-rot acc   y-rot acc   z-rot acc
    22626  3.06494E-01 1.81545E-01-8.48591E-02 1.92192E-02 9.12896E-03-5.71952E-03 7.16811E-05-1.98762E-05 5.59730E-05



 n o d a l   p r i n t   o u t   f o r   t i m e  s t e p   49806                              ( at time 2.4900008E+01 )

 nodal point  x-disp     y-disp      z-disp      x-vel       y-vel       z-vel      x-accl      y-accl      z-accl      x-coor      y-coor      z-coor
    22626  5.14872E+00 1.40988E+00-1.86046E+01 2.49053E-01 1.37871E-02 4.49962E-01-5.27321E-03 1.61330E-02-1.35932E-02 5.31129E+01-2.06199E+01-1.12661E+01



 n o d a l   p r i n t   o u t   f o r   t i m e  s t e p   49806                              ( at time 2.4900008E+01 )

 nodal point  x-rot      y-rot       z-rot       x-rot vel   y-rot vel   z-rot vel   x-rot acc   y-rot acc   z-rot acc
    22626  3.08416E-01 1.82458E-01-8.54309E-02 1.92268E-02 9.13296E-03-5.71641E-03 7.56876E-05 4.00047E-05 3.10584E-05



 n o d a l   p r i n t   o u t   f o r   t i m e  s t e p   50006                              ( at time 2.4999998E+01 )

 nodal point  x-disp     y-disp      z-disp      x-vel       y-vel       z-vel      x-accl      y-accl      z-accl      x-coor      y-coor      z-coor
    22626  5.17358E+00 1.41134E+00-1.85597E+01 2.48180E-01 1.53797E-02 4.48314E-01-8.72915E-03 1.59278E-02-1.64807E-02 5.31378E+01-2.06184E+01-1.12212E+01



 n o d a l   p r i n t   o u t   f o r   t i m e  s t e p   50006                              ( at time 2.4999998E+01 )

 nodal point  x-rot      y-rot       z-rot       x-rot vel   y-rot vel   z-rot vel   x-rot acc   y-rot acc   z-rot acc
    22626  3.10338E-01 1.83371E-01-8.60027E-02 1.92276E-02 9.12799E-03-5.71876E-03 8.04736E-06-4.96720E-05-2.34482E-05
