 LSTC 50th% Full_FE H-III Dummy (Beta Version, February 17, 2019)        
                    ls-dyna smp s R16 R16.0_619_d222963 date 03/18/2025

{BEGIN LEGEND}
 Entity #        Title
    22626                                                                                     
{END LEGEND}




 n o d a l   p r i n t   o u t   f o r   t i m e  s t e p       1                              ( at time 0.0000000E+00 )

 nodal point  x-disp     y-disp      z-disp      x-vel       y-vel       z-vel      x-accl      y-accl      z-accl      x-coor      y-coor      z-coor
    22626  0.00000E+00 0.00000E+00 0.00000E+00 0.00000E+00 0.00000E+00 0.00000E+00 0.00000E+00 0.00000E+00 0.00000E+00 4.65938E+00-2.81908E+01-4.49817E+01



 n o d a l   p r i n t   o u t   f o r   t i m e  s t e p       1                              ( at time 0.0000000E+00 )

 nodal point  x-rot      y-rot       z-rot       x-rot vel   y-rot vel   z-rot vel   x-rot acc   y-rot acc   z-rot acc
    22626  0.00000E+00 0.00000E+00 0.00000E+00 0.00000E+00 0.00000E+00 0.00000E+00 0.00000E+00 0.00000E+00 0.00000E+00



 n o d a l   p r i n t   o u t   f o r   t i m e  s t e p     201                              ( at time 9.9989993E-02 )

 nodal point  x-disp     y-disp      z-disp      x-vel       y-vel       z-vel      x-accl      y-accl      z-accl      x-coor      y-coor      z-coor
    22626  2.73575E-07 1.73669E-06-5.34278E-05 4.19752E-05 2.55596E-04-1.46819E-03 4.19794E-04 2.55621E-03-1.46834E-02 4.65938E+00-2.81908E+01-4.49818E+01



 n o d a l   p r i n t   o u t   f o r   t i m e  s t e p     201                              ( at time 9.9989993E-02 )

 nodal point  x-rot      y-rot       z-rot       x-rot vel   y-rot vel   z-rot vel   x-rot acc   y-rot acc   z-rot acc
    22626 -5.98980E-08-8.38467E-09-5.45921E-09-5.86955E-06-9.69950E-07-9.27111E-07-5.87014E-05-9.70047E-06-9.27203E-06



 n o d a l   p r i n t   o u t   f o r   t i m e  s t e p     401                              ( at time 1.9997999E-01 )

 nodal point  x-disp     y-disp      z-disp      x-vel       y-vel       z-vel      x-accl      y-accl      z-accl      x-coor      y-coor      z-coor
    22626  1.73079E-05 3.61749E-04-6.67596E-04 3.07658E-05 7.81175E-03-1.21552E-02-1.12105E-04 7.55691E-02-1.06881E-01 4.65939E+00-2.81905E+01-4.49824E+01



 n o d a l   p r i n t   o u t   f o r   t i m e  s t e p     401                              ( at time 1.9997999E-01 )

 nodal point  x-rot      y-rot       z-rot       x-rot vel   y-rot vel   z-rot vel   x-rot acc   y-rot acc   z-rot acc
    22626 -2.82012E-06-3.37151E-07-3.34640E-07-3.94396E-05-1.77143E-06-2.29513E-06-3.35734E-04-8.01562E-06-1.36815E-05



 n o d a l   p r i n t   o u t   f o r   t i m e  s t e p     601                              ( at time 2.9996998E-01 )

 nodal point  x-disp     y-disp      z-disp      x-vel       y-vel       z-vel      x-accl      y-accl      z-accl      x-coor      y-coor      z-coor
    22626  2.73400E-05 1.24008E-03-2.33844E-03 4.21790E-04 8.45020E-03-1.92552E-02 3.91064E-03 6.38514E-03-7.10073E-02 4.65940E+00-2.81896E+01-4.49841E+01



 n o d a l   p r i n t   o u t   f o r   t i m e  s t e p     601                              ( at time 2.9996998E-01 )

 nodal point  x-rot      y-rot       z-rot       x-rot vel   y-rot vel   z-rot vel   x-rot acc   y-rot acc   z-rot acc
    22626 -5.38391E-06-3.90468E-07-6.42446E-07-1.54288E-05-5.53125E-06-6.70235E-06 2.40132E-04-3.76019E-05-4.40766E-05



 n o d a l   p r i n t   o u t   f o r   t i m e  s t e p     801                              ( at time 3.9995997E-01 )

 nodal point  x-disp     y-disp      z-disp      x-vel       y-vel       z-vel      x-accl      y-accl      z-accl      x-coor      y-coor      z-coor
    22626  2.60421E-05 2.16243E-03-4.28287E-03-3.12953E-04 1.07368E-02-2.10870E-02-7.34817E-03 2.28680E-02-1.83199E-02 4.65940E+00-2.81887E+01-4.49860E+01



 n o d a l   p r i n t   o u t   f o r   t i m e  s t e p     801                              ( at time 3.9995997E-01 )

 nodal point  x-rot      y-rot       z-rot       x-rot vel   y-rot vel   z-rot vel   x-rot acc   y-rot acc   z-rot acc
    22626 -7.61662E-06-1.25020E-06-9.81758E-07-4.49142E-05-6.22470E-06-1.50538E-06-2.94884E-04-6.93521E-06 5.19749E-05



 n o d a l   p r i n t   o u t   f o r   t i m e  s t e p    1001                              ( at time 4.9994997E-01 )

 nodal point  x-disp     y-disp      z-disp      x-vel       y-vel       z-vel      x-accl      y-accl      z-accl      x-coor      y-coor      z-coor
    22626  3.72218E-06 3.43653E-03-6.74478E-03-2.42071E-04 1.41490E-02-2.87053E-02 7.08894E-04 3.41256E-02-7.61902E-02 4.65938E+00-2.81874E+01-4.49885E+01



 n o d a l   p r i n t   o u t   f o r   t i m e  s t e p    1001                              ( at time 4.9994997E-01 )

 nodal point  x-rot      y-rot       z-rot       x-rot vel   y-rot vel   z-rot vel   x-rot acc   y-rot acc   z-rot acc
    22626 -1.35614E-05-1.16651E-06-9.50090E-07-8.42629E-05 3.10326E-06 4.09582E-06-3.93526E-04 9.32889E-05 5.60176E-05



 n o d a l   p r i n t   o u t   f o r   t i m e  s t e p    1201                              ( at time 5.9993996E-01 )

 nodal point  x-disp     y-disp      z-disp      x-vel       y-vel       z-vel      x-accl      y-accl      z-accl      x-coor      y-coor      z-coor
    22626 -8.91277E-07 5.01225E-03-9.71612E-03 4.45109E-05 1.67031E-02-3.09901E-02 2.86611E-03 2.55433E-02-2.28510E-02 4.65937E+00-2.81858E+01-4.49914E+01



 n o d a l   p r i n t   o u t   f o r   t i m e  s t e p    1201                              ( at time 5.9993996E-01 )

 nodal point  x-rot      y-rot       z-rot       x-rot vel   y-rot vel   z-rot vel   x-rot acc   y-rot acc   z-rot acc
    22626 -2.02872E-05-8.87331E-07-9.58001E-07-5.90380E-05 3.91196E-06-1.99118E-06 2.52274E-04 8.08788E-06-6.08761E-05



 n o d a l   p r i n t   o u t   f o r   t i m e  s t e p    1401                              ( at time 6.9992995E-01 )

 nodal point  x-disp     y-disp      z-disp      x-vel       y-vel       z-vel      x-accl      y-accl      z-accl      x-coor      y-coor      z-coor
    22626 -5.09444E-05 6.85041E-03-1.31710E-02-4.88137E-04 1.96576E-02-3.89693E-02-5.32701E-03 2.95485E-02-7.97997E-02 4.65932E+00-2.81840E+01-4.49949E+01



 n o d a l   p r i n t   o u t   f o r   t i m e  s t e p    1401                              ( at time 6.9992995E-01 )

 nodal point  x-rot      y-rot       z-rot       x-rot vel   y-rot vel   z-rot vel   x-rot acc   y-rot acc   z-rot acc
    22626 -2.62093E-05-9.01267E-07-6.32821E-07-7.10216E-05 3.53256E-07 3.85939E-06-1.19848E-04-3.55906E-05 5.85115E-05



 n o d a l   p r i n t   o u t   f o r   t i m e  s t e p    1601                              ( at time 7.9991994E-01 )

 nodal point  x-disp     y-disp      z-disp      x-vel       y-vel       z-vel      x-accl      y-accl      z-accl      x-coor      y-coor      z-coor
    22626 -8.02712E-05 8.98674E-03-1.74643E-02-4.97942E-04 2.21639E-02-4.51198E-02-9.80594E-05 2.50650E-02-6.15111E-02 4.65929E+00-2.81818E+01-4.49992E+01



 n o d a l   p r i n t   o u t   f o r   t i m e  s t e p    1601                              ( at time 7.9991994E-01 )

 nodal point  x-rot      y-rot       z-rot       x-rot vel   y-rot vel   z-rot vel   x-rot acc   y-rot acc   z-rot acc
    22626 -3.43998E-05-8.78781E-07-5.14844E-07-9.18659E-05-4.87445E-06 1.60397E-06-2.08464E-04-5.22823E-05-2.25564E-05



 n o d a l   p r i n t   o u t   f o r   t i m e  s t e p    1801                              ( at time 8.9990994E-01 )

 nodal point  x-disp     y-disp      z-disp      x-vel       y-vel       z-vel      x-accl      y-accl      z-accl      x-coor      y-coor      z-coor
    22626 -1.16874E-04 1.12542E-02-2.19905E-02-2.83477E-04 2.40467E-02-4.55860E-02 2.14486E-03 1.88305E-02-4.66263E-03 4.65926E+00-2.81796E+01-4.50037E+01



 n o d a l   p r i n t   o u t   f o r   t i m e  s t e p    1801                              ( at time 8.9990994E-01 )

 nodal point  x-rot      y-rot       z-rot       x-rot vel   y-rot vel   z-rot vel   x-rot acc   y-rot acc   z-rot acc
    22626 -4.28176E-05-9.58211E-07-5.01928E-07-8.23821E-05 1.95487E-06-7.18335E-07 9.48474E-05 6.83000E-05-2.32254E-05



 n o d a l   p r i n t   o u t   f o r   t i m e  s t e p    2001                              ( at time 9.9989993E-01 )

 nodal point  x-disp     y-disp      z-disp      x-vel       y-vel       z-vel      x-accl      y-accl      z-accl      x-coor      y-coor      z-coor
    22626 -1.52017E-04 1.37913E-02-2.67304E-02-3.78215E-05 2.65030E-02-5.00354E-02 2.45680E-03 2.45647E-02-4.44981E-02 4.65922E+00-2.81770E+01-4.50084E+01



 n o d a l   p r i n t   o u t   f o r   t i m e  s t e p    2001                              ( at time 9.9989993E-01 )

 nodal point  x-rot      y-rot       z-rot       x-rot vel   y-rot vel   z-rot vel   x-rot acc   y-rot acc   z-rot acc
    22626 -5.18493E-05-9.08905E-07-4.37285E-07-1.06132E-04 1.25352E-06-3.03867E-06-2.37522E-04-7.01420E-06-2.32056E-05



 n o d a l   p r i n t   o u t   f o r   t i m e  s t e p    2201                              ( at time 1.0998899E+00 )

 nodal point  x-disp     y-disp      z-disp      x-vel       y-vel       z-vel      x-accl      y-accl      z-accl      x-coor      y-coor      z-coor
    22626 -1.59791E-04 1.65321E-02-3.20559E-02-3.43319E-04 2.88881E-02-5.60754E-02-3.05529E-03 2.38536E-02-6.04067E-02 4.65921E+00-2.81743E+01-4.50138E+01



 n o d a l   p r i n t   o u t   f o r   t i m e  s t e p    2201                              ( at time 1.0998899E+00 )

 nodal point  x-rot      y-rot       z-rot       x-rot vel   y-rot vel   z-rot vel   x-rot acc   y-rot acc   z-rot acc
    22626 -6.29465E-05-1.00481E-06-7.49371E-07-1.03630E-04-7.54854E-06-1.99635E-06 2.50266E-05-8.80294E-05 1.04242E-05



 n o d a l   p r i n t   o u t   f o r   t i m e  s t e p    2401                              ( at time 1.1998799E+00 )

 nodal point  x-disp     y-disp      z-disp      x-vel       y-vel       z-vel      x-accl      y-accl      z-accl      x-coor      y-coor      z-coor
    22626 -1.89736E-04 1.94752E-02-3.79327E-02-1.96269E-04 3.02230E-02-6.12131E-02 1.47066E-03 1.33502E-02-5.13813E-02 4.65919E+00-2.81714E+01-4.50197E+01



 n o d a l   p r i n t   o u t   f o r   t i m e  s t e p    2401                              ( at time 1.1998799E+00 )

 nodal point  x-rot      y-rot       z-rot       x-rot vel   y-rot vel   z-rot vel   x-rot acc   y-rot acc   z-rot acc
    22626 -7.29521E-05-1.61468E-06-9.90199E-07-1.01312E-04-7.15803E-06-3.06655E-06 2.31761E-05 3.90551E-06-1.07031E-05



 n o d a l   p r i n t   o u t   f o r   t i m e  s t e p    2601                              ( at time 1.2998699E+00 )

 nodal point  x-disp     y-disp      z-disp      x-vel       y-vel       z-vel      x-accl      y-accl      z-accl      x-coor      y-coor      z-coor
    22626 -2.23861E-04 2.26249E-02-4.42079E-02-2.49700E-04 3.26016E-02-6.40472E-02-5.34367E-04 2.37890E-02-2.83447E-02 4.65915E+00-2.81682E+01-4.50259E+01



 n o d a l   p r i n t   o u t   f o r   t i m e  s t e p    2601                              ( at time 1.2998699E+00 )

 nodal point  x-rot      y-rot       z-rot       x-rot vel   y-rot vel   z-rot vel   x-rot acc   y-rot acc   z-rot acc
    22626 -8.39943E-05-2.17189E-06-1.24562E-06-1.29257E-04-1.39331E-08-1.38722E-06-2.79478E-04 7.14481E-05 1.67950E-05



 n o d a l   p r i n t   o u t   f o r   t i m e  s t e p    2801                              ( at time 1.3998599E+00 )

 nodal point  x-disp     y-disp      z-disp      x-vel       y-vel       z-vel      x-accl      y-accl      z-accl      x-coor      y-coor      z-coor
    22626 -2.51406E-04 2.59924E-02-5.07121E-02-4.49590E-04 3.45136E-02-6.66753E-02-1.99910E-03 1.91220E-02-2.62834E-02 4.65912E+00-2.81648E+01-4.50324E+01



 n o d a l   p r i n t   o u t   f o r   t i m e  s t e p    2801                              ( at time 1.3998599E+00 )

 nodal point  x-rot      y-rot       z-rot       x-rot vel   y-rot vel   z-rot vel   x-rot acc   y-rot acc   z-rot acc
    22626 -9.73983E-05-2.01194E-06-1.34468E-06-1.37120E-04-2.47492E-07 1.76114E-06-7.86353E-05-2.33582E-06 3.14867E-05



 n o d a l   p r i n t   o u t   f o r   t i m e  s t e p    3001                              ( at time 1.4998499E+00 )

 nodal point  x-disp     y-disp      z-disp      x-vel       y-vel       z-vel      x-accl      y-accl      z-accl      x-coor      y-coor      z-coor
    22626 -2.96305E-04 2.95911E-02-5.77242E-02-4.49554E-04 3.72781E-02-7.39878E-02 3.60632E-07 2.76469E-02-7.31322E-02 4.65908E+00-2.81612E+01-4.50394E+01



 n o d a l   p r i n t   o u t   f o r   t i m e  s t e p    3001                              ( at time 1.4998499E+00 )

 nodal point  x-rot      y-rot       z-rot       x-rot vel   y-rot vel   z-rot vel   x-rot acc   y-rot acc   z-rot acc
    22626 -1.10707E-04-2.03103E-06-1.27016E-06-1.28728E-04-9.90976E-07-1.73022E-06 8.39296E-05-7.43559E-06-3.49171E-05



 n o d a l   p r i n t   o u t   f o r   t i m e  s t e p    3201                              ( at time 1.5998399E+00 )

 nodal point  x-disp     y-disp      z-disp      x-vel       y-vel       z-vel      x-accl      y-accl      z-accl      x-coor      y-coor      z-coor
    22626 -3.60093E-04 3.34891E-02-6.54464E-02-5.82228E-04 4.05408E-02-7.97031E-02-1.32688E-03 3.26310E-02-5.71590E-02 4.65901E+00-2.81573E+01-4.50472E+01



 n o d a l   p r i n t   o u t   f o r   t i m e  s t e p    3201                              ( at time 1.5998399E+00 )

 nodal point  x-rot      y-rot       z-rot       x-rot vel   y-rot vel   z-rot vel   x-rot acc   y-rot acc   z-rot acc
    22626 -1.23310E-04-2.14915E-06-1.09697E-06-1.34710E-04-2.99509E-06 3.16288E-06-5.98237E-05-2.00431E-05 4.89360E-05



 n o d a l   p r i n t   o u t   f o r   t i m e  s t e p    3401                              ( at time 1.6998299E+00 )

 nodal point  x-disp     y-disp      z-disp      x-vel       y-vel       z-vel      x-accl      y-accl      z-accl      x-coor      y-coor      z-coor
    22626 -4.21511E-04 3.76573E-02-7.35888E-02-7.28961E-04 4.28949E-02-8.28462E-02-1.46747E-03 2.35431E-02-3.14340E-02 4.65895E+00-2.81532E+01-4.50553E+01



 n o d a l   p r i n t   o u t   f o r   t i m e  s t e p    3401                              ( at time 1.6998299E+00 )

 nodal point  x-rot      y-rot       z-rot       x-rot vel   y-rot vel   z-rot vel   x-rot acc   y-rot acc   z-rot acc
    22626 -1.37575E-04-2.14905E-06-9.06231E-07-1.48501E-04 1.64061E-06 3.72390E-06-1.37928E-04 4.63616E-05 5.61072E-06



 n o d a l   p r i n t   o u t   f o r   t i m e  s t e p    3601                              ( at time 1.7998199E+00 )

 nodal point  x-disp     y-disp      z-disp      x-vel       y-vel       z-vel      x-accl      y-accl      z-accl      x-coor      y-coor      z-coor
    22626 -4.87075E-04 4.21585E-02-8.20411E-02-6.14433E-04 4.80590E-02-8.61140E-02 1.14539E-03 5.16458E-02-3.26808E-02 4.65889E+00-2.81487E+01-4.50638E+01



 n o d a l   p r i n t   o u t   f o r   t i m e  s t e p    3601                              ( at time 1.7998199E+00 )

 nodal point  x-rot      y-rot       z-rot       x-rot vel   y-rot vel   z-rot vel   x-rot acc   y-rot acc   z-rot acc
    22626 -1.53512E-04-2.07989E-06-8.21589E-07-1.70130E-04 1.16012E-06-3.78244E-06-2.16312E-04-4.80543E-06-7.50710E-05



 n o d a l   p r i n t   o u t   f o r   t i m e  s t e p    3801                              ( at time 1.8998099E+00 )

 nodal point  x-disp     y-disp      z-disp      x-vel       y-vel       z-vel      x-accl      y-accl      z-accl      x-coor      y-coor      z-coor
    22626 -5.67337E-04 4.74800E-02-9.08769E-02-8.27869E-04 5.98098E-02-9.09437E-02-2.13458E-03 1.17520E-01-4.83017E-02 4.65881E+00-2.81434E+01-4.50726E+01



 n o d a l   p r i n t   o u t   f o r   t i m e  s t e p    3801                              ( at time 1.8998099E+00 )

 nodal point  x-rot      y-rot       z-rot       x-rot vel   y-rot vel   z-rot vel   x-rot acc   y-rot acc   z-rot acc
    22626 -1.72240E-04-2.07603E-06-1.10048E-06-2.28261E-04-4.85856E-06-6.50197E-06-5.81369E-04-6.01928E-05-2.71980E-05



 n o d a l   p r i n t   o u t   f o r   t i m e  s t e p    4001                              ( at time 1.9997999E+00 )

 nodal point  x-disp     y-disp      z-disp      x-vel       y-vel       z-vel      x-accl      y-accl      z-accl      x-coor      y-coor      z-coor
    22626 -6.44033E-04 5.42334E-02-1.00209E-01-9.25181E-04 7.64325E-02-9.57013E-02-9.73212E-04 1.66244E-01-4.75807E-02 4.65873E+00-2.81366E+01-4.50819E+01



 n o d a l   p r i n t   o u t   f o r   t i m e  s t e p    4001                              ( at time 1.9997999E+00 )

 nodal point  x-rot      y-rot       z-rot       x-rot vel   y-rot vel   z-rot vel   x-rot acc   y-rot acc   z-rot acc
    22626 -1.99870E-04-2.37377E-06-1.29707E-06-3.45832E-04-6.32368E-06-6.69448E-06-1.17583E-03-1.46526E-05-1.92527E-06



 n o d a l   p r i n t   o u t   f o r   t i m e  s t e p    4201                              ( at time 2.0997899E+00 )

 nodal point  x-disp     y-disp      z-disp      x-vel       y-vel       z-vel      x-accl      y-accl      z-accl      x-coor      y-coor      z-coor
    22626 -7.73454E-04 6.30849E-02-1.09864E-01-1.69474E-03 1.00935E-01-9.75265E-02-7.69633E-03 2.45045E-01-1.82537E-02 4.65860E+00-2.81277E+01-4.50916E+01



 n o d a l   p r i n t   o u t   f o r   t i m e  s t e p    4201                              ( at time 2.0997899E+00 )

 nodal point  x-rot      y-rot       z-rot       x-rot vel   y-rot vel   z-rot vel   x-rot acc   y-rot acc   z-rot acc
    22626 -2.42330E-04-3.37908E-06-3.01639E-06-5.14396E-04-1.08746E-05-1.77668E-05-1.68581E-03-4.55134E-05-1.10734E-04



 n o d a l   p r i n t   o u t   f o r   t i m e  s t e p    4401                              ( at time 2.1997798E+00 )

 nodal point  x-disp     y-disp      z-disp      x-vel       y-vel       z-vel      x-accl      y-accl      z-accl      x-coor      y-coor      z-coor
    22626 -9.29463E-04 7.46859E-02-1.19654E-01-1.13792E-03 1.31379E-01-9.83065E-02 5.56874E-03 3.04473E-01-7.80095E-03 4.65845E+00-2.81161E+01-4.51014E+01



 n o d a l   p r i n t   o u t   f o r   t i m e  s t e p    4401                              ( at time 2.1997798E+00 )

 nodal point  x-rot      y-rot       z-rot       x-rot vel   y-rot vel   z-rot vel   x-rot acc   y-rot acc   z-rot acc
    22626 -3.05110E-04-3.90081E-06-3.89979E-06-7.44508E-04-2.15990E-06 4.19712E-07-2.30136E-03 8.71555E-05 1.81884E-04



 n o d a l   p r i n t   o u t   f o r   t i m e  s t e p    4601                              ( at time 2.2997698E+00 )

 nodal point  x-disp     y-disp      z-disp      x-vel       y-vel       z-vel      x-accl      y-accl      z-accl      x-coor      y-coor      z-coor
    22626 -1.01760E-03 8.96102E-02-1.29588E-01-1.35271E-03 1.68177E-01-1.00598E-01-2.14811E-03 3.68021E-01-2.29138E-02 4.65836E+00-2.81012E+01-4.51113E+01



 n o d a l   p r i n t   o u t   f o r   t i m e  s t e p    4601                              ( at time 2.2997698E+00 )

 nodal point  x-rot      y-rot       z-rot       x-rot vel   y-rot vel   z-rot vel   x-rot acc   y-rot acc   z-rot acc
    22626 -3.92982E-04-3.88538E-06-4.26157E-06-1.00315E-03-5.79197E-06-1.80243E-05-2.58666E-03-3.63243E-05-1.84458E-04



 n o d a l   p r i n t   o u t   f o r   t i m e  s t e p    4801                              ( at time 2.3997598E+00 )

 nodal point  x-disp     y-disp      z-disp      x-vel       y-vel       z-vel      x-accl      y-accl      z-accl      x-coor      y-coor      z-coor
    22626 -1.22600E-03 1.08567E-01-1.39935E-01-2.64551E-03 2.11420E-01-1.06010E-01-1.29293E-02 4.32472E-01-5.41330E-02 4.65815E+00-2.80823E+01-4.51217E+01



 n o d a l   p r i n t   o u t   f o r   t i m e  s t e p    4801                              ( at time 2.3997598E+00 )

 nodal point  x-rot      y-rot       z-rot       x-rot vel   y-rot vel   z-rot vel   x-rot acc   y-rot acc   z-rot acc
    22626 -5.07324E-04-4.35830E-06-5.16267E-06-1.29702E-03-7.65672E-06-1.30162E-05-2.93906E-03-1.86493E-05 5.00857E-05



 n o d a l   p r i n t   o u t   f o r   t i m e  s t e p    5001                              ( at time 2.4997498E+00 )

 nodal point  x-disp     y-disp      z-disp      x-vel       y-vel       z-vel      x-accl      y-accl      z-accl      x-coor      y-coor      z-coor
    22626 -1.46130E-03 1.32117E-01-1.50725E-01-2.34859E-03 2.59075E-01-1.08893E-01 2.96951E-03 4.76595E-01-2.88338E-02 4.65791E+00-2.80587E+01-4.51324E+01



 n o d a l   p r i n t   o u t   f o r   t i m e  s t e p    5001                              ( at time 2.4997498E+00 )

 nodal point  x-rot      y-rot       z-rot       x-rot vel   y-rot vel   z-rot vel   x-rot acc   y-rot acc   z-rot acc
    22626 -6.52780E-04-5.04163E-06-6.27632E-06-1.62133E-03-5.77840E-06-1.54743E-05-3.24339E-03 1.87851E-05-2.45827E-05



 n o d a l   p r i n t   o u t   f o r   t i m e  s t e p    5201                              ( at time 2.5997398E+00 )

 nodal point  x-disp     y-disp      z-disp      x-vel       y-vel       z-vel      x-accl      y-accl      z-accl      x-coor      y-coor      z-coor
    22626 -1.74649E-03 1.60573E-01-1.61682E-01-3.29421E-03 3.10892E-01-1.10219E-01-9.45713E-03 5.18224E-01-1.32525E-02 4.65763E+00-2.80303E+01-4.51434E+01



 n o d a l   p r i n t   o u t   f o r   t i m e  s t e p    5201                              ( at time 2.5997398E+00 )

 nodal point  x-rot      y-rot       z-rot       x-rot vel   y-rot vel   z-rot vel   x-rot acc   y-rot acc   z-rot acc
    22626 -8.31240E-04-5.50555E-06-8.13231E-06-1.95577E-03-9.01668E-07-1.44165E-05-3.34472E-03 4.87722E-05 1.05791E-05



 n o d a l   p r i n t   o u t   f o r   t i m e  s t e p    5401                              ( at time 2.6997298E+00 )

 nodal point  x-disp     y-disp      z-disp      x-vel       y-vel       z-vel      x-accl      y-accl      z-accl      x-coor      y-coor      z-coor
    22626 -2.12086E-03 1.94421E-01-1.72833E-01-3.54383E-03 3.67177E-01-1.12741E-01-2.49648E-03 5.62908E-01-2.52292E-02 4.65725E+00-2.79964E+01-4.51546E+01



 n o d a l   p r i n t   o u t   f o r   t i m e  s t e p    5401                              ( at time 2.6997298E+00 )

 nodal point  x-rot      y-rot       z-rot       x-rot vel   y-rot vel   z-rot vel   x-rot acc   y-rot acc   z-rot acc
    22626 -1.04454E-03-6.52666E-06-1.09301E-05-2.32948E-03-1.62758E-05-3.30642E-05-3.73745E-03-1.53757E-04-1.86496E-04



 n o d a l   p r i n t   o u t   f o r   t i m e  s t e p    5601                              ( at time 2.7997198E+00 )

 nodal point  x-disp     y-disp      z-disp      x-vel       y-vel       z-vel      x-accl      y-accl      z-accl      x-coor      y-coor      z-coor
    22626 -2.56815E-03 2.34214E-01-1.84238E-01-5.11773E-03 4.28554E-01-1.15672E-01-1.57405E-02 6.13834E-01-2.93071E-02 4.65681E+00-2.79566E+01-4.51660E+01



 n o d a l   p r i n t   o u t   f o r   t i m e  s t e p    5601                              ( at time 2.7997198E+00 )

 nodal point  x-rot      y-rot       z-rot       x-rot vel   y-rot vel   z-rot vel   x-rot acc   y-rot acc   z-rot acc
    22626 -1.29562E-03-8.29142E-06-1.55901E-05-2.70277E-03-2.44471E-05-5.15806E-05-3.73334E-03-8.17205E-05-1.85183E-04



 n o d a l   p r i n t   o u t   f o r   t i m e  s t e p    5801                              ( at time 2.8997098E+00 )

 nodal point  x-disp     y-disp      z-disp      x-vel       y-vel       z-vel      x-accl      y-accl      z-accl      x-coor      y-coor      z-coor
    22626 -3.12246E-03 2.80217E-01-1.96013E-01-5.80552E-03 4.92098E-01-1.19859E-01-6.87860E-03 6.35496E-01-4.18820E-02 4.65625E+00-2.79106E+01-4.51777E+01



 n o d a l   p r i n t   o u t   f o r   t i m e  s t e p    5801                              ( at time 2.8997098E+00 )

 nodal point  x-rot      y-rot       z-rot       x-rot vel   y-rot vel   z-rot vel   x-rot acc   y-rot acc   z-rot acc
    22626 -1.58499E-03-1.07152E-05-2.18005E-05-3.09618E-03-3.51102E-05-7.11983E-05-3.93444E-03-1.06642E-04-1.96196E-04



 n o d a l   p r i n t   o u t   f o r   t i m e  s t e p    6001                              ( at time 2.9996998E+00 )

 nodal point  x-disp     y-disp      z-disp      x-vel       y-vel       z-vel      x-accl      y-accl      z-accl      x-coor      y-coor      z-coor
    22626 -3.73820E-03 3.32685E-01-2.08150E-01-5.96159E-03 5.57829E-01-1.22050E-01-1.56087E-03 6.57377E-01-2.19034E-02 4.65564E+00-2.78581E+01-4.51899E+01



 n o d a l   p r i n t   o u t   f o r   t i m e  s t e p    6001                              ( at time 2.9996998E+00 )

 nodal point  x-rot      y-rot       z-rot       x-rot vel   y-rot vel   z-rot vel   x-rot acc   y-rot acc   z-rot acc
    22626 -1.91573E-03-1.44313E-05-2.98223E-05-3.50747E-03-3.93897E-05-8.22401E-05-4.11331E-03-4.27998E-05-1.10429E-04



 n o d a l   p r i n t   o u t   f o r   t i m e  s t e p    6201                              ( at time 3.0996898E+00 )

 nodal point  x-disp     y-disp      z-disp      x-vel       y-vel       z-vel      x-accl      y-accl      z-accl      x-coor      y-coor      z-coor
    22626 -4.43950E-03 3.91777E-01-2.20449E-01-7.18268E-03 6.24480E-01-1.23938E-01-1.22121E-02 6.66580E-01-1.88818E-02 4.65494E+00-2.77991E+01-4.52022E+01



 n o d a l   p r i n t   o u t   f o r   t i m e  s t e p    6201                              ( at time 3.0996898E+00 )

 nodal point  x-rot      y-rot       z-rot       x-rot vel   y-rot vel   z-rot vel   x-rot acc   y-rot acc   z-rot acc
    22626 -2.28727E-03-1.85842E-05-3.87295E-05-3.90922E-03-3.73028E-05-9.01031E-05-4.01791E-03 2.08714E-05-7.86378E-05



 n o d a l   p r i n t   o u t   f o r   t i m e  s t e p    6401                              ( at time 3.1996798E+00 )

 nodal point  x-disp     y-disp      z-disp      x-vel       y-vel       z-vel      x-accl      y-accl      z-accl      x-coor      y-coor      z-coor
    22626 -5.17674E-03 4.57696E-01-2.33111E-01-7.69013E-03 6.93749E-01-1.29435E-01-5.07498E-03 6.92753E-01-5.49823E-02 4.65420E+00-2.77331E+01-4.52148E+01



 n o d a l   p r i n t   o u t   f o r   t i m e  s t e p    6401                              ( at time 3.1996798E+00 )

 nodal point  x-rot      y-rot       z-rot       x-rot vel   y-rot vel   z-rot vel   x-rot acc   y-rot acc   z-rot acc
    22626 -2.69910E-03-2.23355E-05-4.85823E-05-4.31945E-03-3.90733E-05-9.32079E-05-4.10272E-03-1.77064E-05-3.10508E-05



 n o d a l   p r i n t   o u t   f o r   t i m e  s t e p    6601                              ( at time 3.2996698E+00 )

 nodal point  x-disp     y-disp      z-disp      x-vel       y-vel       z-vel      x-accl      y-accl      z-accl      x-coor      y-coor      z-coor
    22626 -5.94479E-03 5.30711E-01-2.46279E-01-8.14640E-03 7.66371E-01-1.33321E-01-4.56322E-03 7.26297E-01-3.88578E-02 4.65343E+00-2.76601E+01-4.52280E+01



 n o d a l   p r i n t   o u t   f o r   t i m e  s t e p    6601                              ( at time 3.2996698E+00 )

 nodal point  x-rot      y-rot       z-rot       x-rot vel   y-rot vel   z-rot vel   x-rot acc   y-rot acc   z-rot acc
    22626 -3.15312E-03-2.58409E-05-5.78621E-05-4.74926E-03-3.90594E-05-9.77020E-05-4.29852E-03 1.38403E-07-4.49457E-05



 n o d a l   p r i n t   o u t   f o r   t i m e  s t e p    6801                              ( at time 3.3996598E+00 )

 nodal point  x-disp     y-disp      z-disp      x-vel       y-vel       z-vel      x-accl      y-accl      z-accl      x-coor      y-coor      z-coor
    22626 -6.75532E-03 6.10945E-01-2.59745E-01-8.30269E-03 8.37869E-01-1.35726E-01-1.56302E-03 7.15056E-01-2.40545E-02 4.65262E+00-2.75799E+01-4.52415E+01



 n o d a l   p r i n t   o u t   f o r   t i m e  s t e p    6801                              ( at time 3.3996598E+00 )

 nodal point  x-rot      y-rot       z-rot       x-rot vel   y-rot vel   z-rot vel   x-rot acc   y-rot acc   z-rot acc
    22626 -3.64895E-03-2.99249E-05-6.75766E-05-5.14635E-03-3.87315E-05-9.75497E-05-3.97134E-03 3.27985E-06 1.52294E-06



 n o d a l   p r i n t   o u t   f o r   t i m e  s t e p    7001                              ( at time 3.4996498E+00 )

 nodal point  x-disp     y-disp      z-disp      x-vel       y-vel       z-vel      x-accl      y-accl      z-accl      x-coor      y-coor      z-coor
    22626 -7.57162E-03 6.98378E-01-2.73431E-01-7.68043E-03 9.10022E-01-1.37208E-01 6.22317E-03 7.21596E-01-1.48268E-02 4.65180E+00-2.74925E+01-4.52551E+01



 n o d a l   p r i n t   o u t   f o r   t i m e  s t e p    7001                              ( at time 3.4996498E+00 )

 nodal point  x-rot      y-rot       z-rot       x-rot vel   y-rot vel   z-rot vel   x-rot acc   y-rot acc   z-rot acc
    22626 -4.18486E-03-3.36888E-05-7.70118E-05-5.55454E-03-2.76490E-05-8.86152E-05-4.08227E-03 1.10836E-04 8.93545E-05



 n o d a l   p r i n t   o u t   f o r   t i m e  s t e p    7201                              ( at time 3.5996397E+00 )

 nodal point  x-disp     y-disp      z-disp      x-vel       y-vel       z-vel      x-accl      y-accl      z-accl      x-coor      y-coor      z-coor
    22626 -8.29483E-03 7.93022E-01-2.87226E-01-6.92171E-03 9.83022E-01-1.39534E-01 7.58800E-03 7.30077E-01-2.32619E-02 4.65108E+00-2.73978E+01-4.52689E+01



 n o d a l   p r i n t   o u t   f o r   t i m e  s t e p    7201                              ( at time 3.5996397E+00 )

 nodal point  x-rot      y-rot       z-rot       x-rot vel   y-rot vel   z-rot vel   x-rot acc   y-rot acc   z-rot acc
    22626 -4.76097E-03-3.57185E-05-8.49048E-05-5.97153E-03-1.84499E-05-7.72246E-05-4.17031E-03 9.19998E-05 1.13917E-04



 n o d a l   p r i n t   o u t   f o r   t i m e  s t e p    7401                              ( at time 3.6996297E+00 )

 nodal point  x-disp     y-disp      z-disp      x-vel       y-vel       z-vel      x-accl      y-accl      z-accl      x-coor      y-coor      z-coor
    22626 -8.97112E-03 8.94960E-01-3.01230E-01-6.86130E-03 1.05412E+00-1.40845E-01 6.04209E-04 7.11086E-01-1.31075E-02 4.65040E+00-2.72959E+01-4.52830E+01



 n o d a l   p r i n t   o u t   f o r   t i m e  s t e p    7401                              ( at time 3.6996297E+00 )

 nodal point  x-rot      y-rot       z-rot       x-rot vel   y-rot vel   z-rot vel   x-rot acc   y-rot acc   z-rot acc
    22626 -5.37666E-03-3.75795E-05-9.15528E-05-6.35213E-03-3.62688E-05-7.06257E-05-3.80643E-03-1.78206E-04 6.59964E-05



 n o d a l   p r i n t   o u t   f o r   t i m e  s t e p    7601                              ( at time 3.7996197E+00 )

 nodal point  x-disp     y-disp      z-disp      x-vel       y-vel       z-vel      x-accl      y-accl      z-accl      x-coor      y-coor      z-coor
    22626 -9.62901E-03 1.00392E+00-3.15309E-01-6.39942E-03 1.12457E+00-1.40683E-01 4.61922E-03 7.04533E-01 1.62260E-03 4.64975E+00-2.71869E+01-4.52970E+01



 n o d a l   p r i n t   o u t   f o r   t i m e  s t e p    7601                              ( at time 3.7996197E+00 )

 nodal point  x-rot      y-rot       z-rot       x-rot vel   y-rot vel   z-rot vel   x-rot acc   y-rot acc   z-rot acc
    22626 -6.03065E-03-4.04756E-05-9.79443E-05-6.72871E-03-1.96367E-05-5.83819E-05-3.76612E-03 1.66338E-04 1.22450E-04



 n o d a l   p r i n t   o u t   f o r   t i m e  s t e p    7801                              ( at time 3.8996097E+00 )

 nodal point  x-disp     y-disp      z-disp      x-vel       y-vel       z-vel      x-accl      y-accl      z-accl      x-coor      y-coor      z-coor
    22626 -1.02019E-02 1.11985E+00-3.29304E-01-4.90548E-03 1.19348E+00-1.38415E-01 1.49409E-02 6.89154E-01 2.26845E-02 4.64917E+00-2.70710E+01-4.53110E+01



 n o d a l   p r i n t   o u t   f o r   t i m e  s t e p    7801                              ( at time 3.8996097E+00 )

 nodal point  x-rot      y-rot       z-rot       x-rot vel   y-rot vel   z-rot vel   x-rot acc   y-rot acc   z-rot acc
    22626 -6.72142E-03-4.13172E-05-1.03211E-04-7.07083E-03 4.02428E-06-3.57362E-05-3.42152E-03 2.36633E-04 2.26480E-04



 n o d a l   p r i n t   o u t   f o r   t i m e  s t e p    8001                              ( at time 3.9995997E+00 )

 nodal point  x-disp     y-disp      z-disp      x-vel       y-vel       z-vel      x-accl      y-accl      z-accl      x-coor      y-coor      z-coor
    22626 -1.06438E-02 1.24255E+00-3.43035E-01-3.70056E-03 1.26082E+00-1.36077E-01 1.20503E-02 6.73515E-01 2.33796E-02 4.64873E+00-2.69483E+01-4.53248E+01



 n o d a l   p r i n t   o u t   f o r   t i m e  s t e p    8001                              ( at time 3.9995997E+00 )

 nodal point  x-rot      y-rot       z-rot       x-rot vel   y-rot vel   z-rot vel   x-rot acc   y-rot acc   z-rot acc
    22626 -7.44455E-03-4.13187E-05-1.06584E-04-7.38101E-03-1.03422E-06-3.22987E-05-3.10211E-03-5.05901E-05 3.43778E-05



 n o d a l   p r i n t   o u t   f o r   t i m e  s t e p    8201                              ( at time 4.0995897E+00 )

 nodal point  x-disp     y-disp      z-disp      x-vel       y-vel       z-vel      x-accl      y-accl      z-accl      x-coor      y-coor      z-coor
    22626 -1.10283E-02 1.37192E+00-3.56563E-01-3.94534E-03 1.32658E+00-1.33769E-01-2.44803E-03 6.57592E-01 2.30782E-02 4.64835E+00-2.68189E+01-4.53383E+01



 n o d a l   p r i n t   o u t   f o r   t i m e  s t e p    8201                              ( at time 4.0995897E+00 )

 nodal point  x-rot      y-rot       z-rot       x-rot vel   y-rot vel   z-rot vel   x-rot acc   y-rot acc   z-rot acc
    22626 -8.19843E-03-4.17897E-05-1.08244E-04-7.69611E-03-2.75309E-06-1.30794E-05-3.15136E-03-1.71904E-05 1.92212E-04



 n o d a l   p r i n t   o u t   f o r   t i m e  s t e p    8401                              ( at time 4.1995797E+00 )

 nodal point  x-disp     y-disp      z-disp      x-vel       y-vel       z-vel      x-accl      y-accl      z-accl      x-coor      y-coor      z-coor
    22626 -1.13944E-02 1.50784E+00-3.69718E-01-3.63641E-03 1.39116E+00-1.28949E-01 3.08966E-03 6.45921E-01 4.82109E-02 4.64798E+00-2.66830E+01-4.53514E+01



 n o d a l   p r i n t   o u t   f o r   t i m e  s t e p    8401                              ( at time 4.1995797E+00 )

 nodal point  x-rot      y-rot       z-rot       x-rot vel   y-rot vel   z-rot vel   x-rot acc   y-rot acc   z-rot acc
    22626 -8.98247E-03-4.05813E-05-1.09649E-04-7.97275E-03 1.25173E-05-1.34581E-05-2.76663E-03 1.52719E-04-3.78735E-06



 n o d a l   p r i n t   o u t   f o r   t i m e  s t e p    8601                              ( at time 4.2995697E+00 )

 nodal point  x-disp     y-disp      z-disp      x-vel       y-vel       z-vel      x-accl      y-accl      z-accl      x-coor      y-coor      z-coor
    22626 -1.16320E-02 1.64997E+00-3.82262E-01-1.32771E-03 1.45093E+00-1.21412E-01 2.30893E-02 5.97708E-01 7.53726E-02 4.64774E+00-2.65409E+01-4.53640E+01



 n o d a l   p r i n t   o u t   f o r   t i m e  s t e p    8601                              ( at time 4.2995697E+00 )

 nodal point  x-rot      y-rot       z-rot       x-rot vel   y-rot vel   z-rot vel   x-rot acc   y-rot acc   z-rot acc
    22626 -9.79119E-03-3.86565E-05-1.09460E-04-8.19718E-03 3.21975E-05 2.92444E-05-2.24461E-03 1.96822E-04 4.27068E-04



 n o d a l   p r i n t   o u t   f o r   t i m e  s t e p    8801                              ( at time 4.3995597E+00 )

 nodal point  x-disp     y-disp      z-disp      x-vel       y-vel       z-vel      x-accl      y-accl      z-accl      x-coor      y-coor      z-coor
    22626 -1.18012E-02 1.79803E+00-3.94016E-01-4.84907E-04 1.51033E+00-1.13786E-01 8.42892E-03 5.94115E-01 7.62704E-02 4.64757E+00-2.63928E+01-4.53757E+01



 n o d a l   p r i n t   o u t   f o r   t i m e  s t e p    8801                              ( at time 4.3995597E+00 )

 nodal point  x-rot      y-rot       z-rot       x-rot vel   y-rot vel   z-rot vel   x-rot acc   y-rot acc   z-rot acc
    22626 -1.06223E-02-3.54083E-05-1.06827E-04-8.42796E-03 3.39318E-05 3.02801E-05-2.30802E-03 1.73454E-05 1.03583E-05



 n o d a l   p r i n t   o u t   f o r   t i m e  s t e p    9001                              ( at time 4.4995497E+00 )

 nodal point  x-disp     y-disp      z-disp      x-vel       y-vel       z-vel      x-accl      y-accl      z-accl      x-coor      y-coor      z-coor
    22626 -1.18689E-02 1.95194E+00-4.05003E-01-8.98180E-04 1.56759E+00-1.05687E-01-4.13313E-03 5.72682E-01 8.09949E-02 4.64751E+00-2.62389E+01-4.53867E+01



 n o d a l   p r i n t   o u t   f o r   t i m e  s t e p    9001                              ( at time 4.4995497E+00 )

 nodal point  x-rot      y-rot       z-rot       x-rot vel   y-rot vel   z-rot vel   x-rot acc   y-rot acc   z-rot acc
    22626 -1.14752E-02-3.23615E-05-1.04542E-04-8.62715E-03 2.84699E-05 2.94282E-05-1.99206E-03-5.46251E-05-8.52004E-06



 n o d a l   p r i n t   o u t   f o r   t i m e  s t e p    9201                              ( at time 4.5995397E+00 )

 nodal point  x-disp     y-disp      z-disp      x-vel       y-vel       z-vel      x-accl      y-accl      z-accl      x-coor      y-coor      z-coor
    22626 -1.19084E-02 2.11140E+00-4.15042E-01 2.16616E-04 1.62167E+00-9.55886E-02 1.11491E-02 5.40778E-01 1.00995E-01 4.64747E+00-2.60794E+01-4.53968E+01



 n o d a l   p r i n t   o u t   f o r   t i m e  s t e p    9201                              ( at time 4.5995397E+00 )

 nodal point  x-rot      y-rot       z-rot       x-rot vel   y-rot vel   z-rot vel   x-rot acc   y-rot acc   z-rot acc
    22626 -1.23439E-02-2.84377E-05-1.01458E-04-8.76164E-03 3.68888E-05 3.16008E-05-1.34500E-03 8.41984E-05 2.17281E-05



 n o d a l   p r i n t   o u t   f o r   t i m e  s t e p    9401                              ( at time 4.6995297E+00 )

 nodal point  x-disp     y-disp      z-disp      x-vel       y-vel       z-vel      x-accl      y-accl      z-accl      x-coor      y-coor      z-coor
    22626 -1.18734E-02 2.27618E+00-4.24048E-01 1.24715E-03 1.67369E+00-8.35295E-02 1.03064E-02 5.20274E-01 1.20603E-01 4.64750E+00-2.59147E+01-4.54058E+01



 n o d a l   p r i n t   o u t   f o r   t i m e  s t e p    9401                              ( at time 4.6995297E+00 )

 nodal point  x-rot      y-rot       z-rot       x-rot vel   y-rot vel   z-rot vel   x-rot acc   y-rot acc   z-rot acc
    22626 -1.32268E-02-2.38869E-05-9.83117E-05-8.90636E-03 4.93519E-05 4.11542E-05-1.44738E-03 1.24643E-04 9.55437E-05



 n o d a l   p r i n t   o u t   f o r   t i m e  s t e p    9601                              ( at time 4.7995197E+00 )

 nodal point  x-disp     y-disp      z-disp      x-vel       y-vel       z-vel      x-accl      y-accl      z-accl      x-coor      y-coor      z-coor
    22626 -1.17118E-02 2.44602E+00-4.31594E-01 9.86565E-04 1.72361E+00-6.70826E-02-2.60613E-03 4.99292E-01 1.64486E-01 4.64766E+00-2.57448E+01-4.54133E+01



 n o d a l   p r i n t   o u t   f o r   t i m e  s t e p    9601                              ( at time 4.7995197E+00 )

 nodal point  x-rot      y-rot       z-rot       x-rot vel   y-rot vel   z-rot vel   x-rot acc   y-rot acc   z-rot acc
    22626 -1.41226E-02-1.90543E-05-9.36578E-05-9.01986E-03 5.27182E-05 4.77536E-05-1.13510E-03 3.36669E-05 6.60011E-05



 n o d a l   p r i n t   o u t   f o r   t i m e  s t e p    9801                              ( at time 4.8995097E+00 )

 nodal point  x-disp     y-disp      z-disp      x-vel       y-vel       z-vel      x-accl      y-accl      z-accl      x-coor      y-coor      z-coor
    22626 -1.15879E-02 2.62075E+00-4.37510E-01 1.39962E-03 1.77121E+00-5.12394E-02 4.13101E-03 4.76040E-01 1.58448E-01 4.64779E+00-2.55701E+01-4.54192E+01



 n o d a l   p r i n t   o u t   f o r   t i m e  s t e p    9801                              ( at time 4.8995097E+00 )

 nodal point  x-rot      y-rot       z-rot       x-rot vel   y-rot vel   z-rot vel   x-rot acc   y-rot acc   z-rot acc
    22626 -1.50284E-02-1.41339E-05-8.99878E-05-9.10034E-03 5.88258E-05 3.49562E-05-8.04847E-04 6.10819E-05-1.27987E-04



 n o d a l   p r i n t   o u t   f o r   t i m e  s t e p   10001                              ( at time 4.9994997E+00 )

 nodal point  x-disp     y-disp      z-disp      x-vel       y-vel       z-vel      x-accl      y-accl      z-accl      x-coor      y-coor      z-coor
    22626 -1.13654E-02 2.80012E+00-4.41824E-01 2.55034E-03 1.81593E+00-3.45178E-02 1.15083E-02 4.47248E-01 1.67232E-01 4.64801E+00-2.53907E+01-4.54235E+01



 n o d a l   p r i n t   o u t   f o r   t i m e  s t e p   10001                              ( at time 4.9994997E+00 )

 nodal point  x-rot      y-rot       z-rot       x-rot vel   y-rot vel   z-rot vel   x-rot acc   y-rot acc   z-rot acc
    22626 -1.59420E-02-8.14424E-06-8.46605E-05-9.16773E-03 7.30949E-05 4.92411E-05-6.73970E-04 1.42705E-04 1.42863E-04



 n o d a l   p r i n t   o u t   f o r   t i m e  s t e p   10202                              ( at time 5.0999896E+00 )

 nodal point  x-disp     y-disp      z-disp      x-vel       y-vel       z-vel      x-accl      y-accl      z-accl      x-coor      y-coor      z-coor
    22626 -1.10929E-02 2.98479E+00-4.44299E-01 2.15138E-03 1.85892E+00-1.44516E-02-3.97017E-03 4.27787E-01 1.99684E-01 4.64828E+00-2.52060E+01-4.54260E+01



 n o d a l   p r i n t   o u t   f o r   t i m e  s t e p   10202                              ( at time 5.0999896E+00 )

 nodal point  x-rot      y-rot       z-rot       x-rot vel   y-rot vel   z-rot vel   x-rot acc   y-rot acc   z-rot acc
    22626 -1.68654E-02-1.29865E-06-7.94761E-05-9.19706E-03 5.70665E-05 4.54373E-05-2.91928E-04-1.59503E-04-3.78534E-05



 n o d a l   p r i n t   o u t   f o r   t i m e  s t e p   10402                              ( at time 5.1999796E+00 )

 nodal point  x-disp     y-disp      z-disp      x-vel       y-vel       z-vel      x-accl      y-accl      z-accl      x-coor      y-coor      z-coor
    22626 -1.08004E-02 3.17271E+00-4.44614E-01 3.23955E-03 1.89859E+00 8.93626E-03 1.08828E-02 3.96730E-01 2.33901E-01 4.64857E+00-2.50181E+01-4.54263E+01



 n o d a l   p r i n t   o u t   f o r   t i m e  s t e p   10402                              ( at time 5.1999796E+00 )

 nodal point  x-rot      y-rot       z-rot       x-rot vel   y-rot vel   z-rot vel   x-rot acc   y-rot acc   z-rot acc
    22626 -1.77865E-02 4.46205E-06-7.50711E-05-9.21892E-03 7.44829E-05 5.35001E-05-2.18612E-04 1.74181E-04 8.06361E-05



 n o d a l   p r i n t   o u t   f o r   t i m e  s t e p   10602                              ( at time 5.2999696E+00 )

 nodal point  x-disp     y-disp      z-disp      x-vel       y-vel       z-vel      x-accl      y-accl      z-accl      x-coor      y-coor      z-coor
    22626 -1.04995E-02 3.36429E+00-4.42562E-01 3.41698E-03 1.93329E+00 3.06064E-02 1.77446E-03 3.47014E-01 2.16723E-01 4.64888E+00-2.48265E+01-4.54243E+01



 n o d a l   p r i n t   o u t   f o r   t i m e  s t e p   10602                              ( at time 5.2999696E+00 )

 nodal point  x-rot      y-rot       z-rot       x-rot vel   y-rot vel   z-rot vel   x-rot acc   y-rot acc   z-rot acc
    22626 -1.87085E-02 1.13966E-05-7.06097E-05-9.20886E-03 6.97862E-05 3.22443E-05 1.00621E-04-4.69715E-05-2.12580E-04



 n o d a l   p r i n t   o u t   f o r   t i m e  s t e p   10802                              ( at time 5.3999596E+00 )

 nodal point  x-disp     y-disp      z-disp      x-vel       y-vel       z-vel      x-accl      y-accl      z-accl      x-coor      y-coor      z-coor
    22626 -1.01209E-02 3.55948E+00-4.38255E-01 2.47936E-03 1.96795E+00 5.62217E-02-9.37716E-03 3.46673E-01 2.56179E-01 4.64925E+00-2.46313E+01-4.54200E+01



 n o d a l   p r i n t   o u t   f o r   t i m e  s t e p   10802                              ( at time 5.3999596E+00 )

 nodal point  x-rot      y-rot       z-rot       x-rot vel   y-rot vel   z-rot vel   x-rot acc   y-rot acc   z-rot acc
    22626 -1.96287E-02 1.83362E-05-6.73554E-05-9.18718E-03 6.41407E-05 4.10014E-05 2.16824E-04-5.64605E-05 8.75800E-05



 n o d a l   p r i n t   o u t   f o r   t i m e  s t e p   11002                              ( at time 5.4999496E+00 )

 nodal point  x-disp     y-disp      z-disp      x-vel       y-vel       z-vel      x-accl      y-accl      z-accl      x-coor      y-coor      z-coor
    22626 -9.73220E-03 3.75763E+00-4.31096E-01 4.27350E-03 1.99386E+00 8.75734E-02 1.79433E-02 2.59117E-01 3.13548E-01 4.64964E+00-2.44332E+01-4.54128E+01



 n o d a l   p r i n t   o u t   f o r   t i m e  s t e p   11002                              ( at time 5.4999496E+00 )

 nodal point  x-rot      y-rot       z-rot       x-rot vel   y-rot vel   z-rot vel   x-rot acc   y-rot acc   z-rot acc
    22626 -2.05447E-02 2.58827E-05-6.34025E-05-9.12249E-03 6.80306E-05 1.62226E-05 6.46943E-04 3.89026E-05-2.47813E-04



 n o d a l   p r i n t   o u t   f o r   t i m e  s t e p   11202                              ( at time 5.5999396E+00 )

 nodal point  x-disp     y-disp      z-disp      x-vel       y-vel       z-vel      x-accl      y-accl      z-accl      x-coor      y-coor      z-coor
    22626 -9.36302E-03 3.95834E+00-4.20937E-01 3.85348E-03 2.02125E+00 1.16502E-01-4.20068E-03 2.73955E-01 2.89320E-01 4.65001E+00-2.42325E+01-4.54027E+01



 n o d a l   p r i n t   o u t   f o r   t i m e  s t e p   11202                              ( at time 5.5999396E+00 )

 nodal point  x-rot      y-rot       z-rot       x-rot vel   y-rot vel   z-rot vel   x-rot acc   y-rot acc   z-rot acc
    22626 -2.14538E-02 3.16402E-05-6.25839E-05-9.08838E-03 6.68985E-05 1.90656E-06 3.41187E-04-1.13217E-05-1.43175E-04



 n o d a l   p r i n t   o u t   f o r   t i m e  s t e p   11402                              ( at time 5.6999296E+00 )

 nodal point  x-disp     y-disp      z-disp      x-vel       y-vel       z-vel      x-accl      y-accl      z-accl      x-coor      y-coor      z-coor
    22626 -8.99882E-03 4.16126E+00-4.07384E-01 3.61486E-03 2.03746E+00 1.54280E-01-2.38639E-03 1.62050E-01 3.77809E-01 4.65038E+00-2.40296E+01-4.53891E+01



 n o d a l   p r i n t   o u t   f o r   t i m e  s t e p   11402                              ( at time 5.6999296E+00 )

 nodal point  x-rot      y-rot       z-rot       x-rot vel   y-rot vel   z-rot vel   x-rot acc   y-rot acc   z-rot acc
    22626 -2.23558E-02 3.86569E-05-6.18632E-05-8.99747E-03 7.08596E-05 7.67576E-06 9.09124E-04 3.96150E-05 5.76976E-05



 n o d a l   p r i n t   o u t   f o r   t i m e  s t e p   11602                              ( at time 5.7999195E+00 )

 nodal point  x-disp     y-disp      z-disp      x-vel       y-vel       z-vel      x-accl      y-accl      z-accl      x-coor      y-coor      z-coor
    22626 -8.51049E-03 4.36589E+00-3.90232E-01 5.58675E-03 2.05724E+00 1.88202E-01 1.97209E-02 1.97855E-01 3.39260E-01 4.65086E+00-2.38249E+01-4.53720E+01



 n o d a l   p r i n t   o u t   f o r   t i m e  s t e p   11602                              ( at time 5.7999195E+00 )

 nodal point  x-rot      y-rot       z-rot       x-rot vel   y-rot vel   z-rot vel   x-rot acc   y-rot acc   z-rot acc
    22626 -2.32461E-02 4.62573E-05-6.27455E-05-8.87961E-03 5.73478E-05-3.34937E-05 1.17873E-03-1.35132E-04-4.11736E-04



 n o d a l   p r i n t   o u t   f o r   t i m e  s t e p   11802                              ( at time 5.8999095E+00 )

 nodal point  x-disp     y-disp      z-disp      x-vel       y-vel       z-vel      x-accl      y-accl      z-accl      x-coor      y-coor      z-coor
    22626 -8.12456E-03 4.57200E+00-3.69386E-01 3.51574E-03 2.06458E+00 2.30516E-01-2.07122E-02 7.34523E-02 4.23185E-01 4.65125E+00-2.36188E+01-4.53511E+01



 n o d a l   p r i n t   o u t   f o r   t i m e  s t e p   11802                              ( at time 5.8999095E+00 )

 nodal point  x-rot      y-rot       z-rot       x-rot vel   y-rot vel   z-rot vel   x-rot acc   y-rot acc   z-rot acc
    22626 -2.41266E-02 5.15440E-05-6.45005E-05-8.78236E-03 3.12891E-05-3.64670E-05 9.72641E-04-2.60613E-04-2.97361E-05



 n o d a l   p r i n t   o u t   f o r   t i m e  s t e p   12002                              ( at time 5.9998995E+00 )

 nodal point  x-disp     y-disp      z-disp      x-vel       y-vel       z-vel      x-accl      y-accl      z-accl      x-coor      y-coor      z-coor
    22626 -7.72911E-03 4.77901E+00-3.44469E-01 4.39217E-03 2.07656E+00 2.69372E-01 8.76526E-03 1.19729E-01 3.88590E-01 4.65165E+00-2.34118E+01-4.53262E+01



 n o d a l   p r i n t   o u t   f o r   t i m e  s t e p   12002                              ( at time 5.9998995E+00 )

 nodal point  x-rot      y-rot       z-rot       x-rot vel   y-rot vel   z-rot vel   x-rot acc   y-rot acc   z-rot acc
    22626 -2.49940E-02 5.69862E-05-6.95999E-05-8.61255E-03 4.89617E-05-6.05295E-05 1.69825E-03 1.76744E-04-2.40650E-04



 n o d a l   p r i n t   o u t   f o r   t i m e  s t e p   12202                              ( at time 6.0998895E+00 )

 nodal point  x-disp     y-disp      z-disp      x-vel       y-vel       z-vel      x-accl      y-accl      z-accl      x-coor      y-coor      z-coor
    22626 -7.27542E-03 4.98669E+00-3.15259E-01 6.08915E-03 2.07916E+00 3.17695E-01 1.69714E-02 2.60187E-02 4.83278E-01 4.65210E+00-2.32041E+01-4.52970E+01



 n o d a l   p r i n t   o u t   f o r   t i m e  s t e p   12202                              ( at time 6.0998895E+00 )

 nodal point  x-rot      y-rot       z-rot       x-rot vel   y-rot vel   z-rot vel   x-rot acc   y-rot acc   z-rot acc
    22626 -2.58471E-02 6.32246E-05-7.46369E-05-8.47059E-03 6.29773E-05-5.20152E-05 1.41972E-03 1.40169E-04 8.51519E-05



 n o d a l   p r i n t   o u t   f o r   t i m e  s t e p   12402                              ( at time 6.1998795E+00 )

 nodal point  x-disp     y-disp      z-disp      x-vel       y-vel       z-vel      x-accl      y-accl      z-accl      x-coor      y-coor      z-coor
    22626 -6.82168E-03 5.19485E+00-2.81495E-01 4.78537E-03 2.08108E+00 3.59691E-01-1.30391E-02 1.91732E-02 4.20000E-01 4.65255E+00-2.29960E+01-4.52632E+01



 n o d a l   p r i n t   o u t   f o r   t i m e  s t e p   12402                              ( at time 6.1998795E+00 )

 nodal point  x-rot      y-rot       z-rot       x-rot vel   y-rot vel   z-rot vel   x-rot acc   y-rot acc   z-rot acc
    22626 -2.66885E-02 6.86906E-05-8.05421E-05-8.37009E-03 3.12962E-05-7.27485E-05 1.00509E-03-3.16843E-04-2.07354E-04



 n o d a l   p r i n t   o u t   f o r   t i m e  s t e p   12602                              ( at time 6.2998695E+00 )

 nodal point  x-disp     y-disp      z-disp      x-vel       y-vel       z-vel      x-accl      y-accl      z-accl      x-coor      y-coor      z-coor
    22626 -6.43449E-03 5.40277E+00-2.43002E-01 4.42267E-03 2.08244E+00 4.10208E-01-3.62736E-03 1.36437E-02 5.05225E-01 4.65294E+00-2.27881E+01-4.52247E+01



 n o d a l   p r i n t   o u t   f o r   t i m e  s t e p   12602                              ( at time 6.2998695E+00 )

 nodal point  x-rot      y-rot       z-rot       x-rot vel   y-rot vel   z-rot vel   x-rot acc   y-rot acc   z-rot acc
    22626 -2.75145E-02 7.19239E-05-8.98410E-05-8.24965E-03 2.90691E-05-7.91062E-05 1.20459E-03-2.22735E-05-6.35840E-05



 n o d a l   p r i n t   o u t   f o r   t i m e  s t e p   12802                              ( at time 6.3998595E+00 )

 nodal point  x-disp     y-disp      z-disp      x-vel       y-vel       z-vel      x-accl      y-accl      z-accl      x-coor      y-coor      z-coor
    22626 -6.04636E-03 5.61077E+00-1.99466E-01 5.26147E-03 2.07561E+00 4.60329E-01 8.38887E-03-6.83281E-02 5.01266E-01 4.65333E+00-2.25801E+01-4.51812E+01



 n o d a l   p r i n t   o u t   f o r   t i m e  s t e p   12802                              ( at time 6.3998595E+00 )

 nodal point  x-rot      y-rot       z-rot       x-rot vel   y-rot vel   z-rot vel   x-rot acc   y-rot acc   z-rot acc
    22626 -2.83262E-02 7.77970E-05-9.90077E-05-8.08843E-03 5.99963E-05-1.10417E-04 1.61229E-03 3.09304E-04-3.13140E-04



 n o d a l   p r i n t   o u t   f o r   t i m e  s t e p   13002                              ( at time 6.4998495E+00 )

 nodal point  x-disp     y-disp      z-disp      x-vel       y-vel       z-vel      x-accl      y-accl      z-accl      x-coor      y-coor      z-coor
    22626 -5.57776E-03 5.81800E+00-1.50684E-01 3.67994E-03 2.07265E+00 5.14871E-01-1.58169E-02-2.95621E-02 5.45469E-01 4.65380E+00-2.23728E+01-4.51324E+01



 n o d a l   p r i n t   o u t   f o r   t i m e  s t e p   13002                              ( at time 6.4998495E+00 )

 nodal point  x-rot      y-rot       z-rot       x-rot vel   y-rot vel   z-rot vel   x-rot acc   y-rot acc   z-rot acc
    22626 -2.91238E-02 8.18040E-05-1.10430E-04-7.95498E-03 2.63014E-05-1.16447E-04 1.33461E-03-3.36983E-04-6.03076E-05



 n o d a l   p r i n t   o u t   f o r   t i m e  s t e p   13202                              ( at time 6.5998395E+00 )

 nodal point  x-disp     y-disp      z-disp      x-vel       y-vel       z-vel      x-accl      y-accl      z-accl      x-coor      y-coor      z-coor
    22626 -5.19937E-03 6.02469E+00-9.64185E-02 3.05197E-03 2.06086E+00 5.70648E-01-6.28022E-03-1.17931E-01 5.57823E-01 4.65418E+00-2.21661E+01-4.50781E+01



 n o d a l   p r i n t   o u t   f o r   t i m e  s t e p   13202                              ( at time 6.5998395E+00 )

 nodal point  x-rot      y-rot       z-rot       x-rot vel   y-rot vel   z-rot vel   x-rot acc   y-rot acc   z-rot acc
    22626 -2.99092E-02 8.48565E-05-1.22937E-04-7.79087E-03 4.23223E-05-1.32980E-04 1.64132E-03 1.60225E-04-1.65339E-04



 n o d a l   p r i n t   o u t   f o r   t i m e  s t e p   13402                              ( at time 6.6998295E+00 )

 nodal point  x-disp     y-disp      z-disp      x-vel       y-vel       z-vel      x-accl      y-accl      z-accl      x-coor      y-coor      z-coor
    22626 -4.84380E-03 6.23044E+00-3.67195E-02 4.07429E-03 2.05638E+00 6.24600E-01 1.02242E-02-4.47628E-02 5.39576E-01 4.65453E+00-2.19604E+01-4.50184E+01



 n o d a l   p r i n t   o u t   f o r   t i m e  s t e p   13402                              ( at time 6.6998295E+00 )

 nodal point  x-rot      y-rot       z-rot       x-rot vel   y-rot vel   z-rot vel   x-rot acc   y-rot acc   z-rot acc
    22626 -3.06799E-02 8.83898E-05-1.36817E-04-7.67478E-03 4.86384E-05-1.57447E-04 1.16102E-03 6.31672E-05-2.44697E-04



 n o d a l   p r i n t   o u t   f o r   t i m e  s t e p   13602                              ( at time 6.7998195E+00 )

 nodal point  x-disp     y-disp      z-disp      x-vel       y-vel       z-vel      x-accl      y-accl      z-accl      x-coor      y-coor      z-coor
    22626 -4.42205E-03 6.43531E+00 2.85368E-02 2.77544E-03 2.04305E+00 6.82414E-01-1.29898E-02-1.33397E-01 5.78196E-01 4.65495E+00-2.17555E+01-4.49532E+01



 n o d a l   p r i n t   o u t   f o r   t i m e  s t e p   13602                              ( at time 6.7998195E+00 )

 nodal point  x-rot      y-rot       z-rot       x-rot vel   y-rot vel   z-rot vel   x-rot acc   y-rot acc   z-rot acc
    22626 -3.14378E-02 9.22003E-05-1.51481E-04-7.53697E-03 3.02594E-05-1.45761E-04 1.37821E-03-1.83809E-04 1.16865E-04



 n o d a l   p r i n t   o u t   f o r   t i m e  s t e p   13802                              ( at time 6.8998095E+00 )

 nodal point  x-disp     y-disp      z-disp      x-vel       y-vel       z-vel      x-accl      y-accl      z-accl      x-coor      y-coor      z-coor
    22626 -4.09132E-03 6.63924E+00 9.96004E-02 2.39980E-03 2.03571E+00 7.38233E-01-3.75681E-03-7.33736E-02 5.58247E-01 4.65528E+00-2.15516E+01-4.48821E+01



 n o d a l   p r i n t   o u t   f o r   t i m e  s t e p   13802                              ( at time 6.8998095E+00 )

 nodal point  x-rot      y-rot       z-rot       x-rot vel   y-rot vel   z-rot vel   x-rot acc   y-rot acc   z-rot acc
    22626 -3.21814E-02 9.47719E-05-1.68448E-04-7.38377E-03 1.37874E-05-1.86414E-04 1.53216E-03-1.64737E-04-4.06570E-04



 n o d a l   p r i n t   o u t   f o r   t i m e  s t e p   14002                              ( at time 6.9997995E+00 )

 nodal point  x-disp     y-disp      z-disp      x-vel       y-vel       z-vel      x-accl      y-accl      z-accl      x-coor      y-coor      z-coor
    22626 -3.88231E-03 6.84208E+00 1.76337E-01 2.05079E-03 2.02289E+00 7.97626E-01-3.49046E-03-1.28218E-01 5.93990E-01 4.65549E+00-2.13487E+01-4.48054E+01



 n o d a l   p r i n t   o u t   f o r   t i m e  s t e p   14002                              ( at time 6.9997995E+00 )

 nodal point  x-rot      y-rot       z-rot       x-rot vel   y-rot vel   z-rot vel   x-rot acc   y-rot acc   z-rot acc
    22626 -3.29105E-02 9.48131E-05-1.87443E-04-7.24268E-03 1.50557E-05-1.96541E-04 1.41109E-03 1.26841E-05-1.01273E-04



 n o d a l   p r i n t   o u t   f o r   t i m e  s t e p   14202                              ( at time 7.0997895E+00 )

 nodal point  x-disp     y-disp      z-disp      x-vel       y-vel       z-vel      x-accl      y-accl      z-accl      x-coor      y-coor      z-coor
    22626 -3.62147E-03 7.04409E+00 2.58824E-01 2.60431E-03 2.01650E+00 8.51567E-01 5.53570E-03-6.38928E-02 5.39466E-01 4.65575E+00-2.11467E+01-4.47229E+01



 n o d a l   p r i n t   o u t   f o r   t i m e  s t e p   14202                              ( at time 7.0997895E+00 )

 nodal point  x-rot      y-rot       z-rot       x-rot vel   y-rot vel   z-rot vel   x-rot acc   y-rot acc   z-rot acc
    22626 -3.36257E-02 9.81102E-05-2.06444E-04-7.13484E-03 1.83798E-05-1.93988E-04 1.07844E-03 3.32448E-05 2.55341E-05



 n o d a l   p r i n t   o u t   f o r   t i m e  s t e p   14402                              ( at time 7.1997794E+00 )

 nodal point  x-disp     y-disp      z-disp      x-vel       y-vel       z-vel      x-accl      y-accl      z-accl      x-coor      y-coor      z-coor
    22626 -3.36983E-03 7.24481E+00 3.47041E-01 2.54336E-03 2.00086E+00 9.12997E-01-6.09566E-04-1.56399E-01 6.14357E-01 4.65601E+00-2.09460E+01-4.46347E+01



 n o d a l   p r i n t   o u t   f o r   t i m e  s t e p   14402                              ( at time 7.1997794E+00 )

 nodal point  x-rot      y-rot       z-rot       x-rot vel   y-rot vel   z-rot vel   x-rot acc   y-rot acc   z-rot acc
    22626 -3.43267E-02 9.88379E-05-2.26706E-04-6.97311E-03-2.57531E-06-2.02795E-04 1.61747E-03-2.09572E-04-8.80797E-05



 n o d a l   p r i n t   o u t   f o r   t i m e  s t e p   14602                              ( at time 7.2997694E+00 )

 nodal point  x-disp     y-disp      z-disp      x-vel       y-vel       z-vel      x-accl      y-accl      z-accl      x-coor      y-coor      z-coor
    22626 -3.26130E-03 7.44466E+00 4.41202E-01 2.89871E-03 1.99158E+00 9.69530E-01 3.55386E-03-9.28412E-02 5.65386E-01 4.65611E+00-2.07462E+01-4.45405E+01



 n o d a l   p r i n t   o u t   f o r   t i m e  s t e p   14602                              ( at time 7.2997694E+00 )

 nodal point  x-rot      y-rot       z-rot       x-rot vel   y-rot vel   z-rot vel   x-rot acc   y-rot acc   z-rot acc
    22626 -3.50137E-02 9.92917E-05-2.47349E-04-6.85039E-03-8.01148E-08-2.06916E-04 1.22737E-03 2.49544E-05-4.12196E-05



 n o d a l   p r i n t   o u t   f o r   t i m e  s t e p   14802                              ( at time 7.3997594E+00 )

 nodal point  x-disp     y-disp      z-disp      x-vel       y-vel       z-vel      x-accl      y-accl      z-accl      x-coor      y-coor      z-coor
    22626 -3.03175E-03 7.64304E+00 5.41300E-01 2.36868E-03 1.98066E+00 1.03205E+00-5.30083E-03-1.09165E-01 6.25309E-01 4.65634E+00-2.05478E+01-4.44404E+01



 n o d a l   p r i n t   o u t   f o r   t i m e  s t e p   14802                              ( at time 7.3997594E+00 )

 nodal point  x-rot      y-rot       z-rot       x-rot vel   y-rot vel   z-rot vel   x-rot acc   y-rot acc   z-rot acc
    22626 -3.56871E-02 1.00042E-04-2.70078E-04-6.71482E-03 8.96151E-06-2.09000E-04 1.35584E-03 9.04254E-05-2.08420E-05



 n o d a l   p r i n t   o u t   f o r   t i m e  s t e p   15002                              ( at time 7.4997494E+00 )

 nodal point  x-disp     y-disp      z-disp      x-vel       y-vel       z-vel      x-accl      y-accl      z-accl      x-coor      y-coor      z-coor
    22626 -2.88124E-03 7.84036E+00 6.47364E-01 2.68529E-03 1.96732E+00 1.08940E+00 3.16647E-03-1.33395E-01 5.73507E-01 4.65649E+00-2.03505E+01-4.43344E+01



 n o d a l   p r i n t   o u t   f o r   t i m e  s t e p   15002                              ( at time 7.4997494E+00 )

 nodal point  x-rot      y-rot       z-rot       x-rot vel   y-rot vel   z-rot vel   x-rot acc   y-rot acc   z-rot acc
    22626 -3.63475E-02 1.01825E-04-2.91713E-04-6.56057E-03 7.91034E-06-2.36793E-04 1.54267E-03-1.05127E-05-2.77955E-04



 n o d a l   p r i n t   o u t   f o r   t i m e  s t e p   15202                              ( at time 7.5997394E+00 )

 nodal point  x-disp     y-disp      z-disp      x-vel       y-vel       z-vel      x-accl      y-accl      z-accl      x-coor      y-coor      z-coor
    22626 -2.67031E-03 8.03627E+00 7.59198E-01 1.58407E-03 1.95394E+00 1.15009E+00-1.10133E-02-1.33875E-01 6.06953E-01 4.65670E+00-2.01546E+01-4.42225E+01



 n o d a l   p r i n t   o u t   f o r   t i m e  s t e p   15202                              ( at time 7.5997394E+00 )

 nodal point  x-rot      y-rot       z-rot       x-rot vel   y-rot vel   z-rot vel   x-rot acc   y-rot acc   z-rot acc
    22626 -3.69946E-02 1.01826E-04-3.14715E-04-6.43909E-03-2.76932E-06-2.32695E-04 1.21487E-03-1.06807E-04 4.09825E-05



 n o d a l   p r i n t   o u t   f o r   t i m e  s t e p   15402                              ( at time 7.6997294E+00 )

 nodal point  x-disp     y-disp      z-disp      x-vel       y-vel       z-vel      x-accl      y-accl      z-accl      x-coor      y-coor      z-coor
    22626 -2.45715E-03 8.23079E+00 8.77055E-01 2.07206E-03 1.93749E+00 1.20672E+00 4.88040E-03-1.64496E-01 5.66370E-01 4.65692E+00-1.99600E+01-4.41047E+01



 n o d a l   p r i n t   o u t   f o r   t i m e  s t e p   15402                              ( at time 7.6997294E+00 )

 nodal point  x-rot      y-rot       z-rot       x-rot vel   y-rot vel   z-rot vel   x-rot acc   y-rot acc   z-rot acc
    22626 -3.76310E-02 1.02378E-04-3.37638E-04-6.34408E-03 8.66592E-06-2.23664E-04 9.50227E-04 1.14364E-04 9.03231E-05



 n o d a l   p r i n t   o u t   f o r   t i m e  s t e p   15602                              ( at time 7.7997194E+00 )

 nodal point  x-disp     y-disp      z-disp      x-vel       y-vel       z-vel      x-accl      y-accl      z-accl      x-coor      y-coor      z-coor
    22626 -2.13163E-03 8.42375E+00 1.00076E+00 4.44255E-03 1.92271E+00 1.26719E+00 2.37073E-02-1.47784E-01 6.04728E-01 4.65724E+00-1.97671E+01-4.39810E+01



 n o d a l   p r i n t   o u t   f o r   t i m e  s t e p   15602                              ( at time 7.7997194E+00 )

 nodal point  x-rot      y-rot       z-rot       x-rot vel   y-rot vel   z-rot vel   x-rot acc   y-rot acc   z-rot acc
    22626 -3.82555E-02 1.03278E-04-3.59724E-04-6.23053E-03 3.05947E-05-2.15775E-04 1.13563E-03 2.19310E-04 7.88904E-05



 n o d a l   p r i n t   o u t   f o r   t i m e  s t e p   15802                              ( at time 7.8997094E+00 )

 nodal point  x-disp     y-disp      z-disp      x-vel       y-vel       z-vel      x-accl      y-accl      z-accl      x-coor      y-coor      z-coor
    22626 -1.76641E-03 8.61519E+00 1.13040E+00 3.24505E-03 1.90587E+00 1.32467E+00-1.19762E-02-1.68422E-01 5.74917E-01 4.65761E+00-1.95756E+01-4.38513E+01



 n o d a l   p r i n t   o u t   f o r   t i m e  s t e p   15802                              ( at time 7.8997094E+00 )

 nodal point  x-rot      y-rot       z-rot       x-rot vel   y-rot vel   z-rot vel   x-rot acc   y-rot acc   z-rot acc
    22626 -3.88701E-02 1.05836E-04-3.79946E-04-6.11712E-03 2.05069E-05-1.98282E-04 1.13423E-03-1.00888E-04 1.74953E-04



 n o d a l   p r i n t   o u t   f o r   t i m e  s t e p   16002                              ( at time 7.9996994E+00 )

 nodal point  x-disp     y-disp      z-disp      x-vel       y-vel       z-vel      x-accl      y-accl      z-accl      x-coor      y-coor      z-coor
    22626 -1.31831E-03 8.80493E+00 1.26579E+00 3.81684E-03 1.88964E+00 1.38386E+00 5.71843E-03-1.62387E-01 5.91967E-01 4.65806E+00-1.93859E+01-4.37159E+01



 n o d a l   p r i n t   o u t   f o r   t i m e  s t e p   16002                              ( at time 7.9996994E+00 )

 nodal point  x-rot      y-rot       z-rot       x-rot vel   y-rot vel   z-rot vel   x-rot acc   y-rot acc   z-rot acc
    22626 -3.94751E-02 1.07633E-04-4.00337E-04-6.01421E-03 2.09383E-05-1.87777E-04 1.02911E-03 4.31408E-06 1.05059E-04



 n o d a l   p r i n t   o u t   f o r   t i m e  s t e p   16202                              ( at time 8.0996894E+00 )

 nodal point  x-disp     y-disp      z-disp      x-vel       y-vel       z-vel      x-accl      y-accl      z-accl      x-coor      y-coor      z-coor
    22626 -7.24646E-04 8.99290E+00 1.40699E+00 7.48908E-03 1.87264E+00 1.44040E+00 3.67262E-02-1.70022E-01 5.65417E-01 4.65865E+00-1.91979E+01-4.35747E+01



 n o d a l   p r i n t   o u t   f o r   t i m e  s t e p   16202                              ( at time 8.0996894E+00 )

 nodal point  x-rot      y-rot       z-rot       x-rot vel   y-rot vel   z-rot vel   x-rot acc   y-rot acc   z-rot acc
    22626 -4.00724E-02 1.11408E-04-4.17419E-04-5.94386E-03 5.91984E-05-1.49374E-04 7.03662E-04 3.82639E-04 3.84073E-04



 n o d a l   p r i n t   o u t   f o r   t i m e  s t e p   16402                              ( at time 8.1996794E+00 )

 nodal point  x-disp     y-disp      z-disp      x-vel       y-vel       z-vel      x-accl      y-accl      z-accl      x-coor      y-coor      z-coor
    22626  5.90595E-05 9.17927E+00 1.55394E+00 8.05637E-03 1.85402E+00 1.49901E+00 5.67340E-03-1.86147E-01 5.86170E-01 4.65943E+00-1.90116E+01-4.34278E+01



 n o d a l   p r i n t   o u t   f o r   t i m e  s t e p   16402                              ( at time 8.1996794E+00 )

 nodal point  x-rot      y-rot       z-rot       x-rot vel   y-rot vel   z-rot vel   x-rot acc   y-rot acc   z-rot acc
    22626 -4.06625E-02 1.17446E-04-4.30658E-04-5.84332E-03 7.15167E-05-1.28401E-04 1.00547E-03 1.23195E-04 2.09745E-04



 n o d a l   p r i n t   o u t   f o r   t i m e  s t e p   16602                              ( at time 8.2996694E+00 )

 nodal point  x-disp     y-disp      z-disp      x-vel       y-vel       z-vel      x-accl      y-accl      z-accl      x-coor      y-coor      z-coor
    22626  9.50565E-04 9.36392E+00 1.70649E+00 8.85955E-03 1.83915E+00 1.55149E+00 8.03267E-03-1.48757E-01 5.24889E-01 4.66033E+00-1.88269E+01-4.32752E+01



 n o d a l   p r i n t   o u t   f o r   t i m e  s t e p   16602                              ( at time 8.2996694E+00 )

 nodal point  x-rot      y-rot       z-rot       x-rot vel   y-rot vel   z-rot vel   x-rot acc   y-rot acc   z-rot acc
    22626 -4.12454E-02 1.23484E-04-4.44468E-04-5.81850E-03 6.24239E-05-1.08711E-04 2.48167E-04-9.09366E-05 1.96926E-04



 n o d a l   p r i n t   o u t   f o r   t i m e  s t e p   16802                              ( at time 8.3996594E+00 )

 nodal point  x-disp     y-disp      z-disp      x-vel       y-vel       z-vel      x-accl      y-accl      z-accl      x-coor      y-coor      z-coor
    22626  2.01951E-03 9.54698E+00 1.86438E+00 1.16713E-02 1.82168E+00 1.60612E+00 2.81204E-02-1.74666E-01 5.46358E-01 4.66139E+00-1.86438E+01-4.31173E+01



 n o d a l   p r i n t   o u t   f o r   t i m e  s t e p   16802                              ( at time 8.3996594E+00 )

 nodal point  x-rot      y-rot       z-rot       x-rot vel   y-rot vel   z-rot vel   x-rot acc   y-rot acc   z-rot acc
    22626 -4.18229E-02 1.30506E-04-4.53619E-04-5.74530E-03 8.73760E-05-8.16716E-05 7.32080E-04 2.49546E-04 2.70418E-04



 n o d a l   p r i n t   o u t   f o r   t i m e  s t e p   17002                              ( at time 8.4996494E+00 )

 nodal point  x-disp     y-disp      z-disp      x-vel       y-vel       z-vel      x-accl      y-accl      z-accl      x-coor      y-coor      z-coor
    22626  3.31750E-03 9.72851E+00 2.02757E+00 1.38320E-02 1.80911E+00 1.65776E+00 2.16096E-02-1.25718E-01 5.16444E-01 4.66269E+00-1.84623E+01-4.29542E+01



 n o d a l   p r i n t   o u t   f o r   t i m e  s t e p   17002                              ( at time 8.4996494E+00 )

 nodal point  x-rot      y-rot       z-rot       x-rot vel   y-rot vel   z-rot vel   x-rot acc   y-rot acc   z-rot acc
    22626 -4.23941E-02 1.40120E-04-4.60835E-04-5.69844E-03 1.05002E-04-5.49354E-05 4.68684E-04 1.76278E-04 2.67390E-04



 n o d a l   p r i n t   o u t   f o r   t i m e  s t e p   17202                              ( at time 8.5996394E+00 )

 nodal point  x-disp     y-disp      z-disp      x-vel       y-vel       z-vel      x-accl      y-accl      z-accl      x-coor      y-coor      z-coor
    22626  4.78096E-03 9.90872E+00 2.19583E+00 1.55913E-02 1.79513E+00 1.70801E+00 1.75947E-02-1.39849E-01 5.02468E-01 4.66416E+00-1.82821E+01-4.27859E+01



 n o d a l   p r i n t   o u t   f o r   t i m e  s t e p   17202                              ( at time 8.5996394E+00 )

 nodal point  x-rot      y-rot       z-rot       x-rot vel   y-rot vel   z-rot vel   x-rot acc   y-rot acc   z-rot acc
    22626 -4.29617E-02 1.49998E-04-4.65692E-04-5.67389E-03 1.03954E-04-2.96177E-05 2.45545E-04-1.04829E-05 2.53202E-04



 n o d a l   p r i n t   o u t   f o r   t i m e  s t e p   17402                              ( at time 8.6996293E+00 )

 nodal point  x-disp     y-disp      z-disp      x-vel       y-vel       z-vel      x-accl      y-accl      z-accl      x-coor      y-coor      z-coor
    22626  6.40866E-03 1.00877E+01 2.36905E+00 1.76532E-02 1.78530E+00 1.75532E+00 2.06203E-02-9.83197E-02 4.73181E-01 4.66578E+00-1.81031E+01-4.26127E+01



 n o d a l   p r i n t   o u t   f o r   t i m e  s t e p   17402                              ( at time 8.6996293E+00 )

 nodal point  x-rot      y-rot       z-rot       x-rot vel   y-rot vel   z-rot vel   x-rot acc   y-rot acc   z-rot acc
    22626 -4.35244E-02 1.60349E-04-4.68048E-04-5.61745E-03 1.14377E-04-8.46415E-06 5.64433E-04 1.04244E-04 2.11555E-04



 n o d a l   p r i n t   o u t   f o r   t i m e  s t e p   17602                              ( at time 8.7996193E+00 )

 nodal point  x-disp     y-disp      z-disp      x-vel       y-vel       z-vel      x-accl      y-accl      z-accl      x-coor      y-coor      z-coor
    22626  8.16436E-03 1.02655E+01 2.54687E+00 1.96887E-02 1.77402E+00 1.80217E+00 2.03575E-02-1.12780E-01 4.68607E-01 4.66754E+00-1.79253E+01-4.24348E+01



 n o d a l   p r i n t   o u t   f o r   t i m e  s t e p   17602                              ( at time 8.7996193E+00 )

 nodal point  x-rot      y-rot       z-rot       x-rot vel   y-rot vel   z-rot vel   x-rot acc   y-rot acc   z-rot acc
    22626 -4.40819E-02 1.72544E-04-4.67558E-04-5.56376E-03 1.29765E-04 1.56170E-05 5.36938E-04 1.53893E-04 2.40836E-04



 n o d a l   p r i n t   o u t   f o r   t i m e  s t e p   17802                              ( at time 8.8996093E+00 )

 nodal point  x-disp     y-disp      z-disp      x-vel       y-vel       z-vel      x-accl      y-accl      z-accl      x-coor      y-coor      z-coor
    22626  1.02022E-02 1.04425E+01 2.72926E+00 2.12682E-02 1.76583E+00 1.84603E+00 1.57961E-02-8.19217E-02 4.38549E-01 4.66958E+00-1.77484E+01-4.22525E+01



 n o d a l   p r i n t   o u t   f o r   t i m e  s t e p   17802                              ( at time 8.8996093E+00 )

 nodal point  x-rot      y-rot       z-rot       x-rot vel   y-rot vel   z-rot vel   x-rot acc   y-rot acc   z-rot acc
    22626 -4.46377E-02 1.87054E-04-4.64342E-04-5.55657E-03 1.36374E-04 4.89971E-05 7.19054E-05 6.60970E-05 3.33835E-04



 n o d a l   p r i n t   o u t   f o r   t i m e  s t e p   18002                              ( at time 8.9995993E+00 )

 nodal point  x-disp     y-disp      z-disp      x-vel       y-vel       z-vel      x-accl      y-accl      z-accl      x-coor      y-coor      z-coor
    22626  1.23738E-02 1.06185E+01 2.91586E+00 2.27142E-02 1.75695E+00 1.88758E+00 1.44621E-02-8.87686E-02 4.15569E-01 4.67175E+00-1.75723E+01-4.20659E+01



 n o d a l   p r i n t   o u t   f o r   t i m e  s t e p   18002                              ( at time 8.9995993E+00 )

 nodal point  x-rot      y-rot       z-rot       x-rot vel   y-rot vel   z-rot vel   x-rot acc   y-rot acc   z-rot acc
    22626 -4.51914E-02 2.01470E-04-4.58893E-04-5.51786E-03 1.28052E-04 7.15824E-05 3.87120E-04-8.32246E-05 2.25876E-04



 n o d a l   p r i n t   o u t   f o r   t i m e  s t e p   18202                              ( at time 9.0995893E+00 )

 nodal point  x-disp     y-disp      z-disp      x-vel       y-vel       z-vel      x-accl      y-accl      z-accl      x-coor      y-coor      z-coor
    22626  1.46962E-02 1.07939E+01 3.10656E+00 2.53321E-02 1.75090E+00 1.92715E+00 2.61814E-02-6.05978E-02 3.95796E-01 4.67407E+00-1.73969E+01-4.18752E+01



 n o d a l   p r i n t   o u t   f o r   t i m e  s t e p   18202                              ( at time 9.0995893E+00 )

 nodal point  x-rot      y-rot       z-rot       x-rot vel   y-rot vel   z-rot vel   x-rot acc   y-rot acc   z-rot acc
    22626 -4.57430E-02 2.16810E-04-4.50798E-04-5.50688E-03 1.68607E-04 1.04176E-04 1.09884E-04 4.05589E-04 3.25972E-04



 n o d a l   p r i n t   o u t   f o r   t i m e  s t e p   18402                              ( at time 9.1995793E+00 )

 nodal point  x-disp     y-disp      z-disp      x-vel       y-vel       z-vel      x-accl      y-accl      z-accl      x-coor      y-coor      z-coor
    22626  1.73187E-02 1.09686E+01 3.30110E+00 2.80087E-02 1.74491E+00 1.96446E+00 2.67689E-02-5.98980E-02 3.73091E-01 4.67669E+00-1.72222E+01-4.16806E+01



 n o d a l   p r i n t   o u t   f o r   t i m e  s t e p   18402                              ( at time 9.1995793E+00 )

 nodal point  x-rot      y-rot       z-rot       x-rot vel   y-rot vel   z-rot vel   x-rot acc   y-rot acc   z-rot acc
    22626 -4.62935E-02 2.34266E-04-4.39969E-04-5.50823E-03 1.72448E-04 1.17643E-04-1.35614E-05 3.84109E-05 1.34681E-04



 n o d a l   p r i n t   o u t   f o r   t i m e  s t e p   18602                              ( at time 9.2995693E+00 )

 nodal point  x-disp     y-disp      z-disp      x-vel       y-vel       z-vel      x-accl      y-accl      z-accl      x-coor      y-coor      z-coor
    22626  2.01195E-02 1.11428E+01 3.49935E+00 2.86433E-02 1.73919E+00 2.00003E+00 6.34662E-03-5.71189E-02 3.55710E-01 4.67949E+00-1.70480E+01-4.14824E+01



 n o d a l   p r i n t   o u t   f o r   t i m e  s t e p   18602                              ( at time 9.2995693E+00 )

 nodal point  x-rot      y-rot       z-rot       x-rot vel   y-rot vel   z-rot vel   x-rot acc   y-rot acc   z-rot acc
    22626 -4.68443E-02 2.51861E-04-4.27037E-04-5.51373E-03 1.75177E-04 1.34113E-04-5.49908E-05 2.72915E-05 1.64712E-04



 n o d a l   p r i n t   o u t   f o r   t i m e  s t e p   18802                              ( at time 9.3995593E+00 )

 nodal point  x-disp     y-disp      z-disp      x-vel       y-vel       z-vel      x-accl      y-accl      z-accl      x-coor      y-coor      z-coor
    22626  2.30902E-02 1.13167E+01 3.70094E+00 3.06263E-02 1.73615E+00 2.03289E+00 1.98313E-02-3.04897E-02 3.28712E-01 4.68247E+00-1.68742E+01-4.12808E+01



 n o d a l   p r i n t   o u t   f o r   t i m e  s t e p   18802                              ( at time 9.3995593E+00 )

 nodal point  x-rot      y-rot       z-rot       x-rot vel   y-rot vel   z-rot vel   x-rot acc   y-rot acc   z-rot acc
    22626 -4.73968E-02 2.69270E-04-4.12520E-04-5.52629E-03 1.75445E-04 1.58737E-04-1.25564E-04 2.68641E-06 2.46272E-04



 n o d a l   p r i n t   o u t   f o r   t i m e  s t e p   19002                              ( at time 9.4995493E+00 )

 nodal point  x-disp     y-disp      z-disp      x-vel       y-vel       z-vel      x-accl      y-accl      z-accl      x-coor      y-coor      z-coor
    22626  2.63232E-02 1.14900E+01 3.90586E+00 3.36605E-02 1.73309E+00 2.06413E+00 3.03454E-02-3.05469E-02 3.12372E-01 4.68570E+00-1.67008E+01-4.10759E+01



 n o d a l   p r i n t   o u t   f o r   t i m e  s t e p   19002                              ( at time 9.4995493E+00 )

 nodal point  x-rot      y-rot       z-rot       x-rot vel   y-rot vel   z-rot vel   x-rot acc   y-rot acc   z-rot acc
    22626 -4.79504E-02 2.88794E-04-3.95120E-04-5.54977E-03 2.05927E-04 1.85127E-04-2.34852E-04 3.04847E-04 2.63921E-04



 n o d a l   p r i n t   o u t   f o r   t i m e  s t e p   19202                              ( at time 9.5995393E+00 )

 nodal point  x-disp     y-disp      z-disp      x-vel       y-vel       z-vel      x-accl      y-accl      z-accl      x-coor      y-coor      z-coor
    22626  2.97532E-02 1.16632E+01 4.11374E+00 3.42119E-02 1.72882E+00 2.09422E+00 5.51449E-03-4.27035E-02 3.00990E-01 4.68913E+00-1.65276E+01-4.08680E+01



 n o d a l   p r i n t   o u t   f o r   t i m e  s t e p   19202                              ( at time 9.5995393E+00 )

 nodal point  x-rot      y-rot       z-rot       x-rot vel   y-rot vel   z-rot vel   x-rot acc   y-rot acc   z-rot acc
    22626 -4.85082E-02 3.09019E-04-3.75238E-04-5.58301E-03 2.07536E-04 2.04789E-04-3.32438E-04 1.60909E-05 1.96644E-04



 n o d a l   p r i n t   o u t   f o r   t i m e  s t e p   19402                              ( at time 9.6995293E+00 )

 nodal point  x-disp     y-disp      z-disp      x-vel       y-vel       z-vel      x-accl      y-accl      z-accl      x-coor      y-coor      z-coor
    22626  3.32824E-02 1.18360E+01 4.32453E+00 3.48917E-02 1.72826E+00 2.12132E+00 6.79886E-03-5.59744E-03 2.71009E-01 4.69266E+00-1.63548E+01-4.06572E+01



 n o d a l   p r i n t   o u t   f o r   t i m e  s t e p   19402                              ( at time 9.6995293E+00 )

 nodal point  x-rot      y-rot       z-rot       x-rot vel   y-rot vel   z-rot vel   x-rot acc   y-rot acc   z-rot acc
    22626 -4.90700E-02 3.29179E-04-3.54157E-04-5.63417E-03 2.18220E-04 2.26566E-04-5.11627E-04 1.06855E-04 2.17793E-04



 n o d a l   p r i n t   o u t   f o r   t i m e  s t e p   19602                              ( at time 9.7995193E+00 )

 nodal point  x-disp     y-disp      z-disp      x-vel       y-vel       z-vel      x-accl      y-accl      z-accl      x-coor      y-coor      z-coor
    22626  3.70245E-02 1.20088E+01 4.53782E+00 3.78206E-02 1.72609E+00 2.14597E+00 2.92916E-02-2.17627E-02 2.46538E-01 4.69640E+00-1.61821E+01-4.04439E+01



 n o d a l   p r i n t   o u t   f o r   t i m e  s t e p   19602                              ( at time 9.7995193E+00 )

 nodal point  x-rot      y-rot       z-rot       x-rot vel   y-rot vel   z-rot vel   x-rot acc   y-rot acc   z-rot acc
    22626 -4.96377E-02 3.51078E-04-3.30691E-04-5.69441E-03 2.33264E-04 2.47389E-04-6.02524E-04 1.50454E-04 2.08251E-04



 n o d a l   p r i n t   o u t   f o r   t i m e  s t e p   19802                              ( at time 9.8995093E+00 )

 nodal point  x-disp     y-disp      z-disp      x-vel       y-vel       z-vel      x-accl      y-accl      z-accl      x-coor      y-coor      z-coor
    22626  4.08945E-02 1.21813E+01 4.75370E+00 3.93402E-02 1.72609E+00 2.17142E+00 1.51983E-02 4.64963E-05 2.54509E-01 4.70027E+00-1.60095E+01-4.02280E+01



 n o d a l   p r i n t   o u t   f o r   t i m e  s t e p   19802                              ( at time 9.8995093E+00 )

 nodal point  x-rot      y-rot       z-rot       x-rot vel   y-rot vel   z-rot vel   x-rot acc   y-rot acc   z-rot acc
    22626 -5.02129E-02 3.73793E-04-3.05197E-04-5.78523E-03 2.25246E-04 2.67936E-04-9.08215E-04-8.01956E-05 2.05491E-04



 n o d a l   p r i n t   o u t   f o r   t i m e  s t e p   20003                              ( at time 9.9999992E+00 )

 nodal point  x-disp     y-disp      z-disp      x-vel       y-vel       z-vel      x-accl      y-accl      z-accl      x-coor      y-coor      z-coor
[...]
    22626 -2.93113E-01 1.53597E-03 2.97763E-03-2.50381E-02 1.50889E-04 2.69483E-04 1.72622E-03-1.31379E-04-8.60528E-05



 n o d a l   p r i n t   o u t   f o r   t i m e  s t e p   45205                              ( at time 2.2599738E+01 )

 nodal point  x-disp     y-disp      z-disp      x-vel       y-vel       z-vel      x-accl      y-accl      z-accl      x-coor      y-coor      z-coor
    22626  5.46745E-01 3.48575E+01 2.46467E+01 2.74944E-02 1.47615E+00 1.47622E+00 2.34493E-03-2.34768E-02 9.39837E-02 5.20612E+00 6.66665E+00-2.03350E+01



 n o d a l   p r i n t   o u t   f o r   t i m e  s t e p   45205                              ( at time 2.2599738E+01 )

 nodal point  x-rot      y-rot       z-rot       x-rot vel   y-rot vel   z-rot vel   x-rot acc   y-rot acc   z-rot acc
    22626 -2.95611E-01 1.55042E-03 3.00474E-03-2.49467E-02 1.48725E-04 2.71149E-04 9.14456E-04-2.16418E-05 1.66658E-05



 n o d a l   p r i n t   o u t   f o r   t i m e  s t e p   45405                              ( at time 2.2699728E+01 )

 nodal point  x-disp     y-disp      z-disp      x-vel       y-vel       z-vel      x-accl      y-accl      z-accl      x-coor      y-coor      z-coor
    22626  5.49424E-01 3.50050E+01 2.47946E+01 2.63706E-02 1.47504E+00 1.48126E+00-1.12398E-02-1.11032E-02 5.03727E-02 5.20880E+00 6.81417E+00-2.01871E+01



 n o d a l   p r i n t   o u t   f o r   t i m e  s t e p   45405                              ( at time 2.2699728E+01 )

 nodal point  x-rot      y-rot       z-rot       x-rot vel   y-rot vel   z-rot vel   x-rot acc   y-rot acc   z-rot acc
    22626 -2.98101E-01 1.56650E-03 3.03197E-03-2.48416E-02 1.62997E-04 2.69456E-04 1.05100E-03 1.42739E-04-1.69319E-05



 n o d a l   p r i n t   o u t   f o r   t i m e  s t e p   45605                              ( at time 2.2799718E+01 )

 nodal point  x-disp     y-disp      z-disp      x-vel       y-vel       z-vel      x-accl      y-accl      z-accl      x-coor      y-coor      z-coor
    22626  5.52154E-01 3.51524E+01 2.49428E+01 2.78623E-02 1.47303E+00 1.48337E+00 1.49184E-02-2.01542E-02 2.11067E-02 5.21153E+00 6.96153E+00-2.00389E+01



 n o d a l   p r i n t   o u t   f o r   t i m e  s t e p   45605                              ( at time 2.2799718E+01 )

 nodal point  x-rot      y-rot       z-rot       x-rot vel   y-rot vel   z-rot vel   x-rot acc   y-rot acc   z-rot acc
    22626 -3.00576E-01 1.58232E-03 3.05852E-03-2.46711E-02 1.59831E-04 2.70068E-04 1.70504E-03-3.16680E-05 6.11498E-06



 n o d a l   p r i n t   o u t   f o r   t i m e  s t e p   45805                              ( at time 2.2899708E+01 )

 nodal point  x-disp     y-disp      z-disp      x-vel       y-vel       z-vel      x-accl      y-accl      z-accl      x-coor      y-coor      z-coor
    22626  5.54900E-01 3.52995E+01 2.50915E+01 2.77809E-02 1.47093E+00 1.49083E+00-8.14029E-04-2.09629E-02 7.46309E-02 5.21428E+00 7.10868E+00-1.98903E+01



 n o d a l   p r i n t   o u t   f o r   t i m e  s t e p   45805                              ( at time 2.2899708E+01 )

 nodal point  x-rot      y-rot       z-rot       x-rot vel   y-rot vel   z-rot vel   x-rot acc   y-rot acc   z-rot acc
    22626 -3.03037E-01 1.59794E-03 3.08706E-03-2.45621E-02 1.60523E-04 2.84637E-04 1.08964E-03 6.92224E-06 1.45703E-04



 n o d a l   p r i n t   o u t   f o r   t i m e  s t e p   46005                              ( at time 2.2999698E+01 )

 nodal point  x-disp     y-disp      z-disp      x-vel       y-vel       z-vel      x-accl      y-accl      z-accl      x-coor      y-coor      z-coor
    22626  5.57665E-01 3.54467E+01 2.52409E+01 2.66444E-02 1.47143E+00 1.49612E+00-1.13660E-02 5.01559E-03 5.28730E-02 5.21704E+00 7.25583E+00-1.97408E+01



 n o d a l   p r i n t   o u t   f o r   t i m e  s t e p   46005                              ( at time 2.2999698E+01 )

 nodal point  x-rot      y-rot       z-rot       x-rot vel   y-rot vel   z-rot vel   x-rot acc   y-rot acc   z-rot acc
    22626 -3.05487E-01 1.61393E-03 3.11431E-03-2.44470E-02 1.58734E-04 2.72534E-04 1.15102E-03-1.78935E-05-1.21034E-04



 n o d a l   p r i n t   o u t   f o r   t i m e  s t e p   46205                              ( at time 2.3099688E+01 )

 nodal point  x-disp     y-disp      z-disp      x-vel       y-vel       z-vel      x-accl      y-accl      z-accl      x-coor      y-coor      z-coor
    22626  5.60426E-01 3.55938E+01 2.53905E+01 2.79241E-02 1.47051E+00 1.49561E+00 1.27986E-02-9.23378E-03-5.06338E-03 5.21980E+00 7.40295E+00-1.95913E+01



 n o d a l   p r i n t   o u t   f o r   t i m e  s t e p   46205                              ( at time 2.3099688E+01 )

 nodal point  x-rot      y-rot       z-rot       x-rot vel   y-rot vel   z-rot vel   x-rot acc   y-rot acc   z-rot acc
    22626 -3.07923E-01 1.63007E-03 3.14171E-03-2.42681E-02 1.61588E-04 2.82879E-04 1.78992E-03 2.85409E-05 1.03458E-04



 n o d a l   p r i n t   o u t   f o r   t i m e  s t e p   46405                              ( at time 2.3199678E+01 )

 nodal point  x-disp     y-disp      z-disp      x-vel       y-vel       z-vel      x-accl      y-accl      z-accl      x-coor      y-coor      z-coor
    22626  5.63153E-01 3.57408E+01 2.55401E+01 2.81489E-02 1.47158E+00 1.49851E+00 2.24851E-03 1.06499E-02 2.90003E-02 5.22253E+00 7.55002E+00-1.94416E+01



 n o d a l   p r i n t   o u t   f o r   t i m e  s t e p   46405                              ( at time 2.3199678E+01 )

 nodal point  x-rot      y-rot       z-rot       x-rot vel   y-rot vel   z-rot vel   x-rot acc   y-rot acc   z-rot acc
    22626 -3.10340E-01 1.64666E-03 3.17061E-03-2.40878E-02 1.68290E-04 2.76167E-04 1.80259E-03 6.70267E-05-6.71257E-05



 n o d a l   p r i n t   o u t   f o r   t i m e  s t e p   46605                              ( at time 2.3299668E+01 )

 nodal point  x-disp     y-disp      z-disp      x-vel       y-vel       z-vel      x-accl      y-accl      z-accl      x-coor      y-coor      z-coor
    22626  5.65928E-01 3.58881E+01 2.56902E+01 2.69047E-02 1.47395E+00 1.50257E+00-1.24433E-02 2.37360E-02 4.05976E-02 5.22530E+00 7.69728E+00-1.92916E+01



 n o d a l   p r i n t   o u t   f o r   t i m e  s t e p   46605                              ( at time 2.3299668E+01 )

 nodal point  x-rot      y-rot       z-rot       x-rot vel   y-rot vel   z-rot vel   x-rot acc   y-rot acc   z-rot acc
    22626 -3.12743E-01 1.66352E-03 3.19837E-03-2.39684E-02 1.70825E-04 2.86501E-04 1.19429E-03 2.53515E-05 1.03357E-04



 n o d a l   p r i n t   o u t   f o r   t i m e  s t e p   46805                              ( at time 2.3399658E+01 )

 nodal point  x-disp     y-disp      z-disp      x-vel       y-vel       z-vel      x-accl      y-accl      z-accl      x-coor      y-coor      z-coor
    22626  5.68664E-01 3.60356E+01 2.58406E+01 2.73898E-02 1.47471E+00 1.50554E+00 4.85133E-03 7.64917E-03 2.96358E-02 5.22804E+00 7.84473E+00-1.91412E+01



 n o d a l   p r i n t   o u t   f o r   t i m e  s t e p   46805                              ( at time 2.3399658E+01 )

 nodal point  x-rot      y-rot       z-rot       x-rot vel   y-rot vel   z-rot vel   x-rot acc   y-rot acc   z-rot acc
    22626 -3.15131E-01 1.68114E-03 3.22706E-03-2.37948E-02 1.71764E-04 2.88284E-04 1.73579E-03 9.39150E-06 1.78257E-05



 n o d a l   p r i n t   o u t   f o r   t i m e  s t e p   47005                              ( at time 2.3499648E+01 )

 nodal point  x-disp     y-disp      z-disp      x-vel       y-vel       z-vel      x-accl      y-accl      z-accl      x-coor      y-coor      z-coor
    22626  5.71375E-01 3.61832E+01 2.59912E+01 2.79398E-02 1.47775E+00 1.50673E+00 5.50063E-03 3.04023E-02 1.18922E-02 5.23075E+00 7.99232E+00-1.89905E+01



 n o d a l   p r i n t   o u t   f o r   t i m e  s t e p   47005                              ( at time 2.3499648E+01 )

 nodal point  x-rot      y-rot       z-rot       x-rot vel   y-rot vel   z-rot vel   x-rot acc   y-rot acc   z-rot acc
    22626 -3.17499E-01 1.69856E-03 3.25596E-03-2.36082E-02 1.76782E-04 2.74351E-04 1.86697E-03 5.01831E-05-1.39339E-04



 n o d a l   p r i n t   o u t   f o r   t i m e  s t e p   47205                              ( at time 2.3599638E+01 )

 nodal point  x-disp     y-disp      z-disp      x-vel       y-vel       z-vel      x-accl      y-accl      z-accl      x-coor      y-coor      z-coor
    22626  5.74089E-01 3.63311E+01 2.61420E+01 2.63524E-02 1.48200E+00 1.50964E+00-1.58757E-02 4.24206E-02 2.91833E-02 5.23346E+00 8.14023E+00-1.88398E+01



 n o d a l   p r i n t   o u t   f o r   t i m e  s t e p   47205                              ( at time 2.3599638E+01 )

 nodal point  x-rot      y-rot       z-rot       x-rot vel   y-rot vel   z-rot vel   x-rot acc   y-rot acc   z-rot acc
    22626 -3.19851E-01 1.71676E-03 3.28392E-03-2.34219E-02 1.80795E-04 2.90034E-04 1.86326E-03 4.01383E-05 1.56848E-04



 n o d a l   p r i n t   o u t   f o r   t i m e  s t e p   47405                              ( at time 2.3699628E+01 )

 nodal point  x-disp     y-disp      z-disp      x-vel       y-vel       z-vel      x-accl      y-accl      z-accl      x-coor      y-coor      z-coor
    22626  5.76773E-01 3.64794E+01 2.62929E+01 2.69068E-02 1.48654E+00 1.51002E+00 5.54426E-03 4.54634E-02 3.79836E-03 5.23615E+00 8.28862E+00-1.86888E+01



 n o d a l   p r i n t   o u t   f o r   t i m e  s t e p   47405                              ( at time 2.3699628E+01 )

 nodal point  x-rot      y-rot       z-rot       x-rot vel   y-rot vel   z-rot vel   x-rot acc   y-rot acc   z-rot acc
    22626 -3.22182E-01 1.73472E-03 3.31271E-03-2.32073E-02 1.82103E-04 2.93122E-04 2.14578E-03 1.30790E-05 3.08779E-05



 n o d a l   p r i n t   o u t   f o r   t i m e  s t e p   47605                              ( at time 2.3799618E+01 )

 nodal point  x-disp     y-disp      z-disp      x-vel       y-vel       z-vel      x-accl      y-accl      z-accl      x-coor      y-coor      z-coor
    22626  5.79506E-01 3.66283E+01 2.64439E+01 2.78532E-02 1.49115E+00 1.51000E+00 9.46477E-03 4.61248E-02-2.08639E-04 5.23888E+00 8.43749E+00-1.85378E+01



 n o d a l   p r i n t   o u t   f o r   t i m e  s t e p   47605                              ( at time 2.3799618E+01 )

 nodal point  x-rot      y-rot       z-rot       x-rot vel   y-rot vel   z-rot vel   x-rot acc   y-rot acc   z-rot acc
    22626 -3.24492E-01 1.75353E-03 3.34243E-03-2.30044E-02 1.95441E-04 2.96367E-04 2.02920E-03 1.33397E-04 3.24608E-05



 n o d a l   p r i n t   o u t   f o r   t i m e  s t e p   47805                              ( at time 2.3899608E+01 )

 nodal point  x-disp     y-disp      z-disp      x-vel       y-vel       z-vel      x-accl      y-accl      z-accl      x-coor      y-coor      z-coor
    22626  5.82275E-01 3.67778E+01 2.65949E+01 2.73676E-02 1.49840E+00 1.50862E+00-4.85666E-03 7.24954E-02-1.38319E-02 5.24165E+00 8.58700E+00-1.83868E+01



 n o d a l   p r i n t   o u t   f o r   t i m e  s t e p   47805                              ( at time 2.3899608E+01 )

 nodal point  x-rot      y-rot       z-rot       x-rot vel   y-rot vel   z-rot vel   x-rot acc   y-rot acc   z-rot acc
    22626 -3.26779E-01 1.77312E-03 3.37229E-03-2.27747E-02 1.92130E-04 3.00939E-04 2.29737E-03-3.31088E-05 4.57196E-05



 n o d a l   p r i n t   o u t   f o r   t i m e  s t e p   48005                              ( at time 2.3999598E+01 )

 nodal point  x-disp     y-disp      z-disp      x-vel       y-vel       z-vel      x-accl      y-accl      z-accl      x-coor      y-coor      z-coor
    22626  5.85007E-01 3.69279E+01 2.67457E+01 2.73327E-02 1.50264E+00 1.50603E+00-3.48819E-04 4.24313E-02-2.58904E-02 5.24438E+00 8.73707E+00-1.82361E+01



 n o d a l   p r i n t   o u t   f o r   t i m e  s t e p   48005                              ( at time 2.3999598E+01 )

 nodal point  x-rot      y-rot       z-rot       x-rot vel   y-rot vel   z-rot vel   x-rot acc   y-rot acc   z-rot acc
    22626 -3.29045E-01 1.79252E-03 3.40268E-03-2.25629E-02 2.00210E-04 3.07796E-04 2.11836E-03 8.08035E-05 6.85771E-05



 n o d a l   p r i n t   o u t   f o r   t i m e  s t e p   48205                              ( at time 2.4099588E+01 )

 nodal point  x-disp     y-disp      z-disp      x-vel       y-vel       z-vel      x-accl      y-accl      z-accl      x-coor      y-coor      z-coor
    22626  5.87728E-01 3.70784E+01 2.68962E+01 2.78242E-02 1.50781E+00 1.50610E+00 4.91515E-03 5.16295E-02 6.90285E-04 5.24710E+00 8.88757E+00-1.80855E+01



 n o d a l   p r i n t   o u t   f o r   t i m e  s t e p   48205                              ( at time 2.4099588E+01 )

 nodal point  x-rot      y-rot       z-rot       x-rot vel   y-rot vel   z-rot vel   x-rot acc   y-rot acc   z-rot acc
    22626 -3.31291E-01 1.81336E-03 3.43405E-03-2.23656E-02 2.15280E-04 3.25205E-04 1.97304E-03 1.50711E-04 1.74101E-04



 n o d a l   p r i n t   o u t   f o r   t i m e  s t e p   48405                              ( at time 2.4199578E+01 )

 nodal point  x-disp     y-disp      z-disp      x-vel       y-vel       z-vel      x-accl      y-accl      z-accl      x-coor      y-coor      z-coor
    22626  5.90558E-01 3.72295E+01 2.70469E+01 2.80966E-02 1.51477E+00 1.50815E+00 2.72507E-03 6.96438E-02 2.05075E-02 5.24993E+00 9.03866E+00-1.79349E+01



 n o d a l   p r i n t   o u t   f o r   t i m e  s t e p   48405                              ( at time 2.4199578E+01 )

 nodal point  x-rot      y-rot       z-rot       x-rot vel   y-rot vel   z-rot vel   x-rot acc   y-rot acc   z-rot acc
    22626 -3.33519E-01 1.83479E-03 3.46656E-03-2.22053E-02 2.14840E-04 3.25164E-04 1.60280E-03-4.39575E-06-4.02842E-07



 n o d a l   p r i n t   o u t   f o r   t i m e  s t e p   48605                              ( at time 2.4299568E+01 )

 nodal point  x-disp     y-disp      z-disp      x-vel       y-vel       z-vel      x-accl      y-accl      z-accl      x-coor      y-coor      z-coor
    22626  5.93230E-01 3.73812E+01 2.71976E+01 2.60683E-02 1.51884E+00 1.50572E+00-2.02853E-02 4.07006E-02-2.43472E-02 5.25260E+00 9.19034E+00-1.77841E+01



 n o d a l   p r i n t   o u t   f o r   t i m e  s t e p   48605                              ( at time 2.4299568E+01 )

 nodal point  x-rot      y-rot       z-rot       x-rot vel   y-rot vel   z-rot vel   x-rot acc   y-rot acc   z-rot acc
    22626 -3.35733E-01 1.85698E-03 3.49811E-03-2.20420E-02 2.24254E-04 3.09376E-04 1.63339E-03 9.41479E-05-1.57895E-04



 n o d a l   p r i n t   o u t   f o r   t i m e  s t e p   48805                              ( at time 2.4399558E+01 )

 nodal point  x-disp     y-disp      z-disp      x-vel       y-vel       z-vel      x-accl      y-accl      z-accl      x-coor      y-coor      z-coor
    22626  5.95896E-01 3.75334E+01 2.73478E+01 2.73985E-02 1.52570E+00 1.49893E+00 1.33030E-02 6.85802E-02-6.78279E-02 5.25527E+00 9.34256E+00-1.76339E+01



 n o d a l   p r i n t   o u t   f o r   t i m e  s t e p   48805                              ( at time 2.4399558E+01 )

 nodal point  x-rot      y-rot       z-rot       x-rot vel   y-rot vel   z-rot vel   x-rot acc   y-rot acc   z-rot acc
    22626 -3.37924E-01 1.87969E-03 3.53059E-03-2.18167E-02 2.24956E-04 3.33795E-04 2.25349E-03 7.02223E-06 2.44215E-04



 n o d a l   p r i n t   o u t   f o r   t i m e  s t e p   49006                              ( at time 2.4500048E+01 )

 nodal point  x-disp     y-disp      z-disp      x-vel       y-vel       z-vel      x-accl      y-accl      z-accl      x-coor      y-coor      z-coor
    22626  5.98686E-01 3.76870E+01 2.74984E+01 2.78035E-02 1.53303E+00 1.49608E+00 4.03089E-03 7.29216E-02-2.84260E-02 5.25806E+00 9.49620E+00-1.74833E+01



 n o d a l   p r i n t   o u t   f o r   t i m e  s t e p   49006                              ( at time 2.4500048E+01 )

 nodal point  x-rot      y-rot       z-rot       x-rot vel   y-rot vel   z-rot vel   x-rot acc   y-rot acc   z-rot acc
    22626 -3.40106E-01 1.90224E-03 3.56375E-03-2.16266E-02 2.26715E-04 3.30463E-04 1.89198E-03 1.75028E-05-3.31589E-05



 n o d a l   p r i n t   o u t   f o r   t i m e  s t e p   49206                              ( at time 2.4600038E+01 )

 nodal point  x-disp     y-disp      z-disp      x-vel       y-vel       z-vel      x-accl      y-accl      z-accl      x-coor      y-coor      z-coor
    22626  6.01421E-01 3.78406E+01 2.76477E+01 2.67555E-02 1.53982E+00 1.49051E+00-1.04808E-02 6.79722E-02-5.56651E-02 5.26080E+00 9.64975E+00-1.73340E+01



 n o d a l   p r i n t   o u t   f o r   t i m e  s t e p   49206                              ( at time 2.4600038E+01 )

 nodal point  x-rot      y-rot       z-rot       x-rot vel   y-rot vel   z-rot vel   x-rot acc   y-rot acc   z-rot acc
    22626 -3.42258E-01 1.92561E-03 3.59664E-03-2.14116E-02 2.44343E-04 3.22489E-04 2.15023E-03 1.76300E-04-7.97509E-05



 n o d a l   p r i n t   o u t   f o r   t i m e  s t e p   49406                              ( at time 2.4700028E+01 )

 nodal point  x-disp     y-disp      z-disp      x-vel       y-vel       z-vel      x-accl      y-accl      z-accl      x-coor      y-coor      z-coor
    22626  6.04027E-01 3.79948E+01 2.77964E+01 2.59520E-02 1.54620E+00 1.48534E+00-8.03625E-03 6.37638E-02-5.17378E-02 5.26340E+00 9.80396E+00-1.71853E+01



 n o d a l   p r i n t   o u t   f o r   t i m e  s t e p   49406                              ( at time 2.4700028E+01 )

 nodal point  x-rot      y-rot       z-rot       x-rot vel   y-rot vel   z-rot vel   x-rot acc   y-rot acc   z-rot acc
    22626 -3.44391E-01 1.95044E-03 3.62850E-03-2.12141E-02 2.41085E-04 3.06373E-04 1.97457E-03-3.25829E-05-1.61177E-04



 n o d a l   p r i n t   o u t   f o r   t i m e  s t e p   49606                              ( at time 2.4800018E+01 )

 nodal point  x-disp     y-disp      z-disp      x-vel       y-vel       z-vel      x-accl      y-accl      z-accl      x-coor      y-coor      z-coor
    22626  6.06573E-01 3.81497E+01 2.79444E+01 2.49767E-02 1.55166E+00 1.47512E+00-9.75376E-03 5.46350E-02-1.02141E-01 5.26595E+00 9.95888E+00-1.70373E+01



 n o d a l   p r i n t   o u t   f o r   t i m e  s t e p   49606                              ( at time 2.4800018E+01 )

 nodal point  x-rot      y-rot       z-rot       x-rot vel   y-rot vel   z-rot vel   x-rot acc   y-rot acc   z-rot acc
    22626 -3.46504E-01 1.97459E-03 3.65930E-03-2.10329E-02 2.40961E-04 3.17942E-04 1.81187E-03-1.24008E-06 1.15703E-04



 n o d a l   p r i n t   o u t   f o r   t i m e  s t e p   49806                              ( at time 2.4900008E+01 )

 nodal point  x-disp     y-disp      z-disp      x-vel       y-vel       z-vel      x-accl      y-accl      z-accl      x-coor      y-coor      z-coor
    22626  6.09144E-01 3.83051E+01 2.80915E+01 2.65337E-02 1.55623E+00 1.46672E+00 1.55713E-02 4.57170E-02-8.40495E-02 5.26852E+00 1.01143E+01-1.68902E+01



 n o d a l   p r i n t   o u t   f o r   t i m e  s t e p   49806                              ( at time 2.4900008E+01 )

 nodal point  x-rot      y-rot       z-rot       x-rot vel   y-rot vel   z-rot vel   x-rot acc   y-rot acc   z-rot acc
    22626 -3.48598E-01 2.00016E-03 3.69097E-03-2.08944E-02 2.66358E-04 3.21167E-04 1.38604E-03 2.53993E-04 3.22497E-05



 n o d a l   p r i n t   o u t   f o r   t i m e  s t e p   50006                              ( at time 2.4999998E+01 )

 nodal point  x-disp     y-disp      z-disp      x-vel       y-vel       z-vel      x-accl      y-accl      z-accl      x-coor      y-coor      z-coor
    22626  6.11711E-01 3.84612E+01 2.82380E+01 2.50550E-02 1.56206E+00 1.46390E+00-1.47878E-02 5.82796E-02-2.82445E-02 5.27109E+00 1.02703E+01-1.67437E+01



 n o d a l   p r i n t   o u t   f o r   t i m e  s t e p   50006                              ( at time 2.4999998E+01 )

 nodal point  x-rot      y-rot       z-rot       x-rot vel   y-rot vel   z-rot vel   x-rot acc   y-rot acc   z-rot acc
    22626 -3.50678E-01 2.02642E-03 3.72420E-03-2.07440E-02 2.60778E-04 3.36799E-04 1.50385E-03-5.58047E-05 1.56340E-04
