 LSTC 50th% Full_FE H-III Dummy (Beta Version, February 17, 2019)        
                    ls-dyna smp s R16 R16.0_619_d222963 date 03/18/2025

{BEGIN LEGEND}
 Entity #        Title
        1     Upper_Neck_Force_INJURY                                              
{END LEGEND}



 line#1  section#     time        x-force     y-force     z-force    magnitude
 line#2  resultant  moments       x-moment    y-moment    z-moment   magnitude
 line#3  centroids                x           y           z            area  
           1    0.00000E+00     0.0000E+00  0.0000E+00  0.0000E+00  0.0000E+00
ac ID =   33377                 0.0000E+00  0.0000E+00  0.0000E+00  0.0000E+00
                               -3.7437E-01  1.0501E+01 -4.6940E+01  0.0000E+00

           1    1.00490E-01     1.3574E-04 -4.9860E-03  2.5983E-01  2.5987E-01
ac ID =   33377                 4.2540E-01 -1.2521E+00 -2.7094E-02  1.3227E+00
                               -3.7387E-01  1.0590E+01 -4.6886E+01  2.5147E+03

           1    2.00480E-01    -4.4294E-02  6.0200E-04  4.4105E-01  4.4327E-01
ac ID =   33377                 3.0793E-01 -1.5957E+00  2.1649E-02  1.6253E+00
                               -3.7386E-01  1.0591E+01 -4.6888E+01  2.5147E+03

           1    3.00470E-01     1.4718E-02 -2.9495E-03  2.1723E-01  2.1775E-01
ac ID =   33377                 2.4638E-02 -3.4116E-01  6.1376E-02  3.4751E-01
                               -3.7382E-01  1.0591E+01 -4.6889E+01  2.5147E+03

           1    4.00460E-01     2.9570E-03  1.0532E-02  8.7732E-02  8.8411E-02
ac ID =   33377                -4.9241E-01 -9.4436E-01  7.8604E-04  1.0650E+00
                               -3.7383E-01  1.0592E+01 -4.6890E+01  2.5147E+03

           1    5.00450E-01    -4.0855E-02  4.3979E-03  1.6217E-01  1.6729E-01
ac ID =   33377                -4.0156E-01 -1.5070E+00 -1.0804E-01  1.5633E+00
                               -3.7385E-01  1.0594E+01 -4.6893E+01  2.5147E+03

           1    6.00440E-01    -1.0792E-02  3.9188E-03  3.4287E-01  3.4306E-01
ac ID =   33377                 9.3266E-02 -1.3264E+00 -3.2901E-02  1.3301E+00
                               -3.7385E-01  1.0595E+01 -4.6897E+01  2.5147E+03

           1    7.00430E-01     2.7487E-03 -5.5073E-03  2.9483E-01  2.9489E-01
ac ID =   33377                 1.3905E-01 -4.9842E-01  8.1091E-02  5.2377E-01
                               -3.7389E-01  1.0597E+01 -4.6901E+01  2.5147E+03

           1    8.00420E-01    -3.1006E-02 -1.2252E-03  1.0080E-01  1.0547E-01
ac ID =   33377                 8.2229E-02 -1.0535E+00  5.0685E-02  1.0580E+00
                               -3.7394E-01  1.0599E+01 -4.6905E+01  2.5147E+03

           1    9.00410E-01    -3.9266E-02  9.9887E-04  6.1824E-02  7.3246E-02
ac ID =   33377                 9.4826E-02 -1.0713E+00  2.5554E-03  1.0755E+00
                               -3.7399E-01  1.0601E+01 -4.6909E+01  2.5147E+03

           1    1.00040E+00     1.4982E-02 -3.7206E-03  2.2090E-01  2.2144E-01
ac ID =   33377                 3.6349E-01 -2.8969E-01 -5.8884E-02  4.6852E-01
                               -3.7400E-01  1.0604E+01 -4.6915E+01  2.5147E+03

           1    1.10039E+00     6.2120E-04 -3.1517E-03  2.7021E-01  2.7023E-01
ac ID =   33377                 3.4855E-01 -8.8055E-01 -5.6800E-02  9.4873E-01
                               -3.7401E-01  1.0607E+01 -4.6921E+01  2.5147E+03

           1    1.20038E+00    -3.1951E-02 -4.4595E-04  1.2930E-01  1.3319E-01
ac ID =   33377                -1.5046E-01 -1.1814E+00  1.2542E-02  1.1910E+00
                               -3.7403E-01  1.0610E+01 -4.6927E+01  2.5147E+03

           1    1.30037E+00    -1.0253E-02  4.8765E-03  7.4727E-02  7.5584E-02
ac ID =   33377                -3.0110E-01 -8.8172E-01  8.1048E-03  9.3175E-01
                               -3.7407E-01  1.0612E+01 -4.6933E+01  2.5147E+03

           1    1.40036E+00     8.0236E-03  4.0867E-03  1.7343E-01  1.7366E-01
ac ID =   33377                -2.8939E-01 -8.3469E-01  3.4669E-02  8.8411E-01
                               -3.7409E-01  1.0616E+01 -4.6941E+01  2.5147E+03

           1    1.50035E+00    -2.7425E-02  1.0060E-03  3.2857E-01  3.2971E-01
ac ID =   33377                -2.0767E-02 -1.5796E+00 -4.5127E-02  1.5804E+00
                               -3.7413E-01  1.0620E+01 -4.6949E+01  2.5147E+03

           1    1.60034E+00    -1.8990E-02 -1.9678E-03  2.2101E-01  2.2183E-01
ac ID =   33377                -2.1800E-02 -1.3735E+00 -1.4125E-02  1.3738E+00
                               -3.7419E-01  1.0624E+01 -4.6957E+01  2.5147E+03

           1    1.70033E+00    -1.3455E-03 -6.1917E-04  5.7192E-02  5.7211E-02
ac ID =   33377                -3.8050E-02 -6.5459E-01  8.5708E-02  6.6128E-01
                               -3.7427E-01  1.0627E+01 -4.6965E+01  2.5147E+03

           1    1.80032E+00     3.0053E-03  1.0200E-03  5.1925E-02  5.2022E-02
ac ID =   33377                 6.7192E-02 -7.9284E-01  1.1708E-01  8.0425E-01
                               -3.7434E-01  1.0632E+01 -4.6974E+01  2.5147E+03

           1    1.90031E+00     3.7701E-02 -1.7274E-03  1.2146E-01  1.2719E-01
ac ID =   33377                 2.1383E-01  1.1154E-02 -7.9849E-02  2.2853E-01
                               -3.7440E-01  1.0637E+01 -4.6984E+01  2.5147E+03

           1    2.00030E+00     6.9828E-02 -5.1486E-03  3.1399E-02  7.6735E-02
ac ID =   33377                 1.8611E-01  1.0507E+00 -1.9650E-01  1.0850E+00
                               -3.7447E-01  1.0643E+01 -4.6994E+01  2.5147E+03

           1    2.10029E+00     8.8991E-02  8.6061E-03 -1.7742E-01  1.9867E-01
ac ID =   33377                -2.2574E-01  1.5144E+00  7.8552E-02  1.5331E+00
                               -3.7456E-01  1.0652E+01 -4.7004E+01  2.5147E+03

           1    2.20028E+00     1.1943E-01  2.3207E-03 -2.2501E-01  2.5475E-01
ac ID =   33377                -2.1829E-01  1.9396E+00 -3.5509E-02  1.9522E+00
                               -3.7466E-01  1.0663E+01 -4.7016E+01  2.5147E+03

           1    2.30027E+00     1.5586E-01  6.3506E-03 -1.2683E-01  2.0104E-01
ac ID =   33377                -2.3459E-01  2.3267E+00 -3.5299E-01  2.3650E+00
                               -3.7476E-01  1.0678E+01 -4.7030E+01  2.5147E+03

           1    2.40026E+00     1.7178E-01 -4.2770E-03 -1.4743E-01  2.2641E-01
ac ID =   33377                -3.3901E-01  2.6524E+00  1.6438E-01  2.6790E+00
                               -3.7489E-01  1.0697E+01 -4.7045E+01  2.5147E+03

           1    2.50025E+00     1.9816E-01  4.7535E-03 -4.0358E-01  4.4964E-01
ac ID =   33377                -4.3249E-02  3.6060E+00  4.4282E-01  3.6333E+00
                               -3.7512E-01  1.0719E+01 -4.7061E+01  2.5147E+03

           1    2.60024E+00     2.2742E-01  1.2924E-02 -5.4292E-01  5.8877E-01
ac ID =   33377                -4.0031E-01  4.9887E+00  4.0296E-01  5.0209E+00
                               -3.7534E-01  1.0747E+01 -4.7078E+01  2.5147E+03

           1    2.70023E+00     2.5953E-01 -1.3765E-03 -5.2271E-01  5.8360E-01
ac ID =   33377                -1.0629E-01  5.8348E+00 -1.3267E-01  5.8372E+00
                               -3.7557E-01  1.0780E+01 -4.7098E+01  2.5147E+03

           1    2.80022E+00     2.9617E-01 -2.4310E-04 -5.4796E-01  6.2287E-01
ac ID =   33377                -1.6298E-02  6.7464E+00 -5.9506E-01  6.7726E+00
                               -3.7587E-01  1.0820E+01 -4.7119E+01  2.5147E+03

           1    2.90021E+00     3.1126E-01  3.9636E-03 -6.7856E-01  7.4656E-01
ac ID =   33377                -1.3452E-01  7.6403E+00 -3.8286E-01  7.6510E+00
                               -3.7616E-01  1.0865E+01 -4.7141E+01  2.5147E+03

           1    3.00020E+00     3.1614E-01  1.5972E-02 -8.2061E-01  8.7954E-01
ac ID =   33377                -4.4383E-01  8.1197E+00  1.2772E-01  8.1328E+00
                               -3.7649E-01  1.0916E+01 -4.7166E+01  2.5147E+03

           1    3.10019E+00     3.3593E-01  9.4799E-03 -7.8560E-01  8.5446E-01
ac ID =   33377                -3.4623E-01  8.4301E+00  1.2605E-01  8.4382E+00
                               -3.7682E-01  1.0975E+01 -4.7193E+01  2.5147E+03

           1    3.20018E+00     3.5682E-01  3.8963E-03 -7.6406E-01  8.4328E-01
ac ID =   33377                -3.3743E-01  8.8771E+00 -3.5973E-01  8.8907E+00
                               -3.7717E-01  1.1040E+01 -4.7222E+01  2.5147E+03

           1    3.30017E+00     3.7514E-01  2.0907E-03 -9.1453E-01  9.8848E-01
ac ID =   33377                -4.1786E-01  9.5759E+00 -5.3989E-01  9.6002E+00
                               -3.7757E-01  1.1112E+01 -4.7252E+01  2.5147E+03

           1    3.40016E+00     3.9281E-01  1.9716E-02 -1.1056E+00  1.1735E+00
ac ID =   33377                -6.4477E-01  1.0848E+01  4.8053E-02  1.0868E+01
                               -3.7803E-01  1.1191E+01 -4.7284E+01  2.5147E+03

           1    3.50015E+00     3.9767E-01  8.3697E-03 -1.1875E+00  1.2523E+00
ac ID =   33377                -3.8273E-01  1.1806E+01  2.9528E-01  1.1816E+01
                               -3.7845E-01  1.1277E+01 -4.7319E+01  2.5147E+03

           1    3.60014E+00     4.1250E-01 -6.9540E-03 -1.1435E+00  1.2157E+00
ac ID =   33377                -1.2548E-01  1.2600E+01 -1.0921E-01  1.2601E+01
                               -3.7883E-01  1.1371E+01 -4.7355E+01  2.5147E+03

           1    3.70013E+00     4.4614E-01 -4.7327E-03 -1.2485E+00  1.3258E+00
ac ID =   33377                -1.0098E-01  1.3930E+01 -4.3228E-01  1.3937E+01
                               -3.7925E-01  1.1471E+01 -4.7393E+01  2.5147E+03

           1    3.80012E+00     4.3494E-01  1.5098E-02 -1.4324E+00  1.4970E+00
ac ID =   33377                -4.2749E-01  1.4294E+01 -1.3873E-01  1.4301E+01
                               -3.7969E-01  1.1578E+01 -4.7432E+01  2.5147E+03

           1    3.90011E+00     4.4218E-01  9.4053E-03 -1.5583E+00  1.6199E+00
ac ID =   33377                -2.3565E-01  1.4962E+01 -3.6162E-02  1.4963E+01
                               -3.8006E-01  1.1693E+01 -4.7472E+01  2.5147E+03

           1    4.00010E+00     4.5852E-01 -1.4879E-03 -1.5732E+00  1.6386E+00
ac ID =   33377                -5.6137E-01  1.5707E+01  1.0017E-01  1.5717E+01
                               -3.8033E-01  1.1814E+01 -4.7514E+01  2.5147E+03

           1    4.10009E+00     4.5904E-01  7.3671E-03 -1.6510E+00  1.7137E+00
ac ID =   33377                -6.8649E-01  1.6075E+01  2.1130E-02  1.6090E+01
                               -3.8067E-01  1.1942E+01 -4.7557E+01  2.5147E+03

           1    4.20008E+00     4.6197E-01  1.3565E-02 -1.8568E+00  1.9134E+00
ac ID =   33377                -5.4276E-01  1.7274E+01  2.4628E-01  1.7285E+01
                               -3.8101E-01  1.2075E+01 -4.7600E+01  2.5147E+03

           1    4.30007E+00     4.8628E-01  1.8608E-02 -2.0225E+00  2.0803E+00
ac ID =   33377                -6.3792E-01  1.8679E+01  2.7706E-01  1.8692E+01
                               -3.8127E-01  1.2215E+01 -4.7643E+01  2.5147E+03

           1    4.40006E+00     5.0707E-01 -2.2231E-03 -2.0548E+00  2.1164E+00
ac ID =   33377                -3.2824E-01  1.9902E+01 -2.2579E-01  1.9906E+01
                               -3.8148E-01  1.2362E+01 -4.7687E+01  2.5147E+03

           1    4.50005E+00     5.0587E-01  1.1613E-02 -2.1314E+00  2.1906E+00
ac ID =   33377                -4.8721E-01  2.0780E+01 -5.0348E-01  2.0792E+01
                               -3.8172E-01  1.2513E+01 -4.7731E+01  2.5147E+03

           1    4.60004E+00     5.1800E-01  4.6258E-03 -2.3019E+00  2.3594E+00
ac ID =   33377                -2.3687E-01  2.1878E+01 -3.7115E-01  2.1883E+01
                               -3.8186E-01  1.2671E+01 -4.7774E+01  2.5147E+03

           1    4.70003E+00     5.2529E-01  6.1936E-03 -2.4796E+00  2.5346E+00
ac ID =   33377                -3.1512E-01  2.2576E+01  1.6961E-01  2.2579E+01
                               -3.8193E-01  1.2833E+01 -4.7817E+01  2.5147E+03

           1    4.80002E+00     5.4494E-01  6.4052E-03 -2.5751E+00  2.6321E+00
ac ID =   33377                -5.6630E-01  2.3854E+01 -2.0012E-01  2.3862E+01
                               -3.8199E-01  1.3000E+01 -4.7859E+01  2.5147E+03

           1    4.90001E+00     5.5269E-01  9.7257E-03 -2.6083E+00  2.6662E+00
ac ID =   33377                -7.3429E-01  2.5095E+01 -3.6098E-01  2.5108E+01
                               -3.8203E-01  1.3173E+01 -4.7900E+01  2.5147E+03

           1    5.00000E+00     5.5461E-01  8.0233E-04 -2.7608E+00  2.8160E+00
ac ID =   33377                -7.4324E-01  2.6120E+01  2.1775E-01  2.6132E+01
                               -3.8198E-01  1.3350E+01 -4.7940E+01  2.5147E+03

           1    5.10049E+00     5.6983E-01  2.0203E-03 -2.9585E+00  3.0128E+00
ac ID =   33377                -4.8253E-01  2.7475E+01  7.1558E-01  2.7489E+01
                               -3.8195E-01  1.3532E+01 -4.7977E+01  2.5147E+03

           1    5.20048E+00     6.0198E-01  2.2231E-02 -3.0535E+00  3.1123E+00
ac ID =   33377                -9.1751E-01  2.9126E+01  3.0277E-01  2.9142E+01
                               -3.8188E-01  1.3717E+01 -4.8013E+01  2.5147E+03

           1    5.30047E+00     5.5549E-01 -6.3002E-03 -3.0961E+00  3.1455E+00
ac ID =   33377                -7.9992E-01  2.9532E+01 -3.2982E-01  2.9545E+01
                               -3.8170E-01  1.3906E+01 -4.8047E+01  2.5147E+03

           1    5.40046E+00     6.2066E-01 -8.2709E-03 -3.2592E+00  3.3178E+00
ac ID =   33377                -2.5247E-01  3.1585E+01 -5.9469E-01  3.1591E+01
                               -3.8149E-01  1.4099E+01 -4.8078E+01  2.5147E+03

           1    5.50045E+00     6.0563E-01 -1.6655E-03 -3.4609E+00  3.5135E+00
ac ID =   33377                -5.4745E-01  3.3591E+01 -4.7187E-02  3.3596E+01
                               -3.8127E-01  1.4294E+01 -4.8106E+01  2.5147E+03

           1    5.60044E+00     6.2524E-01  1.7167E-02 -3.5895E+00  3.6435E+00
ac ID =   33377                -1.0424E+00  3.4534E+01  3.0968E-01  3.4552E+01
                               -3.8100E-01  1.4492E+01 -4.8130E+01  2.5147E+03

           1    5.70043E+00     5.8883E-01 -1.0561E-02 -3.6774E+00  3.7243E+00
ac ID =   33377                -3.1254E-01  3.5867E+01  1.7919E-01  3.5869E+01
                               -3.8060E-01  1.4693E+01 -4.8152E+01  2.5147E+03

           1    5.80042E+00     6.4118E-01 -3.6929E-03 -3.7261E+00  3.7809E+00
ac ID =   33377                -6.7722E-01  3.6445E+01 -4.5036E-01  3.6454E+01
                               -3.8013E-01  1.4895E+01 -4.8169E+01  2.5147E+03

           1    5.90041E+00     6.1143E-01  1.1250E-02 -3.8786E+00  3.9265E+00
ac ID =   33377                -1.1320E+00  3.8142E+01 -3.9458E-01  3.8161E+01
                               -3.7971E-01  1.5098E+01 -4.8182E+01  2.5147E+03

           1    6.00040E+00     6.1996E-01  2.2767E-02 -3.9870E+00  4.0349E+00
ac ID =   33377                -1.0528E+00  3.8207E+01  1.5125E-01  3.8222E+01
                               -3.7915E-01  1.5302E+01 -4.8190E+01  2.5147E+03

           1    6.10039E+00     6.1794E-01  6.2442E-03 -4.0592E+00  4.1060E+00
ac ID =   33377                -6.0245E-01  4.0110E+01  2.4332E-02  4.0115E+01
                               -3.7850E-01  1.5508E+01 -4.8194E+01  2.5147E+03

           1    6.20038E+00     6.5880E-01 -9.5258E-03 -4.1245E+00  4.1768E+00
ac ID =   33377                -8.7462E-01  4.1239E+01 -3.0958E-01  4.1250E+01
                               -3.7777E-01  1.5713E+01 -4.8192E+01  2.5147E+03

           1    6.30037E+00     5.8797E-01  3.1709E-02 -4.2156E+00  4.2565E+00
ac ID =   33377                -1.1274E+00  4.0368E+01 -3.6848E-01  4.0385E+01
                               -3.7718E-01  1.5919E+01 -4.8185E+01  2.5147E+03

           1    6.40036E+00     6.6120E-01  5.8164E-03 -4.3788E+00  4.4285E+00
ac ID =   33377                -7.6567E-01  4.4011E+01 -7.6366E-01  4.4024E+01
                               -3.7634E-01  1.6124E+01 -4.8173E+01  2.5147E+03

           1    6.50035E+00     6.5826E-01  1.5071E-02 -4.4196E+00  4.4683E+00
ac ID =   33377                -8.8898E-01  4.4518E+01 -1.1699E+00  4.4542E+01
                               -3.7548E-01  1.6329E+01 -4.8155E+01  2.5147E+03

           1    6.60034E+00     6.4153E-01  1.4818E-02 -4.4834E+00  4.5291E+00
ac ID =   33377                -1.1443E+00  4.6199E+01 -5.0350E-01  4.6216E+01
                               -3.7461E-01  1.6533E+01 -4.8131E+01  2.5147E+03

           1    6.70033E+00     6.5119E-01  3.2504E-03 -4.5269E+00  4.5735E+00
ac ID =   33377                -8.5790E-01  4.6877E+01 -4.9501E-02  4.6884E+01
                               -3.7374E-01  1.6737E+01 -4.8101E+01  2.5147E+03

           1    6.80032E+00     6.4848E-01  5.6899E-03 -4.6523E+00  4.6973E+00
ac ID =   33377                -1.3353E+00  4.8317E+01  3.5481E-02  4.8335E+01
                               -3.7272E-01  1.6939E+01 -4.8065E+01  2.5147E+03

           1    6.90031E+00     6.6858E-01  4.9504E-03 -4.7062E+00  4.7535E+00
ac ID =   33377                -9.6766E-01  4.8796E+01 -1.1627E-01  4.8805E+01
                               -3.7176E-01  1.7140E+01 -4.8022E+01  2.5147E+03

           1    7.00030E+00     6.4964E-01 -1.7827E-03 -4.7061E+00  4.7507E+00
ac ID =   33377                -1.1890E+00  4.9620E+01 -4.7683E-01  4.9636E+01
                               -3.7084E-01  1.7341E+01 -4.7974E+01  2.5147E+03

           1    7.10029E+00     7.2483E-01 -1.8840E-02 -4.7914E+00  4.8459E+00
ac ID =   33377                -1.1158E+00  5.2571E+01 -3.3752E-01  5.2584E+01
                               -3.6978E-01  1.7541E+01 -4.7919E+01  2.5147E+03

           1    7.20028E+00     6.6192E-01  1.9142E-02 -4.9059E+00  4.9504E+00
ac ID =   33377                -1.4510E+00  5.3116E+01  3.3491E-02  5.3135E+01
                               -3.6884E-01  1.7739E+01 -4.7857E+01  2.5147E+03

           1    7.30027E+00     7.3845E-01 -7.7569E-03 -4.9741E+00  5.0286E+00
ac ID =   33377                -6.5772E-01  5.5312E+01  1.2761E-01  5.5316E+01
                               -3.6783E-01  1.7937E+01 -4.7790E+01  2.5147E+03

           1    7.40026E+00     7.0092E-01  6.0978E-03 -4.9347E+00  4.9843E+00
ac ID =   33377                -8.9521E-01  5.5390E+01 -4.0066E-01  5.5399E+01
                               -3.6685E-01  1.8133E+01 -4.7716E+01  2.5147E+03

           1    7.50025E+00     7.2935E-01 -9.4264E-03 -4.9088E+00  4.9627E+00
ac ID =   33377                -7.8367E-01  5.6885E+01 -1.0523E+00  5.6900E+01
                               -3.6575E-01  1.8328E+01 -4.7635E+01  2.5147E+03

           1    7.60024E+00     6.8962E-01  8.9500E-03 -4.9173E+00  4.9654E+00
ac ID =   33377                -8.9841E-01  5.7011E+01 -1.0750E+00  5.7028E+01
                               -3.6472E-01  1.8522E+01 -4.7548E+01  2.5147E+03

           1    7.70023E+00     7.2274E-01  1.4301E-02 -4.9006E+00  4.9537E+00
ac ID =   33377                -9.4721E-01  5.8532E+01 -3.9051E-01  5.8541E+01
                               -3.6363E-01  1.8715E+01 -4.7455E+01  2.5147E+03

           1    7.80022E+00     7.1233E-01  1.9165E-02 -4.8484E+00  4.9005E+00
ac ID =   33377                -1.3560E+00  5.9129E+01 -6.8115E-02  5.9145E+01
                               -3.6246E-01  1.8906E+01 -4.7356E+01  2.5147E+03

           1    7.90021E+00     7.3284E-01 -4.8876E-03 -4.8395E+00  4.8947E+00
ac ID =   33377                -1.1732E+00  6.0522E+01 -3.7034E-01  6.0535E+01
                               -3.6125E-01  1.9095E+01 -4.7250E+01  2.5147E+03

           1    8.00020E+00     7.2778E-01  1.7619E-02 -4.8073E+00  4.8621E+00
ac ID =   33377                -1.2603E+00  6.1216E+01 -5.6023E-01  6.1232E+01
                               -3.6007E-01  1.9283E+01 -4.7138E+01  2.5147E+03

           1    8.10019E+00     7.1514E-01  2.4885E-03 -4.7854E+00  4.8385E+00
ac ID =   33377                -1.0555E+00  6.2334E+01 -1.5147E-01  6.2343E+01
                               -3.5885E-01  1.9469E+01 -4.7020E+01  2.5147E+03

           1    8.20018E+00     7.3730E-01 -1.6408E-02 -4.7268E+00  4.7839E+00
ac ID =   33377                -6.1608E-01  6.3741E+01  4.1314E-01  6.3745E+01
                               -3.5748E-01  1.9653E+01 -4.6896E+01  2.5147E+03

           1    8.30017E+00     7.3980E-01  7.8339E-04 -4.6509E+00  4.7094E+00
ac ID =   33377                -7.6196E-01  6.4186E+01  5.7332E-01  6.4194E+01
                               -3.5613E-01  1.9836E+01 -4.6766E+01  2.5147E+03

           1    8.40016E+00     7.2238E-01 -7.2561E-03 -4.5938E+00  4.6503E+00
ac ID =   33377                -3.5488E-01  6.4209E+01  2.9699E-01  6.4211E+01
                               -3.5473E-01  2.0017E+01 -4.6631E+01  2.5147E+03

           1    8.50015E+00     7.1842E-01 -5.9016E-03 -4.5297E+00  4.5863E+00
ac ID =   33377                -5.4018E-01  6.4700E+01  1.0471E-02  6.4702E+01
                               -3.5317E-01  2.0197E+01 -4.6490E+01  2.5147E+03

           1    8.60014E+00     7.5480E-01 -5.3263E-03 -4.5002E+00  4.5631E+00
ac ID =   33377                -5.8092E-01  6.5632E+01 -2.2698E-01  6.5635E+01
                               -3.5154E-01  2.0375E+01 -4.6343E+01  2.5147E+03

           1    8.70013E+00     7.5376E-01  1.1378E-02 -4.4103E+00  4.4743E+00
ac ID =   33377                -9.7396E-01  6.6224E+01 -5.3216E-02  6.6231E+01
                               -3.4995E-01  2.0552E+01 -4.6192E+01  2.5147E+03

           1    8.80012E+00     7.2955E-01  9.8345E-03 -4.3397E+00  4.4006E+00
ac ID =   33377                -1.0812E+00  6.6662E+01 -4.6151E-02  6.6671E+01
                               -3.4819E-01  2.0728E+01 -4.6036E+01  2.5147E+03

           1    8.90011E+00     7.6643E-01  4.7360E-03 -4.2539E+00  4.3224E+00
ac ID =   33377                -8.6208E-01  6.7688E+01 -6.2209E-02  6.7694E+01
                               -3.4634E-01  2.0903E+01 -4.5875E+01  2.5147E+03

           1    9.00010E+00     7.6268E-01  1.9682E-02 -4.1907E+00  4.2596E+00
ac ID =   33377                -6.2059E-01  6.7608E+01 -4.2189E-01  6.7612E+01
                               -3.4447E-01  2.1077E+01 -4.5710E+01  2.5147E+03

           1    9.10009E+00     7.6168E-01  4.4833E-03 -4.0932E+00  4.1635E+00
ac ID =   33377                -2.8974E-01  6.8291E+01 -6.3188E-01  6.8295E+01
                               -3.4249E-01  2.1251E+01 -4.5541E+01  2.5147E+03

           1    9.20008E+00     7.2780E-01  3.4054E-03 -3.9579E+00  4.0242E+00
ac ID =   33377                -3.1487E-01  6.7493E+01 -2.0103E-01  6.7494E+01
                               -3.4035E-01  2.1424E+01 -4.5368E+01  2.5147E+03

           1    9.30007E+00     7.6106E-01  6.0805E-03 -3.8462E+00  3.9208E+00
ac ID =   33377                -4.9841E-01  6.7999E+01 -3.8805E-01  6.8002E+01
                               -3.3811E-01  2.1596E+01 -4.5191E+01  2.5147E+03

           1    9.40006E+00     7.4369E-01  1.1594E-02 -3.7289E+00  3.8023E+00
ac ID =   33377                -4.9538E-01  6.7708E+01 -4.0400E-01  6.7711E+01
                               -3.3577E-01  2.1768E+01 -4.5011E+01  2.5147E+03

           1    9.50005E+00     7.1630E-01  7.5099E-03 -3.5807E+00  3.6516E+00
ac ID =   33377                -4.4007E-01  6.7245E+01 -6.2532E-01  6.7249E+01
                               -3.3330E-01  2.1939E+01 -4.4828E+01  2.5147E+03

           1    9.60004E+00     7.4147E-01  6.2506E-03 -3.4559E+00  3.5345E+00
ac ID =   33377                -1.1298E+00  6.7796E+01 -5.6780E-01  6.7808E+01
                               -3.3068E-01  2.2110E+01 -4.4642E+01  2.5147E+03

           1    9.70003E+00     7.3084E-01  9.5646E-03 -3.2969E+00  3.3770E+00
ac ID =   33377                -6.9018E-01  6.7701E+01 -4.1127E-01  6.7706E+01
                               -3.2805E-01  2.2281E+01 -4.4453E+01  2.5147E+03

           1    9.80002E+00     7.2768E-01  4.9582E-03 -3.2013E+00  3.2830E+00
ac ID =   33377                -7.7272E-01  6.7223E+01  1.1180E-01  6.7228E+01
                               -3.2532E-01  2.2452E+01 -4.4262E+01  2.5147E+03

           1    9.90001E+00     7.0988E-01 -2.0066E-03 -3.0829E+00  3.1635E+00
ac ID =   33377                -4.2161E-01  6.7115E+01  4.1400E-01  6.7117E+01
                               -3.2247E-01  2.2622E+01 -4.4068E+01  2.5147E+03

           1    1.00005E+01     7.0451E-01 -1.6773E-03 -2.9807E+00  3.0628E+00
ac ID =   33377                -4.7737E-01  6.6908E+01  1.6159E-01  6.6910E+01
                               -3.1958E-01  2.2793E+01 -4.3872E+01  2.5147E+03

           1    1.01005E+01     7.0089E-01 -9.8757E-03 -2.8610E+00  2.9456E+00
ac ID =   33377                 6.2404E-02  6.6752E+01 -4.6594E-01  6.6753E+01
                               -3.1660E-01  2.2964E+01 -4.3674E+01  2.5147E+03

           1    1.02005E+01     6.7915E-01 -3.8302E-04 -2.7246E+00  2.8079E+00
ac ID =   33377                -3.0039E-01  6.5803E+01 -3.5474E-02  6.5804E+01
                               -3.1352E-01  2.3134E+01 -4.3475E+01  2.5147E+03

           1    1.03005E+01     7.2093E-01 -1.4618E-03 -2.6102E+00  2.7080E+00
ac ID =   33377                -2.7090E-01  6.6399E+01  3.3882E-01  6.6400E+01
                               -3.1036E-01  2.3304E+01 -4.3275E+01  2.5147E+03

           1    1.04005E+01     6.6546E-01  4.0682E-03 -2.4663E+00  2.5545E+00
ac ID =   33377                -4.1886E-01  6.4752E+01  3.7171E-01  6.4754E+01
                               -3.0713E-01  2.3475E+01 -4.3073E+01  2.5147E+03

           1    1.05004E+01     6.5904E-01  6.4416E-03 -2.3369E+00  2.4280E+00
ac ID =   33377                -5.6791E-01  6.4338E+01  1.8461E-01  6.4341E+01
                               -3.0378E-01  2.3646E+01 -4.2871E+01  2.5147E+03

           1    1.06004E+01     6.5269E-01  1.3783E-02 -2.1960E+00  2.2910E+00
ac ID =   33377                -7.8322E-01  6.3736E+01 -2.7799E-01  6.3742E+01
                               -3.0043E-01  2.3817E+01 -4.2668E+01  2.5147E+03

           1    1.07004E+01     6.3798E-01  1.9980E-02 -2.0679E+00  2.1641E+00
ac ID =   33377                -6.7563E-01  6.2295E+01 -1.0696E-01  6.2299E+01
                               -2.9697E-01  2.3988E+01 -4.2464E+01  2.5147E+03

           1    1.08004E+01     6.1183E-01  5.0995E-03 -1.9661E+00  2.0591E+00
ac ID =   33377                -4.9205E-01  6.1146E+01  1.9188E-01  6.1148E+01
                               -2.9343E-01  2.4160E+01 -4.2260E+01  2.5147E+03

           1    1.09004E+01     6.0164E-01  1.2970E-02 -1.8090E+00  1.9065E+00
ac ID =   33377                -3.4669E-01  6.0083E+01  5.2829E-02  6.0084E+01
                               -2.8990E-01  2.4332E+01 -4.2055E+01  2.5147E+03

           1    1.10004E+01     5.8934E-01  4.3529E-03 -1.6530E+00  1.7549E+00
ac ID =   33377                -2.0394E-01  5.8969E+01 -5.8274E-01  5.8972E+01
                               -2.8621E-01  2.4504E+01 -4.1851E+01  2.5147E+03

           1    1.11004E+01     5.5666E-01  9.4238E-03 -1.5273E+00  1.6256E+00
ac ID =   33377                -6.8105E-01  5.7983E+01 -5.6625E-01  5.7990E+01
                               -2.8249E-01  2.4677E+01 -4.1647E+01  2.5147E+03

           1    1.12004E+01     5.7182E-01  1.2748E-03 -1.3755E+00  1.4897E+00
ac ID =   33377                -5.9878E-02  5.7859E+01 -1.7886E-01  5.7860E+01
                               -2.7873E-01  2.4850E+01 -4.1444E+01  2.5147E+03

           1    1.13004E+01     5.5440E-01  1.9430E-02 -1.2304E+00  1.3497E+00
ac ID =   33377                -8.4335E-01  5.7041E+01  2.1783E-01  5.7048E+01
                               -2.7488E-01  2.5024E+01 -4.1241E+01  2.5147E+03

           1    1.14004E+01     5.0561E-01  8.6365E-03 -1.1195E+00  1.2284E+00
ac ID =   33377                -7.8684E-01  5.5791E+01 -2.9287E-02  5.5796E+01
                               -2.7096E-01  2.5198E+01 -4.1039E+01  2.5147E+03

           1    1.15003E+01     5.1417E-01  3.6999E-03 -1.0261E+00  1.1478E+00
ac ID =   33377                -7.2477E-01  5.5471E+01 -6.7918E-01  5.5480E+01
                               -2.6704E-01  2.5373E+01 -4.0838E+01  2.5147E+03

           1    1.16003E+01     4.7872E-01  9.5019E-03 -9.0566E-01  1.0244E+00
ac ID =   33377                -6.7382E-01  5.4664E+01 -1.6712E-01  5.4669E+01
                               -2.6305E-01  2.5548E+01 -4.0638E+01  2.5147E+03

           1    1.17003E+01     5.0432E-01  1.4210E-02 -8.2245E-01  9.6486E-01
ac ID =   33377                -7.3026E-01  5.4853E+01  1.3968E-01  5.4858E+01
                               -2.5904E-01  2.5724E+01 -4.0439E+01  2.5147E+03

           1    1.18003E+01     5.0272E-01  1.5074E-02 -7.2778E-01  8.8466E-01
ac ID =   33377                -2.4329E-01  5.5482E+01 -1.6024E-01  5.5483E+01
                               -2.5503E-01  2.5900E+01 -4.0243E+01  2.5147E+03

           1    1.19003E+01     4.7867E-01  4.9409E-03 -6.1807E-01  7.8177E-01
ac ID =   33377                -4.0970E-01  5.5171E+01 -3.6459E-01  5.5174E+01
                               -2.5086E-01  2.6077E+01 -4.0048E+01  2.5147E+03

           1    1.20003E+01     4.9596E-01 -1.7494E-02 -5.2503E-01  7.2245E-01
ac ID =   33377                -1.5073E-01  5.5076E+01  3.7078E-01  5.5078E+01
                               -2.4675E-01  2.6254E+01 -3.9854E+01  2.5147E+03

           1    1.21003E+01     4.8954E-01  3.2729E-03 -4.3297E-01  6.5355E-01
ac ID =   33377                 1.2201E-01  5.4161E+01  1.6886E-01  5.4162E+01
                               -2.4270E-01  2.6431E+01 -3.9663E+01  2.5147E+03

           1    1.22003E+01     5.1254E-01  3.4498E-02 -3.4660E-01  6.1969E-01
ac ID =   33377                -1.3540E+00  5.4215E+01  1.9672E-01  5.4233E+01
                               -2.3847E-01  2.6609E+01 -3.9474E+01  2.5147E+03

           1    1.23003E+01     4.4766E-01 -2.2928E-02 -2.2064E-01  4.9961E-01
ac ID =   33377                -2.6159E-03  5.2476E+01  1.8481E-02  5.2476E+01
                               -2.3431E-01  2.6788E+01 -3.9288E+01  2.5147E+03

           1    1.24003E+01     4.7411E-01  1.6507E-02 -1.1621E-01  4.8842E-01
ac ID =   33377                -8.7734E-02  5.2233E+01 -5.6769E-01  5.2236E+01
                               -2.3028E-01  2.6967E+01 -3.9105E+01  2.5147E+03

           1    1.25002E+01     4.8871E-01  1.5513E-02 -3.3792E-02  4.9012E-01
ac ID =   33377                -1.2131E+00  5.2356E+01  1.9502E-01  5.2371E+01
                               -2.2597E-01  2.7146E+01 -3.8924E+01  2.5147E+03

           1    1.26002E+01     4.6122E-01  2.1798E-02 -5.9133E-03  4.6177E-01
ac ID =   33377                -3.2849E-02  5.1834E+01 -2.8499E-01  5.1835E+01
                               -2.2202E-01  2.7327E+01 -3.8747E+01  2.5147E+03

           1    1.27002E+01     4.9068E-01 -1.4269E-02  1.0654E-01  5.0231E-01
ac ID =   33377                 8.1158E-01  5.2519E+01 -3.5775E-01  5.2527E+01
                               -2.1786E-01  2.7508E+01 -3.8573E+01  2.5147E+03

           1    1.28002E+01     4.8830E-01  1.6461E-02  1.9871E-01  5.2744E-01
ac ID =   33377                -3.4853E-01  5.2290E+01 -5.5729E-01  5.2295E+01
                               -2.1365E-01  2.7689E+01 -3.8402E+01  2.5147E+03

           1    1.29002E+01     4.8232E-01  2.3907E-02  3.0175E-01  5.6944E-01
ac ID =   33377                -4.4790E-01  5.1717E+01 -3.7615E-01  5.1720E+01
                               -2.0965E-01  2.7872E+01 -3.8235E+01  2.5147E+03

           1    1.30002E+01     4.7302E-01 -2.0772E-02  3.3009E-01  5.7718E-01
ac ID =   33377                 1.2040E+00  4.9840E+01 -1.4169E-01  4.9854E+01
                               -2.0555E-01  2.8054E+01 -3.8072E+01  2.5147E+03

           1    1.31002E+01     4.8233E-01  3.5309E-03  4.2725E-01  6.4436E-01
ac ID =   33377                -5.8336E-01  4.9869E+01  7.9937E-02  4.9873E+01
                               -2.0130E-01  2.8238E+01 -3.7913E+01  2.5147E+03

           1    1.32002E+01     4.5124E-01  2.7032E-02  4.6314E-01  6.4718E-01
ac ID =   33377                -7.5168E-01  4.9020E+01 -6.2622E-01  4.9030E+01
                               -1.9732E-01  2.8423E+01 -3.7758E+01  2.5147E+03

           1    1.33002E+01     4.5894E-01  4.3123E-04  5.1137E-01  6.8711E-01
ac ID =   33377                 9.8967E-03  5.0253E+01 -3.3242E-01  5.0254E+01
                               -1.9331E-01  2.8608E+01 -3.7607E+01  2.5147E+03

           1    1.34002E+01     4.7518E-01 -1.0599E-02  5.2763E-01  7.1014E-01
ac ID =   33377                 3.1621E-01  5.0648E+01  5.4882E-01  5.0652E+01
                               -1.8917E-01  2.8794E+01 -3.7461E+01  2.5147E+03

           1    1.35001E+01     4.8081E-01  1.2732E-02  5.5837E-01  7.3696E-01
ac ID =   33377                -4.4611E-01  5.1214E+01 -2.7585E-02  5.1216E+01
                               -1.8519E-01  2.8981E+01 -3.7318E+01  2.5147E+03

           1    1.36001E+01     4.3242E-01  9.8760E-03  6.2732E-01  7.6198E-01
ac ID =   33377                 1.0089E-01  5.1072E+01 -4.8033E-01  5.1074E+01
                               -1.8125E-01  2.9169E+01 -3.7181E+01  2.5147E+03

           1    1.37001E+01     4.5656E-01 -1.6761E-02  6.7953E-01  8.1884E-01
ac ID =   33377                 1.0435E+00  5.0773E+01 -5.5433E-01  5.0787E+01
                               -1.7727E-01  2.9356E+01 -3.7047E+01  2.5147E+03

           1    1.38001E+01     4.3991E-01  1.3107E-02  6.7171E-01  8.0305E-01
ac ID =   33377                -3.0153E-01  5.0317E+01  2.6683E-01  5.0318E+01
                               -1.7323E-01  2.9545E+01 -3.6918E+01  2.5147E+03

           1    1.39001E+01     4.1994E-01  3.8567E-02  7.1775E-01  8.3247E-01
ac ID =   33377                -4.9147E-01  4.8366E+01  1.8833E-01  4.8369E+01
                               -1.6935E-01  2.9733E+01 -3.6793E+01  2.5147E+03

           1    1.40001E+01     4.1936E-01 -3.9579E-02  7.7919E-01  8.8576E-01
ac ID =   33377                 1.1507E+00  4.7282E+01 -5.2918E-01  4.7299E+01
                               -1.6541E-01  2.9922E+01 -3.6672E+01  2.5147E+03

           1    1.41001E+01     4.2277E-01  1.3320E-02  8.4497E-01  9.4493E-01
ac ID =   33377                -4.0700E-01  4.6980E+01 -1.7277E-01  4.6982E+01
                               -1.6149E-01  3.0111E+01 -3.6556E+01  2.5147E+03

           1    1.42001E+01     4.2830E-01  2.3614E-02  8.7397E-01  9.7356E-01
ac ID =   33377                -2.9779E-01  4.7034E+01 -6.9904E-02  4.7035E+01
                               -1.5765E-01  3.0300E+01 -3.6444E+01  2.5147E+03

           1    1.43001E+01     4.1359E-01 -1.6736E-02  8.8628E-01  9.7817E-01
ac ID =   33377                 5.4192E-01  4.6395E+01  6.9834E-01  4.6404E+01
                               -1.5384E-01  3.0490E+01 -3.6336E+01  2.5147E+03

           1    1.44001E+01     3.8025E-01 -7.3549E-03  8.8096E-01  9.5954E-01
ac ID =   33377                 4.7676E-01  4.4397E+01  5.2973E-01  4.4403E+01
                               -1.5001E-01  3.0679E+01 -3.6232E+01  2.5147E+03

           1    1.45000E+01     3.9307E-01  1.5446E-02  9.7820E-01  1.0543E+00
ac ID =   33377                -1.9027E-01  4.3960E+01  3.0398E-04  4.3961E+01
                               -1.4622E-01  3.0868E+01 -3.6133E+01  2.5147E+03

           1    1.46000E+01     3.5066E-01 -7.7612E-03  9.5312E-01  1.0156E+00
ac ID =   33377                 4.4778E-01  4.2454E+01 -2.7405E-01  4.2457E+01
                               -1.4251E-01  3.1056E+01 -3.6038E+01  2.5147E+03

           1    1.47000E+01     3.5763E-01 -2.4604E-02  9.6413E-01  1.0286E+00
ac ID =   33377                 9.2769E-01  4.1554E+01  2.9831E-01  4.1565E+01
                               -1.3878E-01  3.1245E+01 -3.5947E+01  2.5147E+03

           1    1.48005E+01     3.8629E-01  2.9665E-02  9.0090E-01  9.8067E-01
ac ID =   33377                -4.6680E-01  4.2438E+01  2.8386E-01  4.2442E+01
                               -1.3506E-01  3.1434E+01 -3.5859E+01  2.5147E+03

           1    1.49005E+01     3.7518E-01  3.0435E-03  9.0984E-01  9.8417E-01
ac ID =   33377                 3.7590E-02  4.2392E+01 -3.0174E-01  4.2393E+01
                               -1.3139E-01  3.1622E+01 -3.5776E+01  2.5147E+03

           1    1.50005E+01     3.6059E-01 -8.1918E-03  9.7538E-01  1.0399E+00
ac ID =   33377                 3.1267E-01  4.1800E+01 -1.1000E-01  4.1801E+01
                               -1.2779E-01  3.1809E+01 -3.5697E+01  2.5147E+03

           1    1.51005E+01     4.0512E-01  1.4290E-02  9.3896E-01  1.0227E+00
ac ID =   33377                -6.1658E-02  4.1616E+01 -2.7887E-01  4.1617E+01
                               -1.2425E-01  3.1996E+01 -3.5621E+01  2.5147E+03

           1    1.52005E+01     3.5324E-01  1.6305E-02  8.9170E-01  9.5926E-01
ac ID =   33377                -1.0163E-01  3.9588E+01 -1.0872E-01  3.9588E+01
                               -1.2070E-01  3.2182E+01 -3.5549E+01  2.5147E+03

           1    1.53005E+01     3.2809E-01 -1.1395E-02  8.7553E-01  9.3505E-01
ac ID =   33377                 6.9798E-01  3.7577E+01 -1.3310E-01  3.7584E+01
                               -1.1722E-01  3.2368E+01 -3.5481E+01  2.5147E+03

           1    1.54005E+01     3.2019E-01  1.2770E-02  8.9277E-01  9.4854E-01
ac ID =   33377                -2.2619E-01  3.6214E+01  2.5201E-01  3.6216E+01
                               -1.1384E-01  3.2553E+01 -3.5417E+01  2.5147E+03

           1    1.55004E+01     3.5159E-01 -1.6997E-03  9.0197E-01  9.6808E-01
ac ID =   33377                 3.7285E-01  3.6277E+01 -1.3822E-01  3.6279E+01
                               -1.1036E-01  3.2738E+01 -3.5356E+01  2.5147E+03

           1    1.56004E+01     3.1650E-01  2.9308E-03  8.2707E-01  8.8557E-01
ac ID =   33377                -1.8061E-01  3.4985E+01 -4.9658E-02  3.4986E+01
                               -1.0695E-01  3.2922E+01 -3.5298E+01  2.5147E+03

           1    1.57004E+01     3.5066E-01  2.1220E-02  7.7608E-01  8.5189E-01
ac ID =   33377                -4.7908E-01  3.4478E+01  2.0779E-01  3.4482E+01
                               -1.0370E-01  3.3105E+01 -3.5243E+01  2.5147E+03

           1    1.58004E+01     3.0319E-01  3.8485E-04  8.1325E-01  8.6793E-01
ac ID =   33377                -5.5743E-02  3.2711E+01 -9.9126E-02  3.2711E+01
                               -1.0041E-01  3.3288E+01 -3.5192E+01  2.5147E+03

           1    1.59004E+01     3.0937E-01  1.1295E-02  8.3846E-01  8.9379E-01
ac ID =   33377                -6.5813E-01  3.1441E+01 -5.7924E-02  3.1448E+01
                               -9.7065E-02  3.3470E+01 -3.5144E+01  2.5147E+03

           1    1.60004E+01     3.0815E-01  2.5189E-02  7.7661E-01  8.3589E-01
ac ID =   33377                -5.7543E-01  3.0749E+01 -3.9001E-01  3.0757E+01
                               -9.4012E-02  3.3651E+01 -3.5098E+01  2.5147E+03

           1    1.61004E+01     2.7272E-01  9.6081E-03  7.1503E-01  7.6533E-01
ac ID =   33377                -3.5667E-01  2.9903E+01 -9.7699E-02  2.9905E+01
                               -9.0838E-02  3.3832E+01 -3.5056E+01  2.5147E+03

           1    1.62004E+01     2.5599E-01  1.9922E-04  7.0417E-01  7.4925E-01
ac ID =   33377                 8.0611E-02  2.8355E+01  1.9302E-02  2.8355E+01
                               -8.7743E-02  3.4012E+01 -3.5016E+01  2.5147E+03

           1    1.63004E+01     2.5838E-01  3.2056E-02  7.1437E-01  7.6033E-01
ac ID =   33377                -7.7713E-01  2.7246E+01  4.1525E-01  2.7261E+01
                               -8.4794E-02  3.4191E+01 -3.4979E+01  2.5147E+03

           1    1.64004E+01     2.6697E-01  3.0748E-03  6.7721E-01  7.2794E-01
ac ID =   33377                -6.3000E-02  2.6041E+01  6.0725E-01  2.6048E+01
                               -8.1828E-02  3.4369E+01 -3.4944E+01  2.5147E+03

           1    1.65003E+01     2.5025E-01 -6.5255E-03  6.0631E-01  6.5596E-01
ac ID =   33377                -2.2232E-02  2.6024E+01 -1.4094E-01  2.6025E+01
                               -7.8867E-02  3.4547E+01 -3.4911E+01  2.5147E+03

           1    1.66003E+01     2.5249E-01  2.9548E-02  5.8861E-01  6.4116E-01
ac ID =   33377                -6.3483E-01  2.5313E+01 -3.6590E-01  2.5324E+01
                               -7.6033E-02  3.4723E+01 -3.4881E+01  2.5147E+03

           1    1.67003E+01     2.7440E-01  9.1906E-03  5.7484E-01  6.3704E-01
ac ID =   33377                -4.0199E-01  2.4819E+01  1.5875E-01  2.4822E+01
                               -7.3185E-02  3.4899E+01 -3.4853E+01  2.5147E+03

           1    1.68003E+01     2.5072E-01 -2.6097E-03  5.5369E-01  6.0781E-01
ac ID =   33377                -1.4342E-01  2.2730E+01  2.7794E-01  2.2732E+01
                               -7.0413E-02  3.5073E+01 -3.4827E+01  2.5147E+03

           1    1.69003E+01     2.2252E-01  1.0038E-02  5.3512E-01  5.7963E-01
ac ID =   33377                -4.9739E-01  2.1068E+01  1.4789E-01  2.1075E+01
                               -6.7741E-02  3.5247E+01 -3.4803E+01  2.5147E+03

           1    1.70003E+01     2.5810E-01  2.4904E-02  4.5854E-01  5.2678E-01
ac ID =   33377                -4.3676E-01  2.1218E+01  1.5818E-01  2.1223E+01
                               -6.5059E-02  3.5420E+01 -3.4781E+01  2.5147E+03

           1    1.71003E+01     2.5083E-01 -1.1703E-02  4.0463E-01  4.7621E-01
ac ID =   33377                 3.3273E-01  2.1125E+01  1.8346E-01  2.1128E+01
                               -6.2359E-02  3.5591E+01 -3.4760E+01  2.5147E+03

           1    1.72003E+01     2.0499E-01  1.1755E-03  3.6747E-01  4.2078E-01
ac ID =   33377                -1.0816E-01  2.0402E+01  3.3249E-01  2.0405E+01
                               -5.9755E-02  3.5762E+01 -3.4741E+01  2.5147E+03

           1    1.73003E+01     2.3340E-01  1.7121E-02  3.5757E-01  4.2735E-01
ac ID =   33377                -5.2749E-01  1.9710E+01  4.7333E-01  1.9723E+01
                               -5.7135E-02  3.5931E+01 -3.4724E+01  2.5147E+03

           1    1.74003E+01     2.7373E-01 -1.1907E-02  2.4101E-01  3.6490E-01
ac ID =   33377                 4.3590E-01  1.9559E+01  1.1899E-01  1.9564E+01
                               -5.4509E-02  3.6099E+01 -3.4708E+01  2.5147E+03

           1    1.75002E+01     2.7191E-01  2.0979E-02  1.6159E-01  3.1700E-01
ac ID =   33377                -4.7925E-01  1.9915E+01 -1.0424E-01  1.9921E+01
                               -5.1963E-02  3.6266E+01 -3.4692E+01  2.5147E+03

           1    1.76002E+01     2.2662E-01  1.5526E-02  2.0380E-01  3.0518E-01
ac ID =   33377                -6.4939E-01  1.8957E+01 -1.6627E-01  1.8969E+01
                               -4.9328E-02  3.6432E+01 -3.4679E+01  2.5147E+03

           1    1.77002E+01     2.3029E-01  2.4334E-04  2.2385E-01  3.2116E-01
ac ID =   33377                -2.1196E-01  1.7896E+01 -5.2634E-02  1.7897E+01
                               -4.6650E-02  3.6596E+01 -3.4666E+01  2.5147E+03

           1    1.78002E+01     3.1200E-01  1.5344E-02  1.0126E-01  3.2838E-01
ac ID =   33377                -6.9547E-01  1.8184E+01 -3.2603E-02  1.8197E+01
                               -4.4062E-02  3.6759E+01 -3.4654E+01  2.5147E+03

           1    1.79002E+01     2.6584E-01  6.7186E-03  2.4497E-03  2.6594E-01
ac ID =   33377                -5.0324E-01  1.6552E+01  1.5849E-01  1.6560E+01
                               -4.1456E-02  3.6921E+01 -3.4643E+01  2.5147E+03

           1    1.80002E+01     1.6877E-01 -1.0594E-02  5.7892E-02  1.7874E-01
ac ID =   33377                 1.0680E-01  1.4287E+01  1.4473E-01  1.4288E+01
                               -3.8966E-02  3.7082E+01 -3.4632E+01  2.5147E+03

           1    1.81002E+01     2.7603E-01  3.2541E-02  4.7392E-02  2.8196E-01
ac ID =   33377                -6.2830E-01  1.5945E+01 -2.8426E-01  1.5960E+01
                               -3.6549E-02  3.7241E+01 -3.4623E+01  2.5147E+03

           1    1.82002E+01     3.1448E-01  1.6754E-02 -3.3544E-02  3.1671E-01
ac ID =   33377                -6.1587E-01  1.6746E+01 -1.6160E-01  1.6758E+01
                               -3.3960E-02  3.7399E+01 -3.4613E+01  2.5147E+03

           1    1.83002E+01     1.9388E-01 -3.2138E-02 -1.0461E-01  2.2263E-01
ac ID =   33377                 3.9027E-01  1.4300E+01  1.2345E-01  1.4306E+01
                               -3.1400E-02  3.7556E+01 -3.4604E+01  2.5147E+03

           1    1.84002E+01     2.3960E-01  2.2346E-02 -1.3919E-01  2.7799E-01
ac ID =   33377                -5.6363E-01  1.3956E+01  1.0385E-01  1.3968E+01
                               -2.9114E-02  3.7711E+01 -3.4595E+01  2.5147E+03

           1    1.85001E+01     3.2777E-01  4.6774E-02 -1.1997E-01  3.5215E-01
ac ID =   33377                -1.5850E+00  1.3994E+01 -4.3807E-01  1.4090E+01
                               -2.6714E-02  3.7865E+01 -3.4587E+01  2.5147E+03

           1    1.86001E+01     2.2406E-01 -9.8892E-03 -1.4610E-01  2.6767E-01
ac ID =   33377                -2.2759E-01  1.1157E+01 -4.0115E-01  1.1166E+01
                               -2.4261E-02  3.8019E+01 -3.4579E+01  2.5147E+03

           1    1.87001E+01     2.0946E-01 -1.2106E-02 -2.6648E-01  3.3916E-01
ac ID =   33377                 2.4352E-02  1.0175E+01  1.6140E-01  1.0177E+01
                               -2.1913E-02  3.8170E+01 -3.4570E+01  2.5147E+03

           1    1.88001E+01     2.9832E-01  3.3663E-02 -3.0549E-01  4.2831E-01
ac ID =   33377                -1.2803E+00  1.1015E+01  5.3119E-01  1.1102E+01
                               -1.9624E-02  3.8321E+01 -3.4562E+01  2.5147E+03

           1    1.89001E+01     2.4450E-01  1.9893E-02 -2.7895E-01  3.7147E-01
ac ID =   33377                -8.8317E-01  9.4883E+00  6.5194E-01  9.5516E+00
                               -1.7423E-02  3.8470E+01 -3.4553E+01  2.5147E+03

           1    1.90001E+01     2.1571E-01 -1.7700E-02 -3.1270E-01  3.8030E-01
ac ID =   33377                 3.5403E-01  8.5530E+00 -3.1393E-01  8.5661E+00
                               -1.5183E-02  3.8618E+01 -3.4544E+01  2.5147E+03

           1    1.91001E+01     2.6415E-01  6.1009E-03 -3.8495E-01  4.6690E-01
ac ID =   33377                -7.8689E-01  9.1237E+00 -5.7969E-01  9.1759E+00
                               -1.2849E-02  3.8764E+01 -3.4535E+01  2.5147E+03

           1    1.92001E+01     2.7089E-01  2.0722E-02 -4.3648E-01  5.1413E-01
ac ID =   33377                -7.8873E-01  8.7244E+00 -1.9041E-01  8.7620E+00
                               -1.0735E-02  3.8910E+01 -3.4525E+01  2.5147E+03

           1    1.93001E+01     1.9311E-01  6.9459E-03 -4.0384E-01  4.4769E-01
ac ID =   33377                -2.9941E-01  6.4169E+00  2.7005E-01  6.4295E+00
                               -8.6615E-03  3.9054E+01 -3.4515E+01  2.5147E+03

           1    1.94001E+01     2.1423E-01  8.8637E-03 -3.9365E-01  4.4825E-01
ac ID =   33377                -1.0067E+00  5.1684E+00  7.5727E-02  5.2661E+00
                               -6.3716E-03  3.9197E+01 -3.4504E+01  2.5147E+03

           1    1.95000E+01     2.6677E-01  1.6410E-02 -5.0900E-01  5.7491E-01
ac ID =   33377                -1.3608E+00  5.3068E+00 -4.1756E-01  5.4944E+00
                               -4.2716E-03  3.9338E+01 -3.4491E+01  2.5147E+03

           1    1.96000E+01     1.9629E-01  5.4528E-03 -5.2676E-01  5.6217E-01
ac ID =   33377                -5.9945E-01  3.1700E+00 -1.8044E-01  3.2312E+00
                               -2.2393E-03  3.9477E+01 -3.4478E+01  2.5147E+03

           1    1.97005E+01     2.3496E-01  1.6972E-03 -5.1714E-01  5.6802E-01
ac ID =   33377                -6.6402E-01  3.4789E+00  2.2171E-03  3.5417E+00
                               -1.5825E-04  3.9616E+01 -3.4464E+01  2.5147E+03

           1    1.98005E+01     3.0087E-01  2.0371E-02 -5.7633E-01  6.5045E-01
ac ID =   33377                -1.0745E+00  5.0917E+00  3.6594E-01  5.2167E+00
                                1.7928E-03  3.9753E+01 -3.4449E+01  2.5147E+03

           1    1.99005E+01     2.3799E-01  8.3358E-03 -5.8339E-01  6.3012E-01
ac ID =   33377                -5.2599E-01  3.5078E+00  2.2883E-01  3.5544E+00
                                3.7562E-03  3.9889E+01 -3.4433E+01  2.5147E+03

           1    2.00005E+01     1.7531E-01 -7.6043E-03 -5.9900E-01  6.2417E-01
ac ID =   33377                -8.4463E-02  1.3404E+00 -4.8906E-01  1.4294E+00
                                5.7552E-03  4.0024E+01 -3.4416E+01  2.5147E+03

           1    2.01005E+01     2.0825E-01  3.4151E-03 -5.9987E-01  6.3500E-01
ac ID =   33377                -5.0376E-01 -5.4249E-02 -7.6434E-01  9.1703E-01
                                7.7330E-03  4.0157E+01 -3.4397E+01  2.5147E+03

           1    2.02005E+01     2.8276E-01  1.6630E-02 -6.4380E-01  7.0336E-01
ac ID =   33377                -9.1943E-01 -8.6630E-01 -7.2904E-02  1.2654E+00
                                9.6583E-03  4.0288E+01 -3.4377E+01  2.5147E+03

           1    2.03005E+01     2.3816E-01 -2.5993E-03 -7.2862E-01  7.6656E-01
ac ID =   33377                -4.2520E-01 -1.7616E+00  8.4573E-02  1.8142E+00
                                1.1622E-02  4.0419E+01 -3.4356E+01  2.5147E+03

           1    2.04005E+01     1.4198E-01  5.9288E-03 -6.5823E-01  6.7339E-01
ac ID =   33377                -7.5862E-01 -4.1534E+00  3.4756E-01  4.2364E+00
                                1.3527E-02  4.0549E+01 -3.4333E+01  2.5147E+03

           1    2.05004E+01     2.7741E-01  8.2953E-03 -6.3526E-01  6.9324E-01
ac ID =   33377                -6.9891E-01 -2.4045E+00  3.4039E-01  2.5270E+00
                                1.5427E-02  4.0677E+01 -3.4309E+01  2.5147E+03

           1    2.06004E+01     3.1120E-01  2.1819E-02 -7.4539E-01  8.0804E-01
ac ID =   33377                -1.1377E+00 -1.7621E+00  3.7577E-02  2.0978E+00
                                1.7311E-02  4.0804E+01 -3.4283E+01  2.5147E+03

           1    2.07004E+01     1.2341E-01 -6.4729E-03 -7.1777E-01  7.2833E-01
ac ID =   33377                -4.4720E-01 -5.8028E+00  6.8855E-02  5.8204E+00
                                1.9209E-02  4.0931E+01 -3.4256E+01  2.5147E+03

           1    2.08004E+01     1.8603E-01  2.0739E-03 -6.2379E-01  6.5094E-01
ac ID =   33377                -3.9013E-01 -6.2942E+00  2.7018E-01  6.3120E+00
                                2.1031E-02  4.1056E+01 -3.4227E+01  2.5147E+03

           1    2.09004E+01     3.6419E-01  1.8090E-02 -7.0466E-01  7.9342E-01
ac ID =   33377                -6.5247E-01 -4.1004E+00 -2.2073E-02  4.1521E+00
                                2.2822E-02  4.1180E+01 -3.4197E+01  2.5147E+03

           1    2.10004E+01     1.3651E-01  4.5113E-03 -7.2436E-01  7.3713E-01
ac ID =   33377                -5.7844E-01 -8.4689E+00 -4.0856E-01  8.4985E+00
                                2.4644E-02  4.1304E+01 -3.4164E+01  2.5147E+03

           1    2.11004E+01     5.1374E-02 -9.4146E-03 -6.6964E-01  6.7167E-01
ac ID =   33377                -2.2978E-01 -1.1559E+01 -2.7528E-01  1.1564E+01
                                2.6441E-02  4.1427E+01 -3.4131E+01  2.5147E+03

           1    2.12004E+01     3.0895E-01  1.6266E-02 -6.6906E-01  7.3712E-01
ac ID =   33377                -8.4885E-01 -7.9781E+00 -1.1449E-02  8.0232E+00
                                2.8204E-02  4.1548E+01 -3.4096E+01  2.5147E+03

           1    2.13004E+01     2.3735E-01  2.7999E-02 -6.4799E-01  6.9066E-01
ac ID =   33377                -1.1123E+00 -9.3931E+00  3.6186E-01  9.4657E+00
                                2.9903E-02  4.1670E+01 -3.4059E+01  2.5147E+03

           1    2.14004E+01     1.0348E-01 -2.7739E-03 -7.0273E-01  7.1031E-01
ac ID =   33377                -4.8787E-01 -1.1859E+01  3.7390E-01  1.1875E+01
                                3.1639E-02  4.1791E+01 -3.4021E+01  2.5147E+03

           1    2.15003E+01     2.2839E-01  5.7414E-03 -7.0391E-01  7.4006E-01
ac ID =   33377                -7.0304E-01 -9.8259E+00 -4.3147E-01  9.8604E+00
                                3.3260E-02  4.1911E+01 -3.3981E+01  2.5147E+03

           1    2.16003E+01     2.4701E-01  1.9521E-02 -6.1241E-01  6.6063E-01
ac ID =   33377                -8.2055E-01 -1.1209E+01 -4.6171E-01  1.1248E+01
                                3.4856E-02  4.2030E+01 -3.3940E+01  2.5147E+03

           1    2.17003E+01     9.8067E-02  5.4504E-03 -6.3096E-01  6.3856E-01
ac ID =   33377                -1.7196E-01 -1.4961E+01 -2.4863E-01  1.4964E+01
                                3.6409E-02  4.2149E+01 -3.3897E+01  2.5147E+03

           1    2.18003E+01     1.4547E-01 -9.4302E-03 -6.8047E-01  6.9591E-01
ac ID =   33377                 7.5088E-02 -1.4557E+01 -1.5724E-01  1.4558E+01
                                3.8045E-02  4.2267E+01 -3.3852E+01  2.5147E+03

           1    2.19003E+01     2.3488E-01  1.6171E-02 -6.4829E-01  6.8972E-01
ac ID =   33377                -3.5375E-01 -1.3141E+01 -2.3324E-03  1.3146E+01
                                3.9570E-02  4.2385E+01 -3.3806E+01  2.5147E+03

           1    2.20003E+01     1.8426E-01  8.0826E-03 -6.1307E-01  6.4021E-01
ac ID =   33377                -4.3809E-01 -1.3576E+01  5.3420E-03  1.3583E+01
                                4.1108E-02  4.2502E+01 -3.3758E+01  2.5147E+03

           1    2.21003E+01     1.6639E-01 -9.7695E-03 -5.9640E-01  6.1926E-01
ac ID =   33377                 8.0631E-02 -1.3554E+01 -2.0082E-01  1.3556E+01
                                4.2673E-02  4.2619E+01 -3.3709E+01  2.5147E+03

           1    2.22003E+01     1.8172E-01  2.5079E-03 -5.5625E-01  5.8519E-01
ac ID =   33377                -2.7540E-01 -1.4261E+01  1.5363E-01  1.4265E+01
                                4.4223E-02  4.2736E+01 -3.3658E+01  2.5147E+03

           1    2.23003E+01     2.1816E-01  1.9744E-02 -5.3535E-01  5.7843E-01
ac ID =   33377                -6.2680E-01 -1.4696E+01  3.1050E-01  1.4713E+01
                                4.5733E-02  4.2852E+01 -3.3606E+01  2.5147E+03

           1    2.24003E+01     1.9853E-01 -2.0924E-03 -5.3823E-01  5.7368E-01
ac ID =   33377                -6.4094E-02 -1.5260E+01 -5.7118E-02  1.5261E+01
                                4.7302E-02  4.2967E+01 -3.3553E+01  2.5147E+03

           1    2.25002E+01     1.6652E-01 -1.2361E-02 -4.9416E-01  5.2160E-01
ac ID =   33377                 3.3491E-02 -1.5785E+01 -2.8668E-01  1.5788E+01
                                4.8871E-02  4.3083E+01 -3.3498E+01  2.5147E+03

           1    2.26002E+01     1.7889E-01  2.7350E-02 -4.4549E-01  4.8085E-01
ac ID =   33377                -5.1690E-01 -1.5980E+01 -6.8438E-01  1.6003E+01
                                5.0323E-02  4.3197E+01 -3.3442E+01  2.5147E+03

           1    2.27002E+01     1.8580E-01 -9.6873E-03 -4.3375E-01  4.7197E-01
ac ID =   33377                 3.0039E-01 -1.6559E+01 -5.5082E-01  1.6571E+01
                                5.1866E-02  4.3312E+01 -3.3385E+01  2.5147E+03

           1    2.28002E+01     1.9528E-01 -5.0507E-03 -4.3871E-01  4.8024E-01
ac ID =   33377                 1.8058E-01 -1.6774E+01 -9.7515E-02  1.6776E+01
                                5.3409E-02  4.3427E+01 -3.3327E+01  2.5147E+03

           1    2.29002E+01     1.2032E-01  6.1507E-03 -4.0954E-01  4.2689E-01
ac ID =   33377                -3.4373E-01 -1.8479E+01  9.2319E-03  1.8482E+01
                                5.4898E-02  4.3541E+01 -3.3268E+01  2.5147E+03

           1    2.30002E+01     1.7406E-01  7.8404E-03 -3.3995E-01  3.8200E-01
ac ID =   33377                -1.7906E-01 -1.8576E+01 -1.1933E-01  1.8577E+01
                                5.6435E-02  4.3655E+01 -3.3208E+01  2.5147E+03

           1    2.31002E+01     1.8194E-01 -6.3161E-03 -3.4183E-01  3.8729E-01
ac ID =   33377                -8.6036E-02 -1.9202E+01 -3.0375E-01  1.9205E+01
                                5.7988E-02  4.3769E+01 -3.3147E+01  2.5147E+03

           1    2.32002E+01     9.3533E-02  4.0083E-03 -3.8720E-01  3.9835E-01
ac ID =   33377                -3.2898E-01 -2.1798E+01 -4.5080E-01  2.1806E+01
                                5.9471E-02  4.3883E+01 -3.3085E+01  2.5147E+03

           1    2.33002E+01     9.3993E-02  2.4287E-02 -3.5216E-01  3.6530E-01
ac ID =   33377                -8.5000E-01 -2.3249E+01 -4.0045E-01  2.3268E+01
                                6.0943E-02  4.3998E+01 -3.3022E+01  2.5147E+03

           1    2.34002E+01     8.3988E-02 -5.2621E-03 -2.7682E-01  2.8933E-01
ac ID =   33377                 1.2521E-01 -2.4581E+01 -2.5925E-01  2.4583E+01
                                6.2438E-02  4.4112E+01 -3.2958E+01  2.5147E+03

           1    2.35001E+01     5.6320E-02  1.1984E-03 -2.8306E-01  2.8861E-01
ac ID =   33377                 2.1242E-02 -2.6026E+01 -4.2994E-01  2.6029E+01
                                6.3856E-02  4.4227E+01 -3.2894E+01  2.5147E+03

           1    2.36001E+01     1.5380E-02  1.2263E-02 -2.9845E-01  2.9910E-01
ac ID =   33377                -1.7115E-01 -2.8100E+01 -2.8528E-01  2.8102E+01
                                6.5296E-02  4.4342E+01 -3.2827E+01  2.5147E+03

           1    2.37001E+01     3.3586E-03 -4.1446E-03 -2.8113E-01  2.8118E-01
ac ID =   33377                 4.4164E-01 -2.9053E+01 -5.2993E-02  2.9056E+01
                                6.6718E-02  4.4457E+01 -3.2761E+01  2.5147E+03

           1    2.38001E+01    -3.0878E-03 -8.8605E-03 -2.2633E-01  2.2652E-01
ac ID =   33377                 5.1576E-01 -3.0153E+01 -7.9772E-02  3.0158E+01
                                6.8114E-02  4.4574E+01 -3.2693E+01  2.5147E+03

           1    2.39001E+01    -3.5680E-02  1.0295E-02 -1.4420E-01  1.4891E-01
ac ID =   33377                -8.0528E-02 -3.1555E+01  2.1664E-01  3.1556E+01
                                6.9506E-02  4.4691E+01 -3.2625E+01  2.5147E+03

           1    2.40001E+01    -3.3032E-02  7.7968E-03 -1.2876E-01  1.3316E-01
ac ID =   33377                -2.3990E-01 -3.1683E+01  6.8482E-02  3.1684E+01
                                7.0854E-02  4.4808E+01 -3.2556E+01  2.5147E+03

           1    2.41001E+01    -4.2359E-02 -2.9409E-03 -1.4786E-01  1.5383E-01
ac ID =   33377                -8.0014E-02 -3.2360E+01 -3.7423E-01  3.2362E+01
                                7.2151E-02  4.4926E+01 -3.2486E+01  2.5147E+03

           1    2.42001E+01    -5.9014E-02  1.2903E-02 -6.2558E-02  8.6964E-02
ac ID =   33377                -7.2555E-01 -3.3369E+01 -4.6621E-01  3.3380E+01
                                7.3479E-02  4.5045E+01 -3.2416E+01  2.5147E+03

           1    2.43001E+01    -5.2837E-02  1.0838E-02  3.2218E-02  6.2827E-02
ac ID =   33377                -4.3651E-01 -3.4211E+01 -5.5308E-02  3.4213E+01
                                7.4703E-02  4.5165E+01 -3.2345E+01  2.5147E+03

           1    2.44001E+01    -5.3545E-02 -2.4099E-03  1.8112E-02  5.6577E-02
ac ID =   33377                 1.3254E-01 -3.5061E+01  2.5082E-01  3.5063E+01
                                7.5888E-02  4.5285E+01 -3.2273E+01  2.5147E+03

           1    2.45005E+01    -4.8639E-02  1.3092E-02  1.6513E-03  5.0397E-02
ac ID =   33377                -4.1318E-01 -3.5029E+01  6.9919E-01  3.5038E+01
                                7.7114E-02  4.5406E+01 -3.2201E+01  2.5147E+03

           1    2.46005E+01    -4.0348E-02  1.0136E-02  8.1318E-02  9.1342E-02
ac ID =   33377                -4.5603E-01 -3.4771E+01  8.8230E-01  3.4785E+01
                                7.8360E-02  4.5528E+01 -3.2129E+01  2.5147E+03

           1    2.47005E+01    -4.1553E-02 -1.1201E-02  1.6582E-01  1.7131E-01
ac ID =   33377                -2.0445E-02 -3.4620E+01  5.7502E-01  3.4625E+01
                                7.9469E-02  4.5650E+01 -3.2057E+01  2.5147E+03

           1    2.48005E+01    -4.0175E-02  2.4533E-02  1.6716E-01  1.7367E-01
ac ID =   33377                -4.2325E-01 -3.3804E+01  5.7136E-01  3.3811E+01
                                8.0490E-02  4.5773E+01 -3.1985E+01  2.5147E+03

           1    2.49005E+01    -4.4381E-02  2.9322E-02  1.5161E-01  1.6067E-01
ac ID =   33377                -7.9322E-01 -3.4784E+01  7.0344E-01  3.4800E+01
                                8.1545E-02  4.5897E+01 -3.1912E+01  2.5147E+03

