 LSTC 50th% Full_FE H-III Dummy (Beta Version, February 17, 2019)        
                    ls-dyna smp s R16 R16.0_619_d222963 date 03/18/2025

{BEGIN LEGEND}
 Entity #        Title
    22626                                                                                     
{END LEGEND}




 n o d a l   p r i n t   o u t   f o r   t i m e  s t e p       1                              ( at time 0.0000000E+00 )

 nodal point  x-disp     y-disp      z-disp      x-vel       y-vel       z-vel      x-accl      y-accl      z-accl      x-coor      y-coor      z-coor
    22626  0.00000E+00 0.00000E+00 0.00000E+00 0.00000E+00 0.00000E+00 0.00000E+00 0.00000E+00 0.00000E+00 0.00000E+00 4.65938E+00-2.81908E+01-4.49817E+01



 n o d a l   p r i n t   o u t   f o r   t i m e  s t e p       1                              ( at time 0.0000000E+00 )

 nodal point  x-rot      y-rot       z-rot       x-rot vel   y-rot vel   z-rot vel   x-rot acc   y-rot acc   z-rot acc
    22626  0.00000E+00 0.00000E+00 0.00000E+00 0.00000E+00 0.00000E+00 0.00000E+00 0.00000E+00 0.00000E+00 0.00000E+00



 n o d a l   p r i n t   o u t   f o r   t i m e  s t e p     201                              ( at time 9.9989993E-02 )

 nodal point  x-disp     y-disp      z-disp      x-vel       y-vel       z-vel      x-accl      y-accl      z-accl      x-coor      y-coor      z-coor
    22626  2.73575E-07 1.73669E-06-5.34278E-05 4.19752E-05 2.55596E-04-1.46819E-03 4.19794E-04 2.55621E-03-1.46834E-02 4.65938E+00-2.81908E+01-4.49818E+01



 n o d a l   p r i n t   o u t   f o r   t i m e  s t e p     201                              ( at time 9.9989993E-02 )

 nodal point  x-rot      y-rot       z-rot       x-rot vel   y-rot vel   z-rot vel   x-rot acc   y-rot acc   z-rot acc
    22626 -5.98981E-08-8.38467E-09-5.45921E-09-5.86955E-06-9.69950E-07-9.27111E-07-5.87014E-05-9.70047E-06-9.27203E-06



 n o d a l   p r i n t   o u t   f o r   t i m e  s t e p     401                              ( at time 1.9997999E-01 )

 nodal point  x-disp     y-disp      z-disp      x-vel       y-vel       z-vel      x-accl      y-accl      z-accl      x-coor      y-coor      z-coor
    22626  1.73083E-05 3.61745E-04-6.67597E-04 3.00294E-05 7.81047E-03-1.21530E-02-1.19470E-04 7.55563E-02-1.06859E-01 4.65939E+00-2.81905E+01-4.49824E+01



 n o d a l   p r i n t   o u t   f o r   t i m e  s t e p     401                              ( at time 1.9997999E-01 )

 nodal point  x-rot      y-rot       z-rot       x-rot vel   y-rot vel   z-rot vel   x-rot acc   y-rot acc   z-rot acc
    22626 -2.82001E-06-3.37123E-07-3.34529E-07-3.93727E-05-1.75018E-06-2.28366E-06-3.35065E-04-7.80303E-06-1.35668E-05



 n o d a l   p r i n t   o u t   f o r   t i m e  s t e p     601                              ( at time 2.9996998E-01 )

 nodal point  x-disp     y-disp      z-disp      x-vel       y-vel       z-vel      x-accl      y-accl      z-accl      x-coor      y-coor      z-coor
    22626  2.74010E-05 1.23976E-03-2.33841E-03 4.23698E-04 8.43998E-03-1.92560E-02 3.93708E-03 6.29571E-03-7.10369E-02 4.65940E+00-2.81896E+01-4.49841E+01



 n o d a l   p r i n t   o u t   f o r   t i m e  s t e p     601                              ( at time 2.9996998E-01 )

 nodal point  x-rot      y-rot       z-rot       x-rot vel   y-rot vel   z-rot vel   x-rot acc   y-rot acc   z-rot acc
    22626 -5.38121E-06-3.90757E-07-6.42738E-07-1.52521E-05-5.51892E-06-6.70441E-06 2.41230E-04-3.76913E-05-4.42120E-05



 n o d a l   p r i n t   o u t   f o r   t i m e  s t e p     801                              ( at time 3.9995997E-01 )

 nodal point  x-disp     y-disp      z-disp      x-vel       y-vel       z-vel      x-accl      y-accl      z-accl      x-coor      y-coor      z-coor
    22626  2.61506E-05 2.15800E-03-4.28208E-03-3.13613E-04 1.06582E-02-2.10730E-02-7.37384E-03 2.21843E-02-1.81717E-02 4.65940E+00-2.81887E+01-4.49860E+01



 n o d a l   p r i n t   o u t   f o r   t i m e  s t e p     801                              ( at time 3.9995997E-01 )

 nodal point  x-rot      y-rot       z-rot       x-rot vel   y-rot vel   z-rot vel   x-rot acc   y-rot acc   z-rot acc
    22626 -7.55409E-06-1.25205E-06-9.77962E-07-4.34941E-05-6.23911E-06-1.42295E-06-2.82448E-04-7.20257E-06 5.28198E-05



 n o d a l   p r i n t   o u t   f o r   t i m e  s t e p    1001                              ( at time 4.9994997E-01 )

 nodal point  x-disp     y-disp      z-disp      x-vel       y-vel       z-vel      x-accl      y-accl      z-accl      x-coor      y-coor      z-coor
    22626  2.91257E-06 3.41982E-03-6.73904E-03-2.63682E-04 1.39983E-02-2.85992E-02 4.99353E-04 3.34047E-02-7.52699E-02 4.65938E+00-2.81874E+01-4.49885E+01



 n o d a l   p r i n t   o u t   f o r   t i m e  s t e p    1001                              ( at time 4.9994997E-01 )

 nodal point  x-rot      y-rot       z-rot       x-rot vel   y-rot vel   z-rot vel   x-rot acc   y-rot acc   z-rot acc
    22626 -1.31817E-05-1.18757E-06-9.28519E-07-7.95563E-05 2.79951E-06 4.57912E-06-3.60659E-04 9.03953E-05 6.00267E-05



 n o d a l   p r i n t   o u t   f o r   t i m e  s t e p    1201                              ( at time 5.9993996E-01 )

 nodal point  x-disp     y-disp      z-disp      x-vel       y-vel       z-vel      x-accl      y-accl      z-accl      x-coor      y-coor      z-coor
    22626 -2.87386E-06 4.97276E-03-9.69658E-03 3.62077E-05 1.63620E-02-3.08695E-02 2.99920E-03 2.36395E-02-2.27046E-02 4.65937E+00-2.81859E+01-4.49914E+01



 n o d a l   p r i n t   o u t   f o r   t i m e  s t e p    1201                              ( at time 5.9993996E-01 )

 nodal point  x-rot      y-rot       z-rot       x-rot vel   y-rot vel   z-rot vel   x-rot acc   y-rot acc   z-rot acc
    22626 -1.93177E-05-9.50609E-07-8.87756E-07-5.18739E-05 3.54819E-06-1.47210E-06 2.76851E-04 7.48757E-06-6.05182E-05



 n o d a l   p r i n t   o u t   f o r   t i m e  s t e p    1401                              ( at time 6.9992995E-01 )

 nodal point  x-disp     y-disp      z-disp      x-vel       y-vel       z-vel      x-accl      y-accl      z-accl      x-coor      y-coor      z-coor
    22626 -5.38560E-05 6.77524E-03-1.31425E-02-4.92350E-04 1.93128E-02-3.88670E-02-5.28610E-03 2.95104E-02-7.99831E-02 4.65932E+00-2.81841E+01-4.49949E+01



 n o d a l   p r i n t   o u t   f o r   t i m e  s t e p    1401                              ( at time 6.9992995E-01 )

 nodal point  x-rot      y-rot       z-rot       x-rot vel   y-rot vel   z-rot vel   x-rot acc   y-rot acc   z-rot acc
    22626 -2.44081E-05-1.00494E-06-5.13702E-07-6.11543E-05-2.72443E-07 4.33678E-06-9.28125E-05-3.82102E-05 5.80945E-05



 n o d a l   p r i n t   o u t   f o r   t i m e  s t e p    1601                              ( at time 7.9991994E-01 )

 nodal point  x-disp     y-disp      z-disp      x-vel       y-vel       z-vel      x-accl      y-accl      z-accl      x-coor      y-coor      z-coor
    22626 -8.42998E-05 8.86670E-03-1.74141E-02-4.94084E-04 2.16028E-02-4.47656E-02-1.73383E-05 2.29029E-02-5.89923E-02 4.65929E+00-2.81820E+01-4.49991E+01



 n o d a l   p r i n t   o u t   f o r   t i m e  s t e p    1601                              ( at time 7.9991994E-01 )

 nodal point  x-rot      y-rot       z-rot       x-rot vel   y-rot vel   z-rot vel   x-rot acc   y-rot acc   z-rot acc
    22626 -3.13491E-05-1.05253E-06-3.06520E-07-7.62490E-05-5.31809E-06 2.55834E-06-1.50963E-04-5.04615E-05-1.77862E-05



 n o d a l   p r i n t   o u t   f o r   t i m e  s t e p    1801                              ( at time 8.9990994E-01 )

 nodal point  x-disp     y-disp      z-disp      x-vel       y-vel       z-vel      x-accl      y-accl      z-accl      x-coor      y-coor      z-coor
    22626 -1.20450E-04 1.10628E-02-2.18970E-02-3.07024E-04 2.31935E-02-4.51240E-02 1.87079E-03 1.59085E-02-3.58420E-03 4.65925E+00-2.81798E+01-4.50036E+01



 n o d a l   p r i n t   o u t   f o r   t i m e  s t e p    1801                              ( at time 8.9990994E-01 )

 nodal point  x-rot      y-rot       z-rot       x-rot vel   y-rot vel   z-rot vel   x-rot acc   y-rot acc   z-rot acc
    22626 -3.78400E-05-1.15837E-06-1.82782E-07-6.03062E-05 1.51611E-06 8.47072E-07 1.59444E-04 6.83489E-05-1.71144E-05



 n o d a l   p r i n t   o u t   f o r   t i m e  s t e p    2001                              ( at time 9.9989993E-01 )

 nodal point  x-disp     y-disp      z-disp      x-vel       y-vel       z-vel      x-accl      y-accl      z-accl      x-coor      y-coor      z-coor
    22626 -1.55716E-04 1.35060E-02-2.65911E-02-2.25265E-05 2.55031E-02-4.95348E-02 2.84526E-03 2.30983E-02-4.41121E-02 4.65922E+00-2.81773E+01-4.50083E+01



 n o d a l   p r i n t   o u t   f o r   t i m e  s t e p    2001                              ( at time 9.9989993E-01 )

 nodal point  x-rot      y-rot       z-rot       x-rot vel   y-rot vel   z-rot vel   x-rot acc   y-rot acc   z-rot acc
    22626 -4.43657E-05-1.20611E-06 3.89674E-08-7.80995E-05-5.70450E-08-1.58681E-06-1.77950E-04-1.57331E-05-2.43412E-05



 n o d a l   p r i n t   o u t   f o r   t i m e  s t e p    2201                              ( at time 1.0998899E+00 )

 nodal point  x-disp     y-disp      z-disp      x-vel       y-vel       z-vel      x-accl      y-accl      z-accl      x-coor      y-coor      z-coor
    22626 -1.65102E-04 1.61363E-02-3.18613E-02-3.54208E-04 2.76101E-02-5.54720E-02-3.31715E-03 2.10721E-02-5.93785E-02 4.65921E+00-2.81747E+01-4.50136E+01



 n o d a l   p r i n t   o u t   f o r   t i m e  s t e p    2201                              ( at time 1.0998899E+00 )

 nodal point  x-rot      y-rot       z-rot       x-rot vel   y-rot vel   z-rot vel   x-rot acc   y-rot acc   z-rot acc
    22626 -5.22920E-05-1.44642E-06-7.89160E-08-6.81755E-05-8.70409E-06 2.21616E-07 9.92497E-05-8.64792E-05 1.80861E-05



 n o d a l   p r i n t   o u t   f o r   t i m e  s t e p    2401                              ( at time 1.1998799E+00 )

 nodal point  x-disp     y-disp      z-disp      x-vel       y-vel       z-vel      x-accl      y-accl      z-accl      x-coor      y-coor      z-coor
    22626 -1.94162E-04 1.89426E-02-3.76659E-02-1.85729E-04 2.87725E-02-6.03296E-02 1.68496E-03 1.16244E-02-4.85802E-02 4.65918E+00-2.81719E+01-4.50194E+01



 n o d a l   p r i n t   o u t   f o r   t i m e  s t e p    2401                              ( at time 1.1998799E+00 )

 nodal point  x-rot      y-rot       z-rot       x-rot vel   y-rot vel   z-rot vel   x-rot acc   y-rot acc   z-rot acc
    22626 -5.83614E-05-2.19964E-06-9.87378E-08-5.77704E-05-8.74417E-06-6.85949E-07 1.04061E-04-4.00818E-07-9.07655E-06



 n o d a l   p r i n t   o u t   f o r   t i m e  s t e p    2601                              ( at time 1.2998699E+00 )

 nodal point  x-disp     y-disp      z-disp      x-vel       y-vel       z-vel      x-accl      y-accl      z-accl      x-coor      y-coor      z-coor
    22626 -2.24234E-04 2.19289E-02-4.38376E-02-2.21167E-04 3.07764E-02-6.29079E-02-3.54420E-04 2.00417E-02-2.57856E-02 4.65915E+00-2.81689E+01-4.50256E+01



 n o d a l   p r i n t   o u t   f o r   t i m e  s t e p    2601                              ( at time 1.2998699E+00 )

 nodal point  x-rot      y-rot       z-rot       x-rot vel   y-rot vel   z-rot vel   x-rot acc   y-rot acc   z-rot acc
    22626 -6.46115E-05-2.86625E-06-1.32711E-07-7.70370E-05-1.57013E-06 1.11520E-06-1.92685E-04 7.17476E-05 1.80133E-05



 n o d a l   p r i n t   o u t   f o r   t i m e  s t e p    2801                              ( at time 1.3998599E+00 )

 nodal point  x-disp     y-disp      z-disp      x-vel       y-vel       z-vel      x-accl      y-accl      z-accl      x-coor      y-coor      z-coor
    22626 -2.51561E-04 2.51024E-02-5.02257E-02-4.18718E-04 3.24659E-02-6.55217E-02-1.97571E-03 1.68968E-02-2.61413E-02 4.65912E+00-2.81657E+01-4.50319E+01



 n o d a l   p r i n t   o u t   f o r   t i m e  s t e p    2801                              ( at time 1.3998599E+00 )

 nodal point  x-rot      y-rot       z-rot       x-rot vel   y-rot vel   z-rot vel   x-rot acc   y-rot acc   z-rot acc
    22626 -7.23742E-05-2.95547E-06 1.00597E-07-7.59686E-05-3.15499E-06 4.81642E-06 1.06857E-05-1.58502E-05 3.70159E-05



 n o d a l   p r i n t   o u t   f o r   t i m e  s t e p    3001                              ( at time 1.4998499E+00 )

 nodal point  x-disp     y-disp      z-disp      x-vel       y-vel       z-vel      x-accl      y-accl      z-accl      x-coor      y-coor      z-coor
    22626 -2.94117E-04 2.84888E-02-5.71210E-02-4.24314E-04 3.50729E-02-7.27230E-02-5.59583E-05 2.60722E-02-7.20193E-02 4.65908E+00-2.81623E+01-4.50388E+01



 n o d a l   p r i n t   o u t   f o r   t i m e  s t e p    3001                              ( at time 1.4998499E+00 )

 nodal point  x-rot      y-rot       z-rot       x-rot vel   y-rot vel   z-rot vel   x-rot acc   y-rot acc   z-rot acc
    22626 -7.91729E-05-3.27275E-06 4.74474E-07-5.92419E-05-4.16058E-06 1.51024E-06 1.67284E-04-1.00569E-05-3.30652E-05



 n o d a l   p r i n t   o u t   f o r   t i m e  s t e p    3201                              ( at time 1.5998399E+00 )

 nodal point  x-disp     y-disp      z-disp      x-vel       y-vel       z-vel      x-accl      y-accl      z-accl      x-coor      y-coor      z-coor
    22626 -3.52807E-04 3.21566E-02-6.46971E-02-5.36078E-04 3.81318E-02-7.80272E-02-1.11775E-03 3.05920E-02-5.30475E-02 4.65902E+00-2.81587E+01-4.50464E+01



 n o d a l   p r i n t   o u t   f o r   t i m e  s t e p    3201                              ( at time 1.5998399E+00 )

 nodal point  x-rot      y-rot       z-rot       x-rot vel   y-rot vel   z-rot vel   x-rot acc   y-rot acc   z-rot acc
    22626 -8.45193E-05-3.67408E-06 9.58711E-07-5.75395E-05-5.51116E-06 6.23572E-06 1.70255E-05-1.35072E-05 4.72596E-05



 n o d a l   p r i n t   o u t   f o r   t i m e  s t e p    3401                              ( at time 1.6998299E+00 )

 nodal point  x-disp     y-disp      z-disp      x-vel       y-vel       z-vel      x-accl      y-accl      z-accl      x-coor      y-coor      z-coor
    22626 -4.08900E-04 3.60519E-02-7.26535E-02-6.30960E-04 3.95632E-02-8.07276E-02-9.48916E-04 1.43152E-02-2.70068E-02 4.65897E+00-2.81548E+01-4.50544E+01



 n o d a l   p r i n t   o u t   f o r   t i m e  s t e p    3401                              ( at time 1.6998299E+00 )

 nodal point  x-rot      y-rot       z-rot       x-rot vel   y-rot vel   z-rot vel   x-rot acc   y-rot acc   z-rot acc
    22626 -9.06530E-05-3.97874E-06 1.47545E-06-6.24397E-05-1.82847E-06 6.83452E-06-4.90070E-05 3.68307E-05 5.98857E-06



 n o d a l   p r i n t   o u t   f o r   t i m e  s t e p    3601                              ( at time 1.7998199E+00 )

 nodal point  x-disp     y-disp      z-disp      x-vel       y-vel       z-vel      x-accl      y-accl      z-accl      x-coor      y-coor      z-coor
    22626 -4.65608E-04 4.00489E-02-8.08439E-02-4.65483E-04 4.07708E-02-8.29525E-02 1.65494E-03 1.20779E-02-2.22509E-02 4.65891E+00-2.81508E+01-4.50626E+01



 n o d a l   p r i n t   o u t   f o r   t i m e  s t e p    3601                              ( at time 1.7998199E+00 )

 nodal point  x-rot      y-rot       z-rot       x-rot vel   y-rot vel   z-rot vel   x-rot acc   y-rot acc   z-rot acc
    22626 -9.70922E-05-4.36027E-06 1.96142E-06-5.97222E-05-3.89985E-06 2.73461E-06 2.71774E-05-2.07159E-05-4.10033E-05



 n o d a l   p r i n t   o u t   f o r   t i m e  s t e p    3801                              ( at time 1.8998099E+00 )

 nodal point  x-disp     y-disp      z-disp      x-vel       y-vel       z-vel      x-accl      y-accl      z-accl      x-coor      y-coor      z-coor
    22626 -5.17340E-04 4.42815E-02-8.93192E-02-4.55770E-04 4.36795E-02-8.67400E-02 9.71356E-05 2.90891E-02-3.78791E-02 4.65886E+00-2.81465E+01-4.50710E+01



 n o d a l   p r i n t   o u t   f o r   t i m e  s t e p    3801                              ( at time 1.8998099E+00 )

 nodal point  x-rot      y-rot       z-rot       x-rot vel   y-rot vel   z-rot vel   x-rot acc   y-rot acc   z-rot acc
    22626 -1.02688E-04-4.72456E-06 2.48200E-06-5.40399E-05-7.56048E-06 3.17702E-06 5.68291E-05-3.66100E-05 4.42456E-06



 n o d a l   p r i n t   o u t   f o r   t i m e  s t e p    4001                              ( at time 1.9997999E+00 )

 nodal point  x-disp     y-disp      z-disp      x-vel       y-vel       z-vel      x-accl      y-accl      z-accl      x-coor      y-coor      z-coor
    22626 -5.56149E-04 4.87006E-02-9.82002E-02-4.07900E-04 4.49046E-02-9.06460E-02 4.78754E-04 1.22527E-02-3.90638E-02 4.65882E+00-2.81421E+01-4.50799E+01



 n o d a l   p r i n t   o u t   f o r   t i m e  s t e p    4001                              ( at time 1.9997999E+00 )

 nodal point  x-rot      y-rot       z-rot       x-rot vel   y-rot vel   z-rot vel   x-rot acc   y-rot acc   z-rot acc
    22626 -1.08000E-04-5.61566E-06 2.81065E-06-5.64208E-05-1.16304E-05 4.06851E-06-2.38115E-05-4.07029E-05 8.91584E-06



 n o d a l   p r i n t   o u t   f o r   t i m e  s t e p    4201                              ( at time 2.0997899E+00 )

 nodal point  x-disp     y-disp      z-disp      x-vel       y-vel       z-vel      x-accl      y-accl      z-accl      x-coor      y-coor      z-coor
    22626 -5.98227E-04 5.32489E-02-1.07357E-01-4.08329E-04 4.63079E-02-9.25964E-02-4.28800E-06 1.40348E-02-1.95064E-02 4.65878E+00-2.81376E+01-4.50891E+01



 n o d a l   p r i n t   o u t   f o r   t i m e  s t e p    4201                              ( at time 2.0997899E+00 )

 nodal point  x-rot      y-rot       z-rot       x-rot vel   y-rot vel   z-rot vel   x-rot acc   y-rot acc   z-rot acc
    22626 -1.13106E-04-6.87521E-06 3.22884E-06-4.74964E-05-1.22457E-05 8.28200E-06 8.92532E-05-6.15357E-06 4.21391E-05



 n o d a l   p r i n t   o u t   f o r   t i m e  s t e p    4401                              ( at time 2.1997798E+00 )

 nodal point  x-disp     y-disp      z-disp      x-vel       y-vel       z-vel      x-accl      y-accl      z-accl      x-coor      y-coor      z-coor
    22626 -6.38642E-04 5.79751E-02-1.16666E-01-3.27229E-04 4.79848E-02-9.35408E-02 8.11074E-04 1.67703E-02-9.44449E-03 4.65874E+00-2.81329E+01-4.50984E+01



 n o d a l   p r i n t   o u t   f o r   t i m e  s t e p    4401                              ( at time 2.1997798E+00 )

 nodal point  x-rot      y-rot       z-rot       x-rot vel   y-rot vel   z-rot vel   x-rot acc   y-rot acc   z-rot acc
    22626 -1.18009E-04-8.09229E-06 3.97094E-06-5.24217E-05-1.33870E-05 7.89912E-06-4.92579E-05-1.14143E-05-3.82927E-06



 n o d a l   p r i n t   o u t   f o r   t i m e  s t e p    4601                              ( at time 2.2997698E+00 )

 nodal point  x-disp     y-disp      z-disp      x-vel       y-vel       z-vel      x-accl      y-accl      z-accl      x-coor      y-coor      z-coor
    22626 -6.67416E-04 6.28354E-02-1.26076E-01-3.10395E-04 4.96851E-02-9.51695E-02 1.68355E-04 1.70044E-02-1.62884E-02 4.65871E+00-2.81280E+01-4.51078E+01



 n o d a l   p r i n t   o u t   f o r   t i m e  s t e p    4601                              ( at time 2.2997698E+00 )

 nodal point  x-rot      y-rot       z-rot       x-rot vel   y-rot vel   z-rot vel   x-rot acc   y-rot acc   z-rot acc
    22626 -1.23823E-04-9.23647E-06 5.08779E-06-5.36057E-05-1.24033E-05 1.25117E-05-1.18412E-05 9.83727E-06 4.61305E-05



 n o d a l   p r i n t   o u t   f o r   t i m e  s t e p    4801                              ( at time 2.3997598E+00 )

 nodal point  x-disp     y-disp      z-disp      x-vel       y-vel       z-vel      x-accl      y-accl      z-accl      x-coor      y-coor      z-coor
    22626 -7.07001E-04 6.79668E-02-1.35805E-01-3.09481E-04 5.26966E-02-9.93942E-02 9.14244E-06 3.01181E-02-4.22512E-02 4.65867E+00-2.81229E+01-4.51175E+01



 n o d a l   p r i n t   o u t   f o r   t i m e  s t e p    4801                              ( at time 2.3997598E+00 )

 nodal point  x-rot      y-rot       z-rot       x-rot vel   y-rot vel   z-rot vel   x-rot acc   y-rot acc   z-rot acc
    22626 -1.28923E-04-1.07305E-05 6.98608E-06-4.92463E-05-1.57940E-05 2.39045E-05 4.35979E-05-3.39099E-05 1.13939E-04



 n o d a l   p r i n t   o u t   f o r   t i m e  s t e p    5001                              ( at time 2.4997498E+00 )

 nodal point  x-disp     y-disp      z-disp      x-vel       y-vel       z-vel      x-accl      y-accl      z-accl      x-coor      y-coor      z-coor
    22626 -7.47191E-04 7.33926E-02-1.45888E-01-4.56999E-04 5.53476E-02-1.01613E-01-1.47532E-03 2.65125E-02-2.21860E-02 4.65863E+00-2.81174E+01-4.51276E+01



 n o d a l   p r i n t   o u t   f o r   t i m e  s t e p    5001                              ( at time 2.4997498E+00 )

 nodal point  x-rot      y-rot       z-rot       x-rot vel   y-rot vel   z-rot vel   x-rot acc   y-rot acc   z-rot acc
    22626 -1.33830E-04-1.22930E-05 9.80086E-06-4.97048E-05-1.55163E-05 3.37446E-05-4.58492E-06 2.77727E-06 9.84109E-05



 n o d a l   p r i n t   o u t   f o r   t i m e  s t e p    5201                              ( at time 2.5997398E+00 )

 nodal point  x-disp     y-disp      z-disp      x-vel       y-vel       z-vel      x-accl      y-accl      z-accl      x-coor      y-coor      z-coor
    22626 -7.77629E-04 7.90236E-02-1.56047E-01-3.98784E-04 5.74491E-02-1.01612E-01 5.82202E-04 2.10173E-02 6.55717E-06 4.65860E+00-2.81118E+01-4.51378E+01



 n o d a l   p r i n t   o u t   f o r   t i m e  s t e p    5201                              ( at time 2.5997398E+00 )

 nodal point  x-rot      y-rot       z-rot       x-rot vel   y-rot vel   z-rot vel   x-rot acc   y-rot acc   z-rot acc
    22626 -1.38936E-04-1.37158E-05 1.34857E-05-5.25241E-05-1.25283E-05 4.38387E-05-2.81961E-05 2.98826E-05 1.00951E-04



 n o d a l   p r i n t   o u t   f o r   t i m e  s t e p    5401                              ( at time 2.6997298E+00 )

 nodal point  x-disp     y-disp      z-disp      x-vel       y-vel       z-vel      x-accl      y-accl      z-accl      x-coor      y-coor      z-coor
    22626 -8.05248E-04 8.48960E-02-1.66218E-01 1.30131E-06 6.03124E-02-1.02012E-01 4.00125E-03 2.86364E-02-4.00262E-03 4.65857E+00-2.81059E+01-4.51479E+01



 n o d a l   p r i n t   o u t   f o r   t i m e  s t e p    5401                              ( at time 2.6997298E+00 )

 nodal point  x-rot      y-rot       z-rot       x-rot vel   y-rot vel   z-rot vel   x-rot acc   y-rot acc   z-rot acc
    22626 -1.44978E-04-1.52354E-05 1.84431E-05-6.48620E-05-1.42947E-05 5.28469E-05-1.23391E-04-1.76650E-05 9.00912E-05



 n o d a l   p r i n t   o u t   f o r   t i m e  s t e p    5601                              ( at time 2.7997198E+00 )

 nodal point  x-disp     y-disp      z-disp      x-vel       y-vel       z-vel      x-accl      y-accl      z-accl      x-coor      y-coor      z-coor
    22626 -8.00579E-04 9.11245E-02-1.76493E-01-3.14957E-05 6.43095E-02-1.03826E-01-3.28003E-04 3.99748E-02-1.81402E-02 4.65857E+00-2.80997E+01-4.51582E+01



 n o d a l   p r i n t   o u t   f o r   t i m e  s t e p    5601                              ( at time 2.7997198E+00 )

 nodal point  x-rot      y-rot       z-rot       x-rot vel   y-rot vel   z-rot vel   x-rot acc   y-rot acc   z-rot acc
    22626 -1.50966E-04-1.68252E-05 2.43633E-05-5.02553E-05-2.04687E-05 6.62849E-05 1.46082E-04-6.17464E-05 1.34393E-04



 n o d a l   p r i n t   o u t   f o r   t i m e  s t e p    5801                              ( at time 2.8997098E+00 )

 nodal point  x-disp     y-disp      z-disp      x-vel       y-vel       z-vel      x-accl      y-accl      z-accl      x-coor      y-coor      z-coor
    22626 -7.82953E-04 9.77663E-02-1.87035E-01 4.46128E-04 6.87598E-02-1.07072E-01 4.77672E-03 4.45073E-02-3.24687E-02 4.65859E+00-2.80931E+01-4.51688E+01



 n o d a l   p r i n t   o u t   f o r   t i m e  s t e p    5801                              ( at time 2.8997098E+00 )

 nodal point  x-rot      y-rot       z-rot       x-rot vel   y-rot vel   z-rot vel   x-rot acc   y-rot acc   z-rot acc
    22626 -1.56020E-04-1.89882E-05 3.13936E-05-6.03719E-05-2.27309E-05 7.52429E-05-1.01177E-04-2.26246E-05 8.95899E-05



 n o d a l   p r i n t   o u t   f o r   t i m e  s t e p    6001                              ( at time 2.9996998E+00 )

 nodal point  x-disp     y-disp      z-disp      x-vel       y-vel       z-vel      x-accl      y-accl      z-accl      x-coor      y-coor      z-coor
    22626 -7.45979E-04 1.04871E-01-1.97782E-01 6.96570E-04 7.30847E-02-1.07423E-01 2.50466E-03 4.32530E-02-3.50391E-03 4.65863E+00-2.80860E+01-4.51795E+01



 n o d a l   p r i n t   o u t   f o r   t i m e  s t e p    6001                              ( at time 2.9996998E+00 )

 nodal point  x-rot      y-rot       z-rot       x-rot vel   y-rot vel   z-rot vel   x-rot acc   y-rot acc   z-rot acc
    22626 -1.62515E-04-2.12206E-05 3.98622E-05-6.53584E-05-2.66821E-05 9.69457E-05-4.98698E-05-3.95156E-05 2.17049E-04



 n o d a l   p r i n t   o u t   f o r   t i m e  s t e p    6201                              ( at time 3.0996898E+00 )

 nodal point  x-disp     y-disp      z-disp      x-vel       y-vel       z-vel      x-accl      y-accl      z-accl      x-coor      y-coor      z-coor
    22626 -6.83395E-04 1.12493E-01-2.08542E-01 6.29660E-04 7.96130E-02-1.08447E-01-6.69169E-04 6.52902E-02-1.02418E-02 4.65869E+00-2.80783E+01-4.51903E+01



 n o d a l   p r i n t   o u t   f o r   t i m e  s t e p    6201                              ( at time 3.0996898E+00 )

 nodal point  x-rot      y-rot       z-rot       x-rot vel   y-rot vel   z-rot vel   x-rot acc   y-rot acc   z-rot acc
    22626 -1.70296E-04-2.39705E-05 5.00726E-05-9.14855E-05-2.77748E-05 1.15243E-04-2.61297E-04-1.09286E-05 1.82995E-04



 n o d a l   p r i n t   o u t   f o r   t i m e  s t e p    6401                              ( at time 3.1996798E+00 )

 nodal point  x-disp     y-disp      z-disp      x-vel       y-vel       z-vel      x-accl      y-accl      z-accl      x-coor      y-coor      z-coor
    22626 -6.06222E-04 1.20773E-01-2.19521E-01 7.48652E-04 8.62361E-02-1.11201E-01 1.19004E-03 6.62373E-02-2.75460E-02 4.65877E+00-2.80701E+01-4.52012E+01



 n o d a l   p r i n t   o u t   f o r   t i m e  s t e p    6401                              ( at time 3.1996798E+00 )

 nodal point  x-rot      y-rot       z-rot       x-rot vel   y-rot vel   z-rot vel   x-rot acc   y-rot acc   z-rot acc
    22626 -1.79888E-04-2.66840E-05 6.17416E-05-9.32015E-05-2.49688E-05 1.22529E-04-1.71623E-05 2.80629E-05 7.28590E-05



 n o d a l   p r i n t   o u t   f o r   t i m e  s t e p    6601                              ( at time 3.2996698E+00 )

 nodal point  x-disp     y-disp      z-disp      x-vel       y-vel       z-vel      x-accl      y-accl      z-accl      x-coor      y-coor      z-coor
    22626 -5.18426E-04 1.29814E-01-2.30822E-01 6.35497E-04 9.42227E-02-1.14198E-01-1.13167E-03 7.98736E-02-2.99708E-02 4.65886E+00-2.80610E+01-4.52125E+01



 n o d a l   p r i n t   o u t   f o r   t i m e  s t e p    6601                              ( at time 3.2996698E+00 )

 nodal point  x-rot      y-rot       z-rot       x-rot vel   y-rot vel   z-rot vel   x-rot acc   y-rot acc   z-rot acc
    22626 -1.91245E-04-2.95081E-05 7.53433E-05-1.19844E-04-2.96235E-05 1.46879E-04-2.66452E-04-4.65515E-05 2.43531E-04



 n o d a l   p r i n t   o u t   f o r   t i m e  s t e p    6801                              ( at time 3.3996598E+00 )

 nodal point  x-disp     y-disp      z-disp      x-vel       y-vel       z-vel      x-accl      y-accl      z-accl      x-coor      y-coor      z-coor
    22626 -3.96145E-04 1.39703E-01-2.42329E-01 1.68690E-03 1.03224E-01-1.15869E-01 1.05151E-02 9.00179E-02-1.67117E-02 4.65898E+00-2.80511E+01-4.52240E+01



 n o d a l   p r i n t   o u t   f o r   t i m e  s t e p    6801                              ( at time 3.3996598E+00 )

 nodal point  x-rot      y-rot       z-rot       x-rot vel   y-rot vel   z-rot vel   x-rot acc   y-rot acc   z-rot acc
    22626 -2.06435E-04-3.22157E-05 9.08823E-05-1.74955E-04-2.56965E-05 1.65950E-04-5.51166E-04 3.92742E-05 1.90725E-04



 n o d a l   p r i n t   o u t   f o r   t i m e  s t e p    7001                              ( at time 3.4996498E+00 )

 nodal point  x-disp     y-disp      z-disp      x-vel       y-vel       z-vel      x-accl      y-accl      z-accl      x-coor      y-coor      z-coor
    22626 -2.24640E-04 1.50511E-01-2.53881E-01 2.33012E-03 1.13471E-01-1.14629E-01 6.43278E-03 1.02486E-01 1.23969E-02 4.65915E+00-2.80403E+01-4.52356E+01



 n o d a l   p r i n t   o u t   f o r   t i m e  s t e p    7001                              ( at time 3.4996498E+00 )

 nodal point  x-rot      y-rot       z-rot       x-rot vel   y-rot vel   z-rot vel   x-rot acc   y-rot acc   z-rot acc
    22626 -2.26755E-04-3.45800E-05 1.08740E-04-2.21725E-04-1.82101E-05 1.94520E-04-4.67741E-04 7.48708E-05 2.85730E-04



 n o d a l   p r i n t   o u t   f o r   t i m e  s t e p    7201                              ( at time 3.5996397E+00 )

 nodal point  x-disp     y-disp      z-disp      x-vel       y-vel       z-vel      x-accl      y-accl      z-accl      x-coor      y-coor      z-coor
    22626 -7.73970E-06 1.62258E-01-2.65286E-01 1.48347E-03 1.22381E-01-1.14296E-01-8.46729E-03 8.91050E-02 3.33604E-03 4.65937E+00-2.80286E+01-4.52470E+01



 n o d a l   p r i n t   o u t   f o r   t i m e  s t e p    7201                              ( at time 3.5996397E+00 )

 nodal point  x-rot      y-rot       z-rot       x-rot vel   y-rot vel   z-rot vel   x-rot acc   y-rot acc   z-rot acc
    22626 -2.52461E-04-3.63337E-05 1.28634E-04-2.95288E-04-1.67486E-05 2.16913E-04-7.35707E-04 1.46164E-05 2.23955E-04



 n o d a l   p r i n t   o u t   f o r   t i m e  s t e p    7401                              ( at time 3.6996297E+00 )

 nodal point  x-disp     y-disp      z-disp      x-vel       y-vel       z-vel      x-accl      y-accl      z-accl      x-coor      y-coor      z-coor
    22626  2.45107E-04 1.75106E-01-2.76716E-01 3.17605E-03 1.33295E-01-1.13562E-01 1.69274E-02 1.09157E-01 7.33679E-03 4.65962E+00-2.80157E+01-4.52584E+01



 n o d a l   p r i n t   o u t   f o r   t i m e  s t e p    7401                              ( at time 3.6996297E+00 )

 nodal point  x-rot      y-rot       z-rot       x-rot vel   y-rot vel   z-rot vel   x-rot acc   y-rot acc   z-rot acc
    22626 -2.85829E-04-3.77742E-05 1.50997E-04-3.49765E-04-4.18983E-06 2.22245E-04-5.44829E-04 1.25600E-04 5.33233E-05



 n o d a l   p r i n t   o u t   f o r   t i m e  s t e p    7601                              ( at time 3.7996197E+00 )

 nodal point  x-disp     y-disp      z-disp      x-vel       y-vel       z-vel      x-accl      y-accl      z-accl      x-coor      y-coor      z-coor
    22626  5.98101E-04 1.88988E-01-2.88063E-01 3.43847E-03 1.44134E-01-1.12738E-01 2.62450E-03 1.08393E-01 8.24259E-03 4.65997E+00-2.80018E+01-4.52698E+01



 n o d a l   p r i n t   o u t   f o r   t i m e  s t e p    7601                              ( at time 3.7996197E+00 )

 nodal point  x-rot      y-rot       z-rot       x-rot vel   y-rot vel   z-rot vel   x-rot acc   y-rot acc   z-rot acc
    22626 -3.25804E-04-3.84382E-05 1.75312E-04-4.34321E-04-1.99999E-05 2.55146E-04-8.45637E-04-1.58116E-04 3.29048E-04



 n o d a l   p r i n t   o u t   f o r   t i m e  s t e p    7801                              ( at time 3.8996097E+00 )

 nodal point  x-disp     y-disp      z-disp      x-vel       y-vel       z-vel      x-accl      y-accl      z-accl      x-coor      y-coor      z-coor
    22626  1.00561E-03 2.04088E-01-2.99267E-01 4.50158E-03 1.56567E-01-1.10729E-01 1.06321E-02 1.24347E-01 2.00964E-02 4.66038E+00-2.79867E+01-4.52810E+01



 n o d a l   p r i n t   o u t   f o r   t i m e  s t e p    7801                              ( at time 3.8996097E+00 )

 nodal point  x-rot      y-rot       z-rot       x-rot vel   y-rot vel   z-rot vel   x-rot acc   y-rot acc   z-rot acc
    22626 -3.78513E-04-3.95549E-05 2.01172E-04-5.94385E-04-5.04946E-06 2.59844E-04-1.60080E-03 1.49519E-04 4.69855E-05



 n o d a l   p r i n t   o u t   f o r   t i m e  s t e p    8001                              ( at time 3.9995997E+00 )

 nodal point  x-disp     y-disp      z-disp      x-vel       y-vel       z-vel      x-accl      y-accl      z-accl      x-coor      y-coor      z-coor
    22626  1.40287E-03 2.20320E-01-3.10083E-01 6.47898E-03 1.69521E-01-1.05584E-01 1.97761E-02 1.29554E-01 5.14471E-02 4.66078E+00-2.79705E+01-4.52918E+01



 n o d a l   p r i n t   o u t   f o r   t i m e  s t e p    8001                              ( at time 3.9995997E+00 )

 nodal point  x-rot      y-rot       z-rot       x-rot vel   y-rot vel   z-rot vel   x-rot acc   y-rot acc   z-rot acc
    22626 -4.42135E-04-3.97807E-05 2.29050E-04-6.65730E-04 1.07141E-05 2.65723E-04-7.13522E-04 1.57652E-04 5.87951E-05



 n o d a l   p r i n t   o u t   f o r   t i m e  s t e p    8201                              ( at time 4.0995897E+00 )

 nodal point  x-disp     y-disp      z-disp      x-vel       y-vel       z-vel      x-accl      y-accl      z-accl      x-coor      y-coor      z-coor
    22626  1.92423E-03 2.37909E-01-3.20574E-01 4.42158E-03 1.81969E-01-1.04212E-01-2.05761E-02 1.24491E-01 1.37288E-02 4.66130E+00-2.79529E+01-4.53023E+01



 n o d a l   p r i n t   o u t   f o r   t i m e  s t e p    8201                              ( at time 4.0995897E+00 )

 nodal point  x-rot      y-rot       z-rot       x-rot vel   y-rot vel   z-rot vel   x-rot acc   y-rot acc   z-rot acc
    22626 -5.16001E-04-3.84804E-05 2.57425E-04-7.90974E-04 5.90465E-06 3.11698E-04-1.25256E-03-4.80992E-05 4.59797E-04



 n o d a l   p r i n t   o u t   f o r   t i m e  s t e p    8401                              ( at time 4.1995797E+00 )

 nodal point  x-disp     y-disp      z-disp      x-vel       y-vel       z-vel      x-accl      y-accl      z-accl      x-coor      y-coor      z-coor
    22626  2.50477E-03 2.56924E-01-3.30951E-01 4.73604E-03 1.98129E-01-1.03370E-01 3.14490E-03 1.61615E-01 8.42165E-03 4.66188E+00-2.79339E+01-4.53127E+01



 n o d a l   p r i n t   o u t   f o r   t i m e  s t e p    8401                              ( at time 4.1995797E+00 )

 nodal point  x-rot      y-rot       z-rot       x-rot vel   y-rot vel   z-rot vel   x-rot acc   y-rot acc   z-rot acc
    22626 -6.03269E-04-3.59415E-05 2.87729E-04-9.63173E-04 2.73123E-05 3.31478E-04-1.72217E-03 2.14099E-04 1.97820E-04



 n o d a l   p r i n t   o u t   f o r   t i m e  s t e p    8601                              ( at time 4.2995697E+00 )

 nodal point  x-disp     y-disp      z-disp      x-vel       y-vel       z-vel      x-accl      y-accl      z-accl      x-coor      y-coor      z-coor
    22626  3.02935E-03 2.77512E-01-3.40924E-01 7.75065E-03 2.12334E-01-9.63040E-02 3.01492E-02 1.42065E-01 7.06636E-02 4.66240E+00-2.79133E+01-4.53226E+01



 n o d a l   p r i n t   o u t   f o r   t i m e  s t e p    8601                              ( at time 4.2995697E+00 )

 nodal point  x-rot      y-rot       z-rot       x-rot vel   y-rot vel   z-rot vel   x-rot acc   y-rot acc   z-rot acc
    22626 -7.04509E-04-3.45174E-05 3.20490E-04-1.06429E-03 6.11286E-05 2.85692E-04-1.01123E-03 3.38196E-04-4.57908E-04



 n o d a l   p r i n t   o u t   f o r   t i m e  s t e p    8801                              ( at time 4.3995597E+00 )

 nodal point  x-disp     y-disp      z-disp      x-vel       y-vel       z-vel      x-accl      y-accl      z-accl      x-coor      y-coor      z-coor
    22626  3.50758E-03 2.99489E-01-3.50377E-01 4.33717E-03 2.29388E-01-9.33767E-02-3.41383E-02 1.70554E-01 2.92763E-02 4.66288E+00-2.78913E+01-4.53321E+01



 n o d a l   p r i n t   o u t   f o r   t i m e  s t e p    8801                              ( at time 4.3995597E+00 )

 nodal point  x-rot      y-rot       z-rot       x-rot vel   y-rot vel   z-rot vel   x-rot acc   y-rot acc   z-rot acc
    22626 -8.20183E-04-3.13445E-05 3.53901E-04-1.27219E-03 1.56946E-05 3.53772E-04-2.07928E-03-4.54386E-04 6.80863E-04



 n o d a l   p r i n t   o u t   f o r   t i m e  s t e p    9001                              ( at time 4.4995497E+00 )

 nodal point  x-disp     y-disp      z-disp      x-vel       y-vel       z-vel      x-accl      y-accl      z-accl      x-coor      y-coor      z-coor
    22626  4.31333E-03 3.23159E-01-3.59428E-01 5.07898E-03 2.43729E-01-8.77347E-02 7.41889E-03 1.43425E-01 5.64251E-02 4.66369E+00-2.78677E+01-4.53411E+01



 n o d a l   p r i n t   o u t   f o r   t i m e  s t e p    9001                              ( at time 4.4995497E+00 )

 nodal point  x-rot      y-rot       z-rot       x-rot vel   y-rot vel   z-rot vel   x-rot acc   y-rot acc   z-rot acc
    22626 -9.51772E-04-2.54900E-05 3.84288E-04-1.34828E-03 5.65198E-05 3.47939E-04-7.60952E-04 4.08292E-04-5.83320E-05



 n o d a l   p r i n t   o u t   f o r   t i m e  s t e p    9201                              ( at time 4.5995397E+00 )

 nodal point  x-disp     y-disp      z-disp      x-vel       y-vel       z-vel      x-accl      y-accl      z-accl      x-coor      y-coor      z-coor
    22626  4.98812E-03 3.48460E-01-3.68147E-01 1.10601E-02 2.61013E-01-8.61193E-02 5.98173E-02 1.72856E-01 1.61557E-02 4.66436E+00-2.78424E+01-4.53499E+01



 n o d a l   p r i n t   o u t   f o r   t i m e  s t e p    9201                              ( at time 4.5995397E+00 )

 nodal point  x-rot      y-rot       z-rot       x-rot vel   y-rot vel   z-rot vel   x-rot acc   y-rot acc   z-rot acc
    22626 -1.09583E-03-1.99986E-05 4.19404E-04-1.51816E-03 4.98177E-05 3.03591E-04-1.69899E-03-6.70278E-05-4.43523E-04



 n o d a l   p r i n t   o u t   f o r   t i m e  s t e p    9401                              ( at time 4.6995297E+00 )

 nodal point  x-disp     y-disp      z-disp      x-vel       y-vel       z-vel      x-accl      y-accl      z-accl      x-coor      y-coor      z-coor
    22626  5.64323E-03 3.75415E-01-3.76479E-01 6.97807E-03 2.78107E-01-8.14223E-02-4.08245E-02 1.70963E-01 4.69746E-02 4.66502E+00-2.78154E+01-4.53582E+01



 n o d a l   p r i n t   o u t   f o r   t i m e  s t e p    9401                              ( at time 4.6995297E+00 )

 nodal point  x-rot      y-rot       z-rot       x-rot vel   y-rot vel   z-rot vel   x-rot acc   y-rot acc   z-rot acc
    22626 -1.25865E-03-1.50272E-05 4.53419E-04-1.76126E-03 5.39631E-05 3.50157E-04-2.43126E-03 4.14577E-05 4.65701E-04



 n o d a l   p r i n t   o u t   f o r   t i m e  s t e p    9601                              ( at time 4.7995197E+00 )

 nodal point  x-disp     y-disp      z-disp      x-vel       y-vel       z-vel      x-accl      y-accl      z-accl      x-coor      y-coor      z-coor
    22626  6.53454E-03 4.04169E-01-3.84242E-01 7.45803E-03 2.94015E-01-7.43144E-02 4.80015E-03 1.59092E-01 7.10863E-02 4.66591E+00-2.77867E+01-4.53660E+01



 n o d a l   p r i n t   o u t   f o r   t i m e  s t e p    9601                              ( at time 4.7995197E+00 )

 nodal point  x-rot      y-rot       z-rot       x-rot vel   y-rot vel   z-rot vel   x-rot acc   y-rot acc   z-rot acc
    22626 -1.43909E-03-6.94965E-06 4.86990E-04-1.82929E-03 5.99413E-05 3.76204E-04-6.80361E-04 5.97880E-05 2.60499E-04



 n o d a l   p r i n t   o u t   f o r   t i m e  s t e p    9801                              ( at time 4.8995097E+00 )

 nodal point  x-disp     y-disp      z-disp      x-vel       y-vel       z-vel      x-accl      y-accl      z-accl      x-coor      y-coor      z-coor
    22626  7.47514E-03 4.34584E-01-3.91572E-01 1.00959E-02 3.15590E-01-6.94177E-02 2.63812E-02 2.15774E-01 4.89716E-02 4.66685E+00-2.77562E+01-4.53733E+01



 n o d a l   p r i n t   o u t   f o r   t i m e  s t e p    9801                              ( at time 4.8995097E+00 )

 nodal point  x-rot      y-rot       z-rot       x-rot vel   y-rot vel   z-rot vel   x-rot acc   y-rot acc   z-rot acc
    22626 -1.63500E-03 1.79331E-06 5.21907E-04-2.04333E-03 9.64145E-05 3.10277E-04-2.14056E-03 3.64769E-04-6.59333E-04



 n o d a l   p r i n t   o u t   f o r   t i m e  s t e p   10001                              ( at time 4.9994997E+00 )

 nodal point  x-disp     y-disp      z-disp      x-vel       y-vel       z-vel      x-accl      y-accl      z-accl      x-coor      y-coor      z-coor
    22626  8.20140E-03 4.66802E-01-3.98235E-01 1.04646E-02 3.30531E-01-6.46819E-02 3.68777E-03 1.49421E-01 4.73628E-02 4.66758E+00-2.77240E+01-4.53800E+01



 n o d a l   p r i n t   o u t   f o r   t i m e  s t e p   10001                              ( at time 4.9994997E+00 )

 nodal point  x-rot      y-rot       z-rot       x-rot vel   y-rot vel   z-rot vel   x-rot acc   y-rot acc   z-rot acc
    22626 -1.84750E-03 9.38386E-06 5.59072E-04-2.19520E-03 9.53166E-05 3.67475E-04-1.51891E-03-1.09795E-05 5.72036E-04



 n o d a l   p r i n t   o u t   f o r   t i m e  s t e p   10202                              ( at time 5.0999896E+00 )

 nodal point  x-disp     y-disp      z-disp      x-vel       y-vel       z-vel      x-accl      y-accl      z-accl      x-coor      y-coor      z-coor
    22626  9.19474E-03 5.01130E-01-4.04528E-01 5.97504E-03 3.50452E-01-5.88329E-02-4.46772E-02 1.98247E-01 5.82054E-02 4.66857E+00-2.76897E+01-4.53862E+01



 n o d a l   p r i n t   o u t   f o r   t i m e  s t e p   10202                              ( at time 5.0999896E+00 )

 nodal point  x-rot      y-rot       z-rot       x-rot vel   y-rot vel   z-rot vel   x-rot acc   y-rot acc   z-rot acc
    22626 -2.07926E-03 2.01165E-05 5.92972E-04-2.42193E-03 1.09250E-04 4.09916E-04-2.25624E-03 1.38656E-04 4.22338E-04



 n o d a l   p r i n t   o u t   f o r   t i m e  s t e p   10402                              ( at time 5.1999796E+00 )

 nodal point  x-disp     y-disp      z-disp      x-vel       y-vel       z-vel      x-accl      y-accl      z-accl      x-coor      y-coor      z-coor
    22626  1.02434E-02 5.37026E-01-4.09978E-01 1.01920E-02 3.68168E-01-5.29188E-02 4.21737E-02 1.77171E-01 5.91462E-02 4.66962E+00-2.76538E+01-4.53917E+01



 n o d a l   p r i n t   o u t   f o r   t i m e  s t e p   10402                              ( at time 5.1999796E+00 )

 nodal point  x-rot      y-rot       z-rot       x-rot vel   y-rot vel   z-rot vel   x-rot acc   y-rot acc   z-rot acc
    22626 -2.32780E-03 3.08622E-05 6.28595E-04-2.56611E-03 1.51857E-04 3.27721E-04-1.44194E-03 4.26108E-04-8.22031E-04



 n o d a l   p r i n t   o u t   f o r   t i m e  s t e p   10602                              ( at time 5.2999696E+00 )

 nodal point  x-disp     y-disp      z-disp      x-vel       y-vel       z-vel      x-accl      y-accl      z-accl      x-coor      y-coor      z-coor
    22626  1.10807E-02 5.74808E-01-4.15032E-01 9.86886E-03 3.89209E-01-4.54815E-02-3.23174E-03 2.10433E-01 7.43806E-02 4.67046E+00-2.76160E+01-4.53968E+01



 n o d a l   p r i n t   o u t   f o r   t i m e  s t e p   10602                              ( at time 5.2999696E+00 )

 nodal point  x-rot      y-rot       z-rot       x-rot vel   y-rot vel   z-rot vel   x-rot acc   y-rot acc   z-rot acc
    22626 -2.59503E-03 4.28628E-05 6.65103E-04-2.76374E-03 9.75606E-05 3.52737E-04-1.97646E-03-5.43017E-04 2.50187E-04



 n o d a l   p r i n t   o u t   f o r   t i m e  s t e p   10802                              ( at time 5.3999596E+00 )

 nodal point  x-disp     y-disp      z-disp      x-vel       y-vel       z-vel      x-accl      y-accl      z-accl      x-coor      y-coor      z-coor
    22626  1.21965E-02 6.14214E-01-4.19115E-01 9.81978E-03 4.01171E-01-3.97204E-02-4.90791E-04 1.19635E-01 5.76171E-02 4.67157E+00-2.75766E+01-4.54008E+01



 n o d a l   p r i n t   o u t   f o r   t i m e  s t e p   10802                              ( at time 5.3999596E+00 )

 nodal point  x-rot      y-rot       z-rot       x-rot vel   y-rot vel   z-rot vel   x-rot acc   y-rot acc   z-rot acc
    22626 -2.87946E-03 5.53166E-05 6.98174E-04-2.95090E-03 1.61587E-04 3.23617E-04-1.87177E-03 6.40334E-04-2.91232E-04



 n o d a l   p r i n t   o u t   f o r   t i m e  s t e p   11002                              ( at time 5.4999496E+00 )

 nodal point  x-disp     y-disp      z-disp      x-vel       y-vel       z-vel      x-accl      y-accl      z-accl      x-coor      y-coor      z-coor
    22626  1.32052E-02 6.55624E-01-4.22877E-01 1.11687E-02 4.25722E-01-3.33638E-02 1.34902E-02 2.45533E-01 6.35725E-02 4.67258E+00-2.75352E+01-4.54046E+01



 n o d a l   p r i n t   o u t   f o r   t i m e  s t e p   11002                              ( at time 5.4999496E+00 )

 nodal point  x-rot      y-rot       z-rot       x-rot vel   y-rot vel   z-rot vel   x-rot acc   y-rot acc   z-rot acc
    22626 -3.18566E-03 7.19915E-05 7.32897E-04-3.17670E-03 1.36653E-04 3.42302E-04-2.25822E-03-2.49365E-04 1.86870E-04



 n o d a l   p r i n t   o u t   f o r   t i m e  s t e p   11202                              ( at time 5.5999396E+00 )

 nodal point  x-disp     y-disp      z-disp      x-vel       y-vel       z-vel      x-accl      y-accl      z-accl      x-coor      y-coor      z-coor
    22626  1.43675E-02 6.98473E-01-4.25607E-01 1.08225E-02 4.37877E-01-2.43031E-02-3.46181E-03 1.21558E-01 9.06161E-02 4.67374E+00-2.74924E+01-4.54073E+01



 n o d a l   p r i n t   o u t   f o r   t i m e  s t e p   11202                              ( at time 5.5999396E+00 )

 nodal point  x-rot      y-rot       z-rot       x-rot vel   y-rot vel   z-rot vel   x-rot acc   y-rot acc   z-rot acc
    22626 -3.50767E-03 8.81524E-05 7.66854E-04-3.32307E-03 1.84375E-04 3.58161E-04-1.46387E-03 4.77264E-04 1.58608E-04



 n o d a l   p r i n t   o u t   f o r   t i m e  s t e p   11402                              ( at time 5.6999296E+00 )

 nodal point  x-disp     y-disp      z-disp      x-vel       y-vel       z-vel      x-accl      y-accl      z-accl      x-coor      y-coor      z-coor
    22626  1.54483E-02 7.43354E-01-4.27580E-01 1.35937E-02 4.53068E-01-1.40243E-02 2.77145E-02 1.51934E-01 1.02798E-01 4.67482E+00-2.74475E+01-4.54093E+01



 n o d a l   p r i n t   o u t   f o r   t i m e  s t e p   11402                              ( at time 5.6999296E+00 )

 nodal point  x-rot      y-rot       z-rot       x-rot vel   y-rot vel   z-rot vel   x-rot acc   y-rot acc   z-rot acc
    22626 -3.84979E-03 1.06866E-04 7.99142E-04-3.51098E-03 1.89972E-04 3.23701E-04-1.87930E-03 5.59716E-05-3.44637E-04



 n o d a l   p r i n t   o u t   f o r   t i m e  s t e p   11602                              ( at time 5.7999195E+00 )

 nodal point  x-disp     y-disp      z-disp      x-vel       y-vel       z-vel      x-accl      y-accl      z-accl      x-coor      y-coor      z-coor
    22626  1.66579E-02 7.89667E-01-4.28396E-01 1.03816E-02 4.73079E-01-5.07439E-03-3.21241E-02 2.00123E-01 8.95078E-02 4.67603E+00-2.74012E+01-4.54101E+01



 n o d a l   p r i n t   o u t   f o r   t i m e  s t e p   11602                              ( at time 5.7999195E+00 )

 nodal point  x-rot      y-rot       z-rot       x-rot vel   y-rot vel   z-rot vel   x-rot acc   y-rot acc   z-rot acc
    22626 -4.20954E-03 1.27756E-04 8.31254E-04-3.67911E-03 2.35192E-04 3.07333E-04-1.68147E-03 4.52247E-04-1.63693E-04



 n o d a l   p r i n t   o u t   f o r   t i m e  s t e p   11802                              ( at time 5.8999095E+00 )

 nodal point  x-disp     y-disp      z-disp      x-vel       y-vel       z-vel      x-accl      y-accl      z-accl      x-coor      y-coor      z-coor
    22626  1.79298E-02 8.37853E-01-4.28566E-01 1.38028E-02 4.90297E-01 5.69410E-03 3.42155E-02 1.72197E-01 1.07696E-01 4.67730E+00-2.73530E+01-4.54103E+01



 n o d a l   p r i n t   o u t   f o r   t i m e  s t e p   11802                              ( at time 5.8999095E+00 )

 nodal point  x-rot      y-rot       z-rot       x-rot vel   y-rot vel   z-rot vel   x-rot acc   y-rot acc   z-rot acc
    22626 -4.58830E-03 1.50411E-04 8.61414E-04-3.87872E-03 2.25478E-04 2.92269E-04-1.99631E-03-9.71471E-05-1.50653E-04



 n o d a l   p r i n t   o u t   f o r   t i m e  s t e p   12002                              ( at time 5.9998995E+00 )

 nodal point  x-disp     y-disp      z-disp      x-vel       y-vel       z-vel      x-accl      y-accl      z-accl      x-coor      y-coor      z-coor
    22626  1.92180E-02 8.87368E-01-4.27553E-01 1.41227E-02 5.03709E-01 1.26267E-02 3.19874E-03 1.34141E-01 6.93325E-02 4.67859E+00-2.73035E+01-4.54093E+01



 n o d a l   p r i n t   o u t   f o r   t i m e  s t e p   12002                              ( at time 5.9998995E+00 )

 nodal point  x-rot      y-rot       z-rot       x-rot vel   y-rot vel   z-rot vel   x-rot acc   y-rot acc   z-rot acc
    22626 -4.98516E-03 1.76493E-04 8.89500E-04-4.04078E-03 2.87636E-04 2.45138E-04-1.62071E-03 6.21640E-04-4.71355E-04



 n o d a l   p r i n t   o u t   f o r   t i m e  s t e p   12202                              ( at time 6.0998895E+00 )

 nodal point  x-disp     y-disp      z-disp      x-vel       y-vel       z-vel      x-accl      y-accl      z-accl      x-coor      y-coor      z-coor
    22626  2.05242E-02 9.38840E-01-4.25752E-01 1.32207E-02 5.23119E-01 2.67394E-02-9.02021E-03 1.94112E-01 1.41141E-01 4.67990E+00-2.72520E+01-4.54075E+01



 n o d a l   p r i n t   o u t   f o r   t i m e  s t e p   12202                              ( at time 6.0998895E+00 )

 nodal point  x-rot      y-rot       z-rot       x-rot vel   y-rot vel   z-rot vel   x-rot acc   y-rot acc   z-rot acc
    22626 -5.40089E-03 2.00713E-04 9.16106E-04-4.25096E-03 2.51774E-04 2.40489E-04-2.10207E-03-3.58655E-04-4.65016E-05



 n o d a l   p r i n t   o u t   f o r   t i m e  s t e p   12402                              ( at time 6.1998795E+00 )

 nodal point  x-disp     y-disp      z-disp      x-vel       y-vel       z-vel      x-accl      y-accl      z-accl      x-coor      y-coor      z-coor
    22626  2.19123E-02 9.91749E-01-4.22494E-01 1.17014E-02 5.35589E-01 3.55408E-02-1.51945E-02 1.24710E-01 8.80223E-02 4.68129E+00-2.71991E+01-4.54042E+01



 n o d a l   p r i n t   o u t   f o r   t i m e  s t e p   12402                              ( at time 6.1998795E+00 )

 nodal point  x-rot      y-rot       z-rot       x-rot vel   y-rot vel   z-rot vel   x-rot acc   y-rot acc   z-rot acc
    22626 -5.83170E-03 2.31682E-04 9.41376E-04-4.36240E-03 3.08307E-04 2.91652E-04-1.11447E-03 5.65391E-04 5.11684E-04



 n o d a l   p r i n t   o u t   f o r   t i m e  s t e p   12602                              ( at time 6.2998695E+00 )

 nodal point  x-disp     y-disp      z-disp      x-vel       y-vel       z-vel      x-accl      y-accl      z-accl      x-coor      y-coor      z-coor
    22626  2.34330E-02 1.04625E+00-4.18749E-01 1.67824E-02 5.53511E-01 4.45765E-02 5.08150E-02 1.79239E-01 9.03667E-02 4.68281E+00-2.71446E+01-4.54005E+01



 n o d a l   p r i n t   o u t   f o r   t i m e  s t e p   12602                              ( at time 6.2998695E+00 )

 nodal point  x-rot      y-rot       z-rot       x-rot vel   y-rot vel   z-rot vel   x-rot acc   y-rot acc   z-rot acc
    22626 -6.27987E-03 2.62686E-04 9.64301E-04-4.58995E-03 3.26989E-04 1.73417E-04-2.27578E-03 1.86833E-04-1.18247E-03



 n o d a l   p r i n t   o u t   f o r   t i m e  s t e p   12802                              ( at time 6.3998595E+00 )

 nodal point  x-disp     y-disp      z-disp      x-vel       y-vel       z-vel      x-accl      y-accl      z-accl      x-coor      y-coor      z-coor
    22626  2.47658E-02 1.10221E+00-4.13343E-01 1.45975E-02 5.66928E-01 5.95904E-02-2.18517E-02 1.34185E-01 1.50153E-01 4.68414E+00-2.70886E+01-4.53951E+01



 n o d a l   p r i n t   o u t   f o r   t i m e  s t e p   12802                              ( at time 6.3998595E+00 )

 nodal point  x-rot      y-rot       z-rot       x-rot vel   y-rot vel   z-rot vel   x-rot acc   y-rot acc   z-rot acc
    22626 -6.74511E-03 2.95440E-04 9.85249E-04-4.70389E-03 3.30960E-04 2.00214E-04-1.13952E-03 3.97191E-05 2.67997E-04



 n o d a l   p r i n t   o u t   f o r   t i m e  s t e p   13002                              ( at time 6.4998495E+00 )

 nodal point  x-disp     y-disp      z-disp      x-vel       y-vel       z-vel      x-accl      y-accl      z-accl      x-coor      y-coor      z-coor
    22626  2.64698E-02 1.15990E+00-4.07097E-01 1.26596E-02 5.84594E-01 6.85374E-02-1.93812E-02 1.76680E-01 8.94792E-02 4.68584E+00-2.70309E+01-4.53888E+01



 n o d a l   p r i n t   o u t   f o r   t i m e  s t e p   13002                              ( at time 6.4998495E+00 )

 nodal point  x-rot      y-rot       z-rot       x-rot vel   y-rot vel   z-rot vel   x-rot acc   y-rot acc   z-rot acc
    22626 -7.22589E-03 3.30718E-04 1.00224E-03-4.95947E-03 3.54674E-04 2.08412E-04-2.55598E-03 2.37159E-04 8.19914E-05



 n o d a l   p r i n t   o u t   f o r   t i m e  s t e p   13202                              ( at time 6.5998395E+00 )

 nodal point  x-disp     y-disp      z-disp      x-vel       y-vel       z-vel      x-accl      y-accl      z-accl      x-coor      y-coor      z-coor
    22626  2.79161E-02 1.21882E+00-3.99060E-01 1.88886E-02 5.95460E-01 8.36244E-02 6.22959E-02 1.08673E-01 1.50885E-01 4.68729E+00-2.69720E+01-4.53808E+01



 n o d a l   p r i n t   o u t   f o r   t i m e  s t e p   13202                              ( at time 6.5998395E+00 )

 nodal point  x-rot      y-rot       z-rot       x-rot vel   y-rot vel   z-rot vel   x-rot acc   y-rot acc   z-rot acc
    22626 -7.72077E-03 3.66686E-04 1.01918E-03-5.04072E-03 3.71936E-04 8.44654E-05-8.12583E-04 1.72644E-04-1.23959E-03



 n o d a l   p r i n t   o u t   f o r   t i m e  s t e p   13402                              ( at time 6.6998295E+00 )

 nodal point  x-disp     y-disp      z-disp      x-vel       y-vel       z-vel      x-accl      y-accl      z-accl      x-coor      y-coor      z-coor
    22626  2.96103E-02 1.27907E+00-3.90325E-01 1.52182E-02 6.09766E-01 9.40120E-02-3.67068E-02 1.43072E-01 1.03887E-01 4.68899E+00-2.69118E+01-4.53720E+01



 n o d a l   p r i n t   o u t   f o r   t i m e  s t e p   13402                              ( at time 6.6998295E+00 )

 nodal point  x-rot      y-rot       z-rot       x-rot vel   y-rot vel   z-rot vel   x-rot acc   y-rot acc   z-rot acc
    22626 -8.22916E-03 4.05287E-04 1.02819E-03-5.19493E-03 3.94088E-04 7.99000E-05-1.54232E-03 2.21541E-04-4.56589E-05



 n o d a l   p r i n t   o u t   f o r   t i m e  s t e p   13602                              ( at time 6.7998195E+00 )

 nodal point  x-disp     y-disp      z-disp      x-vel       y-vel       z-vel      x-accl      y-accl      z-accl      x-coor      y-coor      z-coor
    22626  3.11168E-02 1.34061E+00-3.79827E-01 1.57415E-02 6.20651E-01 1.10095E-01 5.23283E-03 1.08859E-01 1.60846E-01 4.69049E+00-2.68502E+01-4.53615E+01



 n o d a l   p r i n t   o u t   f o r   t i m e  s t e p   13602                              ( at time 6.7998195E+00 )

 nodal point  x-rot      y-rot       z-rot       x-rot vel   y-rot vel   z-rot vel   x-rot acc   y-rot acc   z-rot acc
    22626 -8.75405E-03 4.43790E-04 1.03387E-03-5.30486E-03 3.93921E-04 2.77437E-05-1.09937E-03-1.67160E-06-5.21616E-04



 n o d a l   p r i n t   o u t   f o r   t i m e  s t e p   13802                              ( at time 6.8998095E+00 )

 nodal point  x-disp     y-disp      z-disp      x-vel       y-vel       z-vel      x-accl      y-accl      z-accl      x-coor      y-coor      z-coor
    22626  3.27561E-02 1.40348E+00-3.68457E-01 1.71764E-02 6.37433E-01 1.21556E-01 1.43510E-02 1.67842E-01 1.14626E-01 4.69213E+00-2.67874E+01-4.53502E+01



 n o d a l   p r i n t   o u t   f o r   t i m e  s t e p   13802                              ( at time 6.8998095E+00 )

 nodal point  x-rot      y-rot       z-rot       x-rot vel   y-rot vel   z-rot vel   x-rot acc   y-rot acc   z-rot acc
    22626 -9.28995E-03 4.87189E-04 1.02972E-03-5.44653E-03 4.86139E-04-4.65352E-05-1.41690E-03 9.22272E-04-7.42863E-04



 n o d a l   p r i n t   o u t   f o r   t i m e  s t e p   14002                              ( at time 6.9997995E+00 )

 nodal point  x-disp     y-disp      z-disp      x-vel       y-vel       z-vel      x-accl      y-accl      z-accl      x-coor      y-coor      z-coor
    22626  3.44562E-02 1.46765E+00-3.55293E-01 1.63218E-02 6.49659E-01 1.38250E-01-8.54683E-03 1.22264E-01 1.66950E-01 4.69383E+00-2.67232E+01-4.53370E+01



 n o d a l   p r i n t   o u t   f o r   t i m e  s t e p   14002                              ( at time 6.9997995E+00 )

 nodal point  x-rot      y-rot       z-rot       x-rot vel   y-rot vel   z-rot vel   x-rot acc   y-rot acc   z-rot acc
    22626 -9.84096E-03 5.29813E-04 1.02602E-03-5.60113E-03 3.98405E-04-6.10051E-06-1.54614E-03-8.77426E-04 4.04387E-04



 n o d a l   p r i n t   o u t   f o r   t i m e  s t e p   14202                              ( at time 7.0997895E+00 )

 nodal point  x-disp     y-disp      z-disp      x-vel       y-vel       z-vel      x-accl      y-accl      z-accl      x-coor      y-coor      z-coor
    22626  3.60659E-02 1.53327E+00-3.40924E-01 1.56808E-02 6.61057E-01 1.50790E-01-6.41087E-03 1.13992E-01 1.25419E-01 4.69544E+00-2.66576E+01-4.53226E+01



 n o d a l   p r i n t   o u t   f o r   t i m e  s t e p   14202                              ( at time 7.0997895E+00 )

 nodal point  x-rot      y-rot       z-rot       x-rot vel   y-rot vel   z-rot vel   x-rot acc   y-rot acc   z-rot acc
    22626 -1.04021E-02 5.74006E-04 1.01388E-03-5.66982E-03 4.89132E-04-1.58150E-04-6.86903E-04 9.07353E-04-1.52064E-03



 n o d a l   p r i n t   o u t   f o r   t i m e  s t e p   14402                              ( at time 7.1997794E+00 )

 nodal point  x-disp     y-disp      z-disp      x-vel       y-vel       z-vel      x-accl      y-accl      z-accl      x-coor      y-coor      z-coor
    22626  3.76463E-02 1.60011E+00-3.24917E-01 1.62575E-02 6.75567E-01 1.66608E-01 5.76715E-03 1.45116E-01 1.58189E-01 4.69702E+00-2.65907E+01-4.53066E+01



 n o d a l   p r i n t   o u t   f o r   t i m e  s t e p   14402                              ( at time 7.1997794E+00 )

 nodal point  x-rot      y-rot       z-rot       x-rot vel   y-rot vel   z-rot vel   x-rot acc   y-rot acc   z-rot acc
    22626 -1.09788E-02 6.21807E-04 9.97112E-04-5.84267E-03 4.79786E-04-1.87630E-04-1.72872E-03-9.34665E-05-2.94837E-04



 n o d a l   p r i n t   o u t   f o r   t i m e  s t e p   14602                              ( at time 7.2997694E+00 )

 nodal point  x-disp     y-disp      z-disp      x-vel       y-vel       z-vel      x-accl      y-accl      z-accl      x-coor      y-coor      z-coor
    22626  3.92800E-02 1.66843E+00-3.07736E-01 1.45766E-02 6.91737E-01 1.79514E-01-1.68102E-02 1.61717E-01 1.29073E-01 4.69866E+00-2.65224E+01-4.52895E+01



 n o d a l   p r i n t   o u t   f o r   t i m e  s t e p   14602                              ( at time 7.2997694E+00 )

 nodal point  x-rot      y-rot       z-rot       x-rot vel   y-rot vel   z-rot vel   x-rot acc   y-rot acc   z-rot acc
    22626 -1.15689E-02 6.71565E-04 9.79136E-04-5.99032E-03 4.66186E-04-2.15965E-04-1.47666E-03-1.36012E-04-2.83372E-04



 n o d a l   p r i n t   o u t   f o r   t i m e  s t e p   14802                              ( at time 7.3997594E+00 )

 nodal point  x-disp     y-disp      z-disp      x-vel       y-vel       z-vel      x-accl      y-accl      z-accl      x-coor      y-coor      z-coor
    22626  4.08895E-02 1.73795E+00-2.88551E-01 1.50130E-02 7.01118E-01 2.00296E-01 4.36467E-03 9.38242E-02 2.07847E-01 4.70026E+00-2.64529E+01-4.52703E+01



 n o d a l   p r i n t   o u t   f o r   t i m e  s t e p   14802                              ( at time 7.3997594E+00 )

 nodal point  x-rot      y-rot       z-rot       x-rot vel   y-rot vel   z-rot vel   x-rot acc   y-rot acc   z-rot acc
    22626 -1.21700E-02 7.19203E-04 9.51498E-04-6.09849E-03 4.94382E-04-3.01175E-04-1.08175E-03 2.81987E-04-8.52186E-04



 n o d a l   p r i n t   o u t   f o r   t i m e  s t e p   15002                              ( at time 7.4997494E+00 )

 nodal point  x-disp     y-disp      z-disp      x-vel       y-vel       z-vel      x-accl      y-accl      z-accl      x-coor      y-coor      z-coor
    22626  4.22607E-02 1.80896E+00-2.67903E-01 1.69393E-02 7.14291E-01 2.13842E-01 1.92649E-02 1.31735E-01 1.35472E-01 4.70164E+00-2.63819E+01-4.52496E+01



 n o d a l   p r i n t   o u t   f o r   t i m e  s t e p   15002                              ( at time 7.4997494E+00 )

 nodal point  x-rot      y-rot       z-rot       x-rot vel   y-rot vel   z-rot vel   x-rot acc   y-rot acc   z-rot acc
    22626 -1.27849E-02 7.70610E-04 9.24455E-04-6.22456E-03 5.15750E-04-3.28215E-04-1.26086E-03 2.13696E-04-2.70434E-04



 n o d a l   p r i n t   o u t   f o r   t i m e  s t e p   15202                              ( at time 7.5997394E+00 )

 nodal point  x-disp     y-disp      z-disp      x-vel       y-vel       z-vel      x-accl      y-accl      z-accl      x-coor      y-coor      z-coor
    22626  4.39802E-02 1.88105E+00-2.45517E-01 1.49789E-02 7.29283E-01 2.33015E-01-1.96067E-02 1.49940E-01 1.91743E-01 4.70336E+00-2.63098E+01-4.52272E+01



 n o d a l   p r i n t   o u t   f o r   t i m e  s t e p   15202                              ( at time 7.5997394E+00 )

 nodal point  x-rot      y-rot       z-rot       x-rot vel   y-rot vel   z-rot vel   x-rot acc   y-rot acc   z-rot acc
    22626 -1.34117E-02 8.23184E-04 8.88499E-04-6.32383E-03 5.41392E-04-3.99343E-04-9.92858E-04 2.56449E-04-7.11352E-04



 n o d a l   p r i n t   o u t   f o r   t i m e  s t e p   15402                              ( at time 7.6997294E+00 )

 nodal point  x-disp     y-disp      z-disp      x-vel       y-vel       z-vel      x-accl      y-accl      z-accl      x-coor      y-coor      z-coor
    22626  4.53896E-02 1.95478E+00-2.21612E-01 1.42391E-02 7.43350E-01 2.47309E-01-7.39794E-03 1.40688E-01 1.42961E-01 4.70476E+00-2.62361E+01-4.52033E+01



 n o d a l   p r i n t   o u t   f o r   t i m e  s t e p   15402                              ( at time 7.6997294E+00 )

 nodal point  x-rot      y-rot       z-rot       x-rot vel   y-rot vel   z-rot vel   x-rot acc   y-rot acc   z-rot acc
    22626 -1.40509E-02 8.75767E-04 8.49835E-04-6.44783E-03 4.99447E-04-3.74027E-04-1.24012E-03-4.19496E-04 2.53192E-04



 n o d a l   p r i n t   o u t   f o r   t i m e  s t e p   15602                              ( at time 7.7997194E+00 )

 nodal point  x-disp     y-disp      z-disp      x-vel       y-vel       z-vel      x-accl      y-accl      z-accl      x-coor      y-coor      z-coor
    22626  4.69415E-02 2.02965E+00-1.95872E-01 1.61287E-02 7.57652E-01 2.66653E-01 1.88970E-02 1.43027E-01 1.93457E-01 4.70632E+00-2.61612E+01-4.51776E+01



 n o d a l   p r i n t   o u t   f o r   t i m e  s t e p   15602                              ( at time 7.7997194E+00 )

 nodal point  x-rot      y-rot       z-rot       x-rot vel   y-rot vel   z-rot vel   x-rot acc   y-rot acc   z-rot acc
    22626 -1.46980E-02 9.27468E-04 8.07622E-04-6.52431E-03 5.54028E-04-4.89198E-04-7.64837E-04 5.45872E-04-1.15183E-03



 n o d a l   p r i n t   o u t   f o r   t i m e  s t e p   15802                              ( at time 7.8997094E+00 )

 nodal point  x-disp     y-disp      z-disp      x-vel       y-vel       z-vel      x-accl      y-accl      z-accl      x-coor      y-coor      z-coor
    22626  4.83321E-02 2.10588E+00-1.68506E-01 1.41480E-02 7.66419E-01 2.81007E-01-1.98083E-02 8.76790E-02 1.43558E-01 4.70771E+00-2.60849E+01-4.51502E+01



 n o d a l   p r i n t   o u t   f o r   t i m e  s t e p   15802                              ( at time 7.8997094E+00 )

 nodal point  x-rot      y-rot       z-rot       x-rot vel   y-rot vel   z-rot vel   x-rot acc   y-rot acc   z-rot acc
    22626 -1.53532E-02 9.82656E-04 7.59359E-04-6.57489E-03 5.51847E-04-4.90890E-04-5.05857E-04-2.18120E-05-1.69244E-05



 n o d a l   p r i n t   o u t   f o r   t i m e  s t e p   16002                              ( at time 7.9996994E+00 )

 nodal point  x-disp     y-disp      z-disp      x-vel       y-vel       z-vel      x-accl      y-accl      z-accl      x-coor      y-coor      z-coor
    22626  4.97526E-02 2.18340E+00-1.39551E-01 1.44410E-02 7.84767E-01 2.97009E-01 2.92994E-03 1.83500E-01 1.60033E-01 4.70913E+00-2.60074E+01-4.51213E+01



 n o d a l   p r i n t   o u t   f o r   t i m e  s t e p   16002                              ( at time 7.9996994E+00 )

 nodal point  x-rot      y-rot       z-rot       x-rot vel   y-rot vel   z-rot vel   x-rot acc   y-rot acc   z-rot acc
    22626 -1.60171E-02 1.03699E-03 7.06744E-04-6.70344E-03 5.72866E-04-5.26377E-04-1.28561E-03 2.10209E-04-3.54901E-04



 n o d a l   p r i n t   o u t   f o r   t i m e  s t e p   16202                              ( at time 8.0996894E+00 )

 nodal point  x-disp     y-disp      z-disp      x-vel       y-vel       z-vel      x-accl      y-accl      z-accl      x-coor      y-coor      z-coor
    22626  5.10322E-02 2.26249E+00-1.08855E-01 1.10758E-02 7.95133E-01 3.16084E-01-3.36557E-02 1.03671E-01 1.90771E-01 4.71041E+00-2.59283E+01-4.50906E+01



 n o d a l   p r i n t   o u t   f o r   t i m e  s t e p   16202                              ( at time 8.0996894E+00 )

 nodal point  x-rot      y-rot       z-rot       x-rot vel   y-rot vel   z-rot vel   x-rot acc   y-rot acc   z-rot acc
    22626 -1.66900E-02 1.09023E-03 6.53266E-04-6.72938E-03 5.27225E-04-5.45021E-04-2.59423E-04-4.56459E-04-1.86454E-04



 n o d a l   p r i n t   o u t   f o r   t i m e  s t e p   16402                              ( at time 8.1996794E+00 )

 nodal point  x-disp     y-disp      z-disp      x-vel       y-vel       z-vel      x-accl      y-accl      z-accl      x-coor      y-coor      z-coor
    22626  5.23551E-02 2.34258E+00-7.65144E-02 1.30596E-02 8.07022E-01 3.30347E-01 1.98407E-02 1.18904E-01 1.42638E-01 4.71173E+00-2.58482E+01-4.50582E+01



 n o d a l   p r i n t   o u t   f o r   t i m e  s t e p   16402                              ( at time 8.1996794E+00 )

 nodal point  x-rot      y-rot       z-rot       x-rot vel   y-rot vel   z-rot vel   x-rot acc   y-rot acc   z-rot acc
    22626 -1.73683E-02 1.14557E-03 5.95513E-04-6.86710E-03 5.63733E-04-6.29414E-04-1.37738E-03 3.65119E-04-8.44023E-04



 n o d a l   p r i n t   o u t   f o r   t i m e  s t e p   16602                              ( at time 8.2996694E+00 )

 nodal point  x-disp     y-disp      z-disp      x-vel       y-vel       z-vel      x-accl      y-accl      z-accl      x-coor      y-coor      z-coor
    22626  5.36994E-02 2.42415E+00-4.25409E-02 1.46546E-02 8.21304E-01 3.48411E-01 1.59517E-02 1.42830E-01 1.80662E-01 4.71307E+00-2.57667E+01-4.50243E+01



 n o d a l   p r i n t   o u t   f o r   t i m e  s t e p   16602                              ( at time 8.2996694E+00 )

 nodal point  x-rot      y-rot       z-rot       x-rot vel   y-rot vel   z-rot vel   x-rot acc   y-rot acc   z-rot acc
    22626 -1.80592E-02 1.20220E-03 5.31406E-04-6.93134E-03 5.50840E-04-6.43748E-04-6.42482E-04-1.28946E-04-1.43348E-04



 n o d a l   p r i n t   o u t   f o r   t i m e  s t e p   16802                              ( at time 8.3996594E+00 )

 nodal point  x-disp     y-disp      z-disp      x-vel       y-vel       z-vel      x-accl      y-accl      z-accl      x-coor      y-coor      z-coor
    22626  5.48550E-02 2.50687E+00-6.67253E-03 1.17288E-02 8.32308E-01 3.65667E-01-2.92619E-02 1.10050E-01 1.72576E-01 4.71423E+00-2.56840E+01-4.49884E+01



 n o d a l   p r i n t   o u t   f o r   t i m e  s t e p   16802                              ( at time 8.3996594E+00 )

 nodal point  x-rot      y-rot       z-rot       x-rot vel   y-rot vel   z-rot vel   x-rot acc   y-rot acc   z-rot acc
    22626 -1.87493E-02 1.25793E-03 4.67968E-04-6.92603E-03 5.55024E-04-6.60699E-04 5.31792E-05 4.18486E-05-1.69528E-04



 n o d a l   p r i n t   o u t   f o r   t i m e  s t e p   17002                              ( at time 8.4996494E+00 )

 nodal point  x-disp     y-disp      z-disp      x-vel       y-vel       z-vel      x-accl      y-accl      z-accl      x-coor      y-coor      z-coor
    22626  5.62174E-02 2.59097E+00 3.06165E-02 1.20974E-02 8.48567E-01 3.81428E-01 3.68687E-03 1.62615E-01 1.57625E-01 4.71559E+00-2.55999E+01-4.49511E+01



 n o d a l   p r i n t   o u t   f o r   t i m e  s t e p   17002                              ( at time 8.4996494E+00 )

 nodal point  x-rot      y-rot       z-rot       x-rot vel   y-rot vel   z-rot vel   x-rot acc   y-rot acc   z-rot acc
    22626 -1.94512E-02 1.31303E-03 3.97265E-04-7.06455E-03 5.51780E-04-7.06211E-04-1.38541E-03-3.24465E-05-4.55168E-04



 n o d a l   p r i n t   o u t   f o r   t i m e  s t e p   17202                              ( at time 8.5996394E+00 )

 nodal point  x-disp     y-disp      z-disp      x-vel       y-vel       z-vel      x-accl      y-accl      z-accl      x-coor      y-coor      z-coor
    22626  5.74650E-02 2.67643E+00 6.96782E-02 1.39713E-02 8.60193E-01 3.99432E-01 1.87410E-02 1.16269E-01 1.80058E-01 4.71684E+00-2.55144E+01-4.49120E+01



 n o d a l   p r i n t   o u t   f o r   t i m e  s t e p   17202                              ( at time 8.5996394E+00 )

 nodal point  x-rot      y-rot       z-rot       x-rot vel   y-rot vel   z-rot vel   x-rot acc   y-rot acc   z-rot acc
    22626 -2.01585E-02 1.37008E-03 3.24350E-04-7.08789E-03 5.79127E-04-7.53056E-04-2.33339E-04 2.73502E-04-4.68501E-04



 n o d a l   p r i n t   o u t   f o r   t i m e  s t e p   17402                              ( at time 8.6996293E+00 )

 nodal point  x-disp     y-disp      z-disp      x-vel       y-vel       z-vel      x-accl      y-accl      z-accl      x-coor      y-coor      z-coor
    22626  5.87199E-02 2.76297E+00 1.10511E-01 1.19218E-02 8.72849E-01 4.19321E-01-2.04973E-02 1.26573E-01 1.98906E-01 4.71809E+00-2.54279E+01-4.48712E+01



 n o d a l   p r i n t   o u t   f o r   t i m e  s t e p   17402                              ( at time 8.6996293E+00 )

 nodal point  x-rot      y-rot       z-rot       x-rot vel   y-rot vel   z-rot vel   x-rot acc   y-rot acc   z-rot acc
    22626 -2.08715E-02 1.42614E-03 2.48377E-04-7.14033E-03 5.61545E-04-7.78947E-04-5.24462E-04-1.75841E-04-2.58926E-04



 n o d a l   p r i n t   o u t   f o r   t i m e  s t e p   17602                              ( at time 8.7996193E+00 )

 nodal point  x-disp     y-disp      z-disp      x-vel       y-vel       z-vel      x-accl      y-accl      z-accl      x-coor      y-coor      z-coor
    22626  5.99066E-02 2.85096E+00 1.52993E-01 1.12684E-02 8.85960E-01 4.31697E-01-6.53466E-03 1.31120E-01 1.23775E-01 4.71928E+00-2.53399E+01-4.48287E+01



 n o d a l   p r i n t   o u t   f o r   t i m e  s t e p   17602                              ( at time 8.7996193E+00 )

 nodal point  x-rot      y-rot       z-rot       x-rot vel   y-rot vel   z-rot vel   x-rot acc   y-rot acc   z-rot acc
    22626 -2.15914E-02 1.48300E-03 1.70597E-04-7.19380E-03 5.63280E-04-7.91624E-04-5.34796E-04 1.73575E-05-1.26783E-04



 n o d a l   p r i n t   o u t   f o r   t i m e  s t e p   17802                              ( at time 8.8996093E+00 )

 nodal point  x-disp     y-disp      z-disp      x-vel       y-vel       z-vel      x-accl      y-accl      z-accl      x-coor      y-coor      z-coor
    22626  6.12161E-02 2.94021E+00 1.97136E-01 1.42508E-02 8.98162E-01 4.52321E-01 2.98278E-02 1.22037E-01 2.06263E-01 4.72059E+00-2.52506E+01-4.47846E+01



 n o d a l   p r i n t   o u t   f o r   t i m e  s t e p   17802                              ( at time 8.8996093E+00 )

 nodal point  x-rot      y-rot       z-rot       x-rot vel   y-rot vel   z-rot vel   x-rot acc   y-rot acc   z-rot acc
    22626 -2.23142E-02 1.54036E-03 8.82618E-05-7.23105E-03 5.94989E-04-8.44141E-04-3.72525E-04 3.17115E-04-5.25230E-04



 n o d a l   p r i n t   o u t   f o r   t i m e  s t e p   18002                              ( at time 8.9995993E+00 )

 nodal point  x-disp     y-disp      z-disp      x-vel       y-vel       z-vel      x-accl      y-accl      z-accl      x-coor      y-coor      z-coor
    22626  6.24640E-02 3.03075E+00 2.43187E-01 1.20446E-02 9.13977E-01 4.67510E-01-2.20646E-02 1.58160E-01 1.51906E-01 4.72184E+00-2.51601E+01-4.47385E+01



 n o d a l   p r i n t   o u t   f o r   t i m e  s t e p   18002                              ( at time 8.9995993E+00 )

 nodal point  x-rot      y-rot       z-rot       x-rot vel   y-rot vel   z-rot vel   x-rot acc   y-rot acc   z-rot acc
    22626 -2.30426E-02 1.60030E-03 4.51394E-06-7.34501E-03 5.82044E-04-8.53860E-04-1.13971E-03-1.29459E-04-9.71939E-05



 n o d a l   p r i n t   o u t   f o r   t i m e  s t e p   18202                              ( at time 9.0995893E+00 )

 nodal point  x-disp     y-disp      z-disp      x-vel       y-vel       z-vel      x-accl      y-accl      z-accl      x-coor      y-coor      z-coor
    22626  6.37114E-02 3.12256E+00 2.90840E-01 1.17745E-02 9.23848E-01 4.85996E-01-2.70139E-03 9.87212E-02 1.84877E-01 4.72309E+00-2.50683E+01-4.46909E+01



 n o d a l   p r i n t   o u t   f o r   t i m e  s t e p   18202                              ( at time 9.0995893E+00 )

 nodal point  x-rot      y-rot       z-rot       x-rot vel   y-rot vel   z-rot vel   x-rot acc   y-rot acc   z-rot acc
    22626 -2.37764E-02 1.65955E-03-8.41890E-05-7.33690E-03 6.02558E-04-9.11434E-04 8.10519E-05 2.05157E-04-5.75806E-04



 n o d a l   p r i n t   o u t   f o r   t i m e  s t e p   18402                              ( at time 9.1995793E+00 )

 nodal point  x-disp     y-disp      z-disp      x-vel       y-vel       z-vel      x-accl      y-accl      z-accl      x-coor      y-coor      z-coor
    22626  6.50214E-02 3.21563E+00 3.40283E-01 1.45919E-02 9.36656E-01 5.01799E-01 2.81772E-02 1.28093E-01 1.58044E-01 4.72440E+00-2.49752E+01-4.46414E+01



 n o d a l   p r i n t   o u t   f o r   t i m e  s t e p   18402                              ( at time 9.1995793E+00 )

 nodal point  x-rot      y-rot       z-rot       x-rot vel   y-rot vel   z-rot vel   x-rot acc   y-rot acc   z-rot acc
    22626 -2.45119E-02 1.72153E-03-1.76081E-04-7.35975E-03 6.39235E-04-9.16290E-04-2.28523E-04 3.66811E-04-4.85571E-05



 n o d a l   p r i n t   o u t   f o r   t i m e  s t e p   18602                              ( at time 9.2995693E+00 )

 nodal point  x-disp     y-disp      z-disp      x-vel       y-vel       z-vel      x-accl      y-accl      z-accl      x-coor      y-coor      z-coor
    22626  6.64385E-02 3.30998E+00 3.91555E-01 1.14911E-02 9.45623E-01 5.25053E-01-3.10115E-02 8.96789E-02 2.32564E-01 4.72581E+00-2.48808E+01-4.45902E+01



 n o d a l   p r i n t   o u t   f o r   t i m e  s t e p   18602                              ( at time 9.2995693E+00 )

 nodal point  x-rot      y-rot       z-rot       x-rot vel   y-rot vel   z-rot vel   x-rot acc   y-rot acc   z-rot acc
    22626 -2.52529E-02 1.78338E-03-2.66791E-04-7.43648E-03 6.23160E-04-9.13300E-04-7.67282E-04-1.60771E-04 2.99031E-05



 n o d a l   p r i n t   o u t   f o r   t i m e  s t e p   18802                              ( at time 9.3995593E+00 )

 nodal point  x-disp     y-disp      z-disp      x-vel       y-vel       z-vel      x-accl      y-accl      z-accl      x-coor      y-coor      z-coor
    22626  6.78379E-02 3.40515E+00 4.44884E-01 1.67027E-02 9.61503E-01 5.39567E-01 5.21217E-02 1.58821E-01 1.45159E-01 4.72721E+00-2.47857E+01-4.45368E+01



 n o d a l   p r i n t   o u t   f o r   t i m e  s t e p   18802                              ( at time 9.3995593E+00 )

 nodal point  x-rot      y-rot       z-rot       x-rot vel   y-rot vel   z-rot vel   x-rot acc   y-rot acc   z-rot acc
    22626 -2.59994E-02 1.84736E-03-3.61857E-04-7.55906E-03 6.64445E-04-9.60005E-04-1.22594E-03 4.12897E-04-4.67105E-04



 n o d a l   p r i n t   o u t   f o r   t i m e  s t e p   19002                              ( at time 9.4995493E+00 )

 nodal point  x-disp     y-disp      z-disp      x-vel       y-vel       z-vel      x-accl      y-accl      z-accl      x-coor      y-coor      z-coor
    22626  6.94358E-02 3.50126E+00 5.00312E-01 1.67655E-02 9.61764E-01 5.65445E-01 6.28054E-04 2.60558E-03 2.58805E-01 4.72881E+00-2.46896E+01-4.44814E+01



 n o d a l   p r i n t   o u t   f o r   t i m e  s t e p   19002                              ( at time 9.4995493E+00 )

 nodal point  x-rot      y-rot       z-rot       x-rot vel   y-rot vel   z-rot vel   x-rot acc   y-rot acc   z-rot acc
    22626 -2.67528E-02 1.91483E-03-4.57222E-04-7.59087E-03 6.78833E-04-9.24782E-04-3.18191E-04 1.43896E-04 3.52271E-04



 n o d a l   p r i n t   o u t   f o r   t i m e  s t e p   19202                              ( at time 9.5995393E+00 )

 nodal point  x-disp     y-disp      z-disp      x-vel       y-vel       z-vel      x-accl      y-accl      z-accl      x-coor      y-coor      z-coor
    22626  7.10269E-02 3.59877E+00 5.57721E-01 1.59925E-02 9.81488E-01 5.80709E-01-7.73089E-03 1.97256E-01 1.52653E-01 4.73040E+00-2.45921E+01-4.44240E+01



 n o d a l   p r i n t   o u t   f o r   t i m e  s t e p   19202                              ( at time 9.5995393E+00 )

 nodal point  x-rot      y-rot       z-rot       x-rot vel   y-rot vel   z-rot vel   x-rot acc   y-rot acc   z-rot acc
    22626 -2.75127E-02 1.98054E-03-5.53535E-04-7.62832E-03 6.95371E-04-9.66448E-04-3.74496E-04 1.65396E-04-4.16703E-04



 n o d a l   p r i n t   o u t   f o r   t i m e  s t e p   19402                              ( at time 9.6995293E+00 )

 nodal point  x-disp     y-disp      z-disp      x-vel       y-vel       z-vel      x-accl      y-accl      z-accl      x-coor      y-coor      z-coor
    22626  7.26237E-02 3.69710E+00 6.17140E-01 1.54917E-02 9.90732E-01 6.08327E-01-5.00890E-03 9.24532E-02 2.76212E-01 4.73200E+00-2.44937E+01-4.43646E+01



 n o d a l   p r i n t   o u t   f o r   t i m e  s t e p   19402                              ( at time 9.6995293E+00 )

 nodal point  x-rot      y-rot       z-rot       x-rot vel   y-rot vel   z-rot vel   x-rot acc   y-rot acc   z-rot acc
    22626 -2.82773E-02 2.05098E-03-6.51814E-04-7.70906E-03 7.50821E-04-9.23208E-04-8.07454E-04 5.54549E-04 4.32446E-04



 n o d a l   p r i n t   o u t   f o r   t i m e  s t e p   19602                              ( at time 9.7995193E+00 )

 nodal point  x-disp     y-disp      z-disp      x-vel       y-vel       z-vel      x-accl      y-accl      z-accl      x-coor      y-coor      z-coor
    22626  7.45276E-02 3.79690E+00 6.78887E-01 1.85771E-02 1.00094E+00 6.27524E-01 3.08569E-02 1.02098E-01 1.91989E-01 4.73390E+00-2.43939E+01-4.43028E+01



 n o d a l   p r i n t   o u t   f o r   t i m e  s t e p   19602                              ( at time 9.7995193E+00 )

 nodal point  x-rot      y-rot       z-rot       x-rot vel   y-rot vel   z-rot vel   x-rot acc   y-rot acc   z-rot acc
    22626 -2.90562E-02 2.12558E-03-7.46810E-04-7.80904E-03 7.44162E-04-9.71586E-04-9.99969E-04-6.65969E-05-4.83826E-04



 n o d a l   p r i n t   o u t   f o r   t i m e  s t e p   19802                              ( at time 9.8995093E+00 )

 nodal point  x-disp     y-disp      z-disp      x-vel       y-vel       z-vel      x-accl      y-accl      z-accl      x-coor      y-coor      z-coor
    22626  7.62458E-02 3.89761E+00 7.42539E-01 1.81216E-02 1.01705E+00 6.47758E-01-4.55532E-03 1.61154E-01 2.02355E-01 4.73562E+00-2.42932E+01-4.42392E+01



 n o d a l   p r i n t   o u t   f o r   t i m e  s t e p   19802                              ( at time 9.8995093E+00 )

 nodal point  x-rot      y-rot       z-rot       x-rot vel   y-rot vel   z-rot vel   x-rot acc   y-rot acc   z-rot acc
    22626 -2.98419E-02 2.19853E-03-8.44769E-04-7.92554E-03 7.18338E-04-9.65744E-04-1.16514E-03-2.58259E-04 5.84249E-05



 n o d a l   p r i n t   o u t   f o r   t i m e  s t e p   20003                              ( at time 9.9999992E+00 )

 nodal point  x-disp     y-disp      z-disp      x-vel       y-vel       z-vel      x-accl      y-accl      z-accl      x-coor      y-coor      z-coor
[...]
    22626 -2.22998E-01 1.69528E-02-1.28197E-02-1.83113E-02 1.50043E-03-7.32721E-04 1.78085E-05 1.27251E-04-6.84259E-05



 n o d a l   p r i n t   o u t   f o r   t i m e  s t e p   45205                              ( at time 2.2599738E+01 )

 nodal point  x-disp     y-disp      z-disp      x-vel       y-vel       z-vel      x-accl      y-accl      z-accl      x-coor      y-coor      z-coor
    22626  5.81086E-01 2.30041E+01 1.92056E+01 5.75757E-02 1.84804E+00 1.15424E+00 4.02830E-03 2.18101E-02-1.17613E-01 5.24046E+00-5.18673E+00-2.57761E+01



 n o d a l   p r i n t   o u t   f o r   t i m e  s t e p   45205                              ( at time 2.2599738E+01 )

 nodal point  x-rot      y-rot       z-rot       x-rot vel   y-rot vel   z-rot vel   x-rot acc   y-rot acc   z-rot acc
    22626 -2.24828E-01 1.71019E-02-1.28928E-02-1.82928E-02 1.48545E-03-7.28730E-04 1.84847E-04-1.49843E-04 3.99068E-05



 n o d a l   p r i n t   o u t   f o r   t i m e  s t e p   45405                              ( at time 2.2699728E+01 )

 nodal point  x-disp     y-disp      z-disp      x-vel       y-vel       z-vel      x-accl      y-accl      z-accl      x-coor      y-coor      z-coor
    22626  5.86874E-01 2.31891E+01 1.93205E+01 5.73636E-02 1.85172E+00 1.14468E+00-2.12130E-03 3.68302E-02-9.56582E-02 5.24625E+00-5.00175E+00-2.56612E+01



 n o d a l   p r i n t   o u t   f o r   t i m e  s t e p   45405                              ( at time 2.2699728E+01 )

 nodal point  x-rot      y-rot       z-rot       x-rot vel   y-rot vel   z-rot vel   x-rot acc   y-rot acc   z-rot acc
    22626 -2.26657E-01 1.72518E-02-1.29667E-02-1.82824E-02 1.50346E-03-7.48595E-04 1.04357E-04 1.80062E-04-1.98670E-04



 n o d a l   p r i n t   o u t   f o r   t i m e  s t e p   45605                              ( at time 2.2799718E+01 )

 nodal point  x-disp     y-disp      z-disp      x-vel       y-vel       z-vel      x-accl      y-accl      z-accl      x-coor      y-coor      z-coor
    22626  5.92580E-01 2.33743E+01 1.94345E+01 5.76326E-02 1.85409E+00 1.13415E+00 2.69028E-03 2.36342E-02-1.05248E-01 5.25196E+00-4.81648E+00-2.55473E+01



 n o d a l   p r i n t   o u t   f o r   t i m e  s t e p   45605                              ( at time 2.2799718E+01 )

 nodal point  x-rot      y-rot       z-rot       x-rot vel   y-rot vel   z-rot vel   x-rot acc   y-rot acc   z-rot acc
    22626 -2.28484E-01 1.74019E-02-1.30417E-02-1.82711E-02 1.49403E-03-7.59069E-04 1.12533E-04-9.42852E-05-1.04753E-04



 n o d a l   p r i n t   o u t   f o r   t i m e  s t e p   45805                              ( at time 2.2899708E+01 )

 nodal point  x-disp     y-disp      z-disp      x-vel       y-vel       z-vel      x-accl      y-accl      z-accl      x-coor      y-coor      z-coor
    22626  5.98448E-01 2.35599E+01 1.95473E+01 5.91177E-02 1.85676E+00 1.12496E+00 1.48529E-02 2.67213E-02-9.19396E-02 5.25782E+00-4.63096E+00-2.54344E+01



 n o d a l   p r i n t   o u t   f o r   t i m e  s t e p   45805                              ( at time 2.2899708E+01 )

 nodal point  x-rot      y-rot       z-rot       x-rot vel   y-rot vel   z-rot vel   x-rot acc   y-rot acc   z-rot acc
    22626 -2.30311E-01 1.75517E-02-1.31164E-02-1.82546E-02 1.50434E-03-7.40632E-04 1.65272E-04 1.03131E-04 1.84399E-04



 n o d a l   p r i n t   o u t   f o r   t i m e  s t e p   46005                              ( at time 2.2999698E+01 )

 nodal point  x-disp     y-disp      z-disp      x-vel       y-vel       z-vel      x-accl      y-accl      z-accl      x-coor      y-coor      z-coor
    22626  6.04319E-01 2.37457E+01 1.96593E+01 5.80575E-02 1.85918E+00 1.11518E+00-1.06035E-02 2.41945E-02-9.78655E-02 5.26369E+00-4.44517E+00-2.53224E+01



 n o d a l   p r i n t   o u t   f o r   t i m e  s t e p   46005                              ( at time 2.2999698E+01 )

 nodal point  x-rot      y-rot       z-rot       x-rot vel   y-rot vel   z-rot vel   x-rot acc   y-rot acc   z-rot acc
    22626 -2.32136E-01 1.77023E-02-1.31916E-02-1.82467E-02 1.50316E-03-7.64528E-04 7.86667E-05-1.17718E-05-2.38988E-04



 n o d a l   p r i n t   o u t   f o r   t i m e  s t e p   46205                              ( at time 2.3099688E+01 )

 nodal point  x-disp     y-disp      z-disp      x-vel       y-vel       z-vel      x-accl      y-accl      z-accl      x-coor      y-coor      z-coor
    22626  6.10147E-01 2.39317E+01 1.97704E+01 5.91115E-02 1.86178E+00 1.10575E+00 1.05411E-02 2.60477E-02-9.42644E-02 5.26952E+00-4.25914E+00-2.52113E+01



 n o d a l   p r i n t   o u t   f o r   t i m e  s t e p   46205                              ( at time 2.3099688E+01 )

 nodal point  x-rot      y-rot       z-rot       x-rot vel   y-rot vel   z-rot vel   x-rot acc   y-rot acc   z-rot acc
    22626 -2.33960E-01 1.78517E-02-1.32683E-02-1.82409E-02 1.49229E-03-7.67279E-04 5.85308E-05-1.08759E-04-2.75143E-05



 n o d a l   p r i n t   o u t   f o r   t i m e  s t e p   46405                              ( at time 2.3199678E+01 )

 nodal point  x-disp     y-disp      z-disp      x-vel       y-vel       z-vel      x-accl      y-accl      z-accl      x-coor      y-coor      z-coor
    22626  6.16105E-01 2.41180E+01 1.98805E+01 5.90906E-02 1.86438E+00 1.09735E+00-2.08971E-04 2.60138E-02-8.39978E-02 5.27548E+00-4.07282E+00-2.51012E+01



 n o d a l   p r i n t   o u t   f o r   t i m e  s t e p   46405                              ( at time 2.3199678E+01 )

 nodal point  x-rot      y-rot       z-rot       x-rot vel   y-rot vel   z-rot vel   x-rot acc   y-rot acc   z-rot acc
    22626 -2.35782E-01 1.80020E-02-1.33446E-02-1.82263E-02 1.50552E-03-7.61722E-04 1.45858E-04 1.32350E-04 5.55748E-05



 n o d a l   p r i n t   o u t   f o r   t i m e  s t e p   46605                              ( at time 2.3299668E+01 )

 nodal point  x-disp     y-disp      z-disp      x-vel       y-vel       z-vel      x-accl      y-accl      z-accl      x-coor      y-coor      z-coor
    22626  6.22054E-01 2.43045E+01 1.99899E+01 6.00606E-02 1.86546E+00 1.09002E+00 9.70102E-03 1.08051E-02-7.33540E-02 5.28143E+00-3.88633E+00-2.49918E+01



 n o d a l   p r i n t   o u t   f o r   t i m e  s t e p   46605                              ( at time 2.3299668E+01 )

 nodal point  x-rot      y-rot       z-rot       x-rot vel   y-rot vel   z-rot vel   x-rot acc   y-rot acc   z-rot acc
    22626 -2.37604E-01 1.81513E-02-1.34219E-02-1.82123E-02 1.48731E-03-7.82966E-04 1.40105E-04-1.82116E-04-2.12458E-04



 n o d a l   p r i n t   o u t   f o r   t i m e  s t e p   46805                              ( at time 2.3399658E+01 )

 nodal point  x-disp     y-disp      z-disp      x-vel       y-vel       z-vel      x-accl      y-accl      z-accl      x-coor      y-coor      z-coor
    22626  6.28062E-01 2.44912E+01 2.00985E+01 5.98459E-02 1.86846E+00 1.08213E+00-2.14727E-03 2.99350E-02-7.88511E-02 5.28744E+00-3.69966E+00-2.48832E+01



 n o d a l   p r i n t   o u t   f o r   t i m e  s t e p   46805                              ( at time 2.3399658E+01 )

 nodal point  x-rot      y-rot       z-rot       x-rot vel   y-rot vel   z-rot vel   x-rot acc   y-rot acc   z-rot acc
    22626 -2.39425E-01 1.83004E-02-1.35002E-02-1.81982E-02 1.49521E-03-7.80652E-04 1.40512E-04 7.90160E-05 2.31397E-05



 n o d a l   p r i n t   o u t   f o r   t i m e  s t e p   47005                              ( at time 2.3499648E+01 )

 nodal point  x-disp     y-disp      z-disp      x-vel       y-vel       z-vel      x-accl      y-accl      z-accl      x-coor      y-coor      z-coor
    22626  6.34043E-01 2.46781E+01 2.02063E+01 6.01372E-02 1.86992E+00 1.07502E+00 2.91385E-03 1.45878E-02-7.11172E-02 5.29342E+00-3.51277E+00-2.47754E+01



 n o d a l   p r i n t   o u t   f o r   t i m e  s t e p   47005                              ( at time 2.3499648E+01 )

 nodal point  x-rot      y-rot       z-rot       x-rot vel   y-rot vel   z-rot vel   x-rot acc   y-rot acc   z-rot acc
    22626 -2.41244E-01 1.84498E-02-1.35786E-02-1.81841E-02 1.47833E-03-7.82861E-04 1.41183E-04-1.68841E-04-2.20936E-05



 n o d a l   p r i n t   o u t   f o r   t i m e  s t e p   47205                              ( at time 2.3599638E+01 )

 nodal point  x-disp     y-disp      z-disp      x-vel       y-vel       z-vel      x-accl      y-accl      z-accl      x-coor      y-coor      z-coor
    22626  6.40096E-01 2.48651E+01 2.03135E+01 6.08896E-02 1.87048E+00 1.06919E+00 7.52461E-03 5.67618E-03-5.83034E-02 5.29947E+00-3.32577E+00-2.46682E+01



 n o d a l   p r i n t   o u t   f o r   t i m e  s t e p   47205                              ( at time 2.3599638E+01 )

 nodal point  x-rot      y-rot       z-rot       x-rot vel   y-rot vel   z-rot vel   x-rot acc   y-rot acc   z-rot acc
    22626 -2.43061E-01 1.85979E-02-1.36577E-02-1.81686E-02 1.49144E-03-7.85921E-04 1.55548E-04 1.31123E-04-3.06026E-05



 n o d a l   p r i n t   o u t   f o r   t i m e  s t e p   47405                              ( at time 2.3699628E+01 )

 nodal point  x-disp     y-disp      z-disp      x-vel       y-vel       z-vel      x-accl      y-accl      z-accl      x-coor      y-coor      z-coor
    22626  6.46178E-01 2.50522E+01 2.04200E+01 6.07754E-02 1.87232E+00 1.06210E+00-1.14254E-03 1.83241E-02-7.08859E-02 5.30555E+00-3.13867E+00-2.45617E+01



 n o d a l   p r i n t   o u t   f o r   t i m e  s t e p   47405                              ( at time 2.3699628E+01 )

 nodal point  x-rot      y-rot       z-rot       x-rot vel   y-rot vel   z-rot vel   x-rot acc   y-rot acc   z-rot acc
    22626 -2.44877E-01 1.87470E-02-1.37362E-02-1.81521E-02 1.48443E-03-7.78148E-04 1.64878E-04-7.00978E-05 7.77341E-05



 n o d a l   p r i n t   o u t   f o r   t i m e  s t e p   47605                              ( at time 2.3799618E+01 )

 nodal point  x-disp     y-disp      z-disp      x-vel       y-vel       z-vel      x-accl      y-accl      z-accl      x-coor      y-coor      z-coor
    22626  6.52240E-01 2.52394E+01 2.05259E+01 6.08437E-02 1.87211E+00 1.05772E+00 6.83033E-04-2.04943E-03-4.38333E-02 5.31161E+00-2.95145E+00-2.44558E+01



 n o d a l   p r i n t   o u t   f o r   t i m e  s t e p   47605                              ( at time 2.3799618E+01 )

 nodal point  x-rot      y-rot       z-rot       x-rot vel   y-rot vel   z-rot vel   x-rot acc   y-rot acc   z-rot acc
    22626 -2.46692E-01 1.88944E-02-1.38151E-02-1.81418E-02 1.47657E-03-7.95701E-04 1.02289E-04-7.86857E-05-1.75541E-04



 n o d a l   p r i n t   o u t   f o r   t i m e  s t e p   47805                              ( at time 2.3899608E+01 )

 nodal point  x-disp     y-disp      z-disp      x-vel       y-vel       z-vel      x-accl      y-accl      z-accl      x-coor      y-coor      z-coor
    22626  6.58320E-01 2.54266E+01 2.06314E+01 6.12890E-02 1.87245E+00 1.05074E+00 4.45358E-03 3.40374E-03-6.97653E-02 5.31769E+00-2.76426E+00-2.43504E+01



 n o d a l   p r i n t   o u t   f o r   t i m e  s t e p   47805                              ( at time 2.3899608E+01 )

 nodal point  x-rot      y-rot       z-rot       x-rot vel   y-rot vel   z-rot vel   x-rot acc   y-rot acc   z-rot acc
    22626 -2.48505E-01 1.90425E-02-1.38942E-02-1.81176E-02 1.48315E-03-7.86124E-04 2.41998E-04 6.58179E-05 9.57790E-05



 n o d a l   p r i n t   o u t   f o r   t i m e  s t e p   48005                              ( at time 2.3999598E+01 )

 nodal point  x-disp     y-disp      z-disp      x-vel       y-vel       z-vel      x-accl      y-accl      z-accl      x-coor      y-coor      z-coor
    22626  6.64479E-01 2.56138E+01 2.07362E+01 6.20309E-02 1.87255E+00 1.04608E+00 7.42033E-03 9.77624E-04-4.66160E-02 5.32385E+00-2.57703E+00-2.42456E+01



 n o d a l   p r i n t   o u t   f o r   t i m e  s t e p   48005                              ( at time 2.3999598E+01 )

 nodal point  x-rot      y-rot       z-rot       x-rot vel   y-rot vel   z-rot vel   x-rot acc   y-rot acc   z-rot acc
    22626 -2.50317E-01 1.91898E-02-1.39721E-02-1.81092E-02 1.46440E-03-7.92322E-04 8.43872E-05-1.87474E-04-6.19870E-05



 n o d a l   p r i n t   o u t   f o r   t i m e  s t e p   48205                              ( at time 2.4099588E+01 )

 nodal point  x-disp     y-disp      z-disp      x-vel       y-vel       z-vel      x-accl      y-accl      z-accl      x-coor      y-coor      z-coor
    22626  6.70650E-01 2.58010E+01 2.08405E+01 6.15641E-02 1.87190E+00 1.04146E+00-4.66863E-03-6.45458E-03-4.62443E-02 5.33002E+00-2.38983E+00-2.41412E+01



 n o d a l   p r i n t   o u t   f o r   t i m e  s t e p   48205                              ( at time 2.4099588E+01 )

 nodal point  x-rot      y-rot       z-rot       x-rot vel   y-rot vel   z-rot vel   x-rot acc   y-rot acc   z-rot acc
    22626 -2.52127E-01 1.93366E-02-1.40522E-02-1.80978E-02 1.47392E-03-8.06861E-04 1.13967E-04 9.51573E-05-1.45403E-04



 n o d a l   p r i n t   o u t   f o r   t i m e  s t e p   48405                              ( at time 2.4199578E+01 )

 nodal point  x-disp     y-disp      z-disp      x-vel       y-vel       z-vel      x-accl      y-accl      z-accl      x-coor      y-coor      z-coor
    22626  6.76863E-01 2.59881E+01 2.09444E+01 6.25235E-02 1.87090E+00 1.03724E+00 9.59544E-03-1.00600E-02-4.22179E-02 5.33624E+00-2.20272E+00-2.40373E+01



 n o d a l   p r i n t   o u t   f o r   t i m e  s t e p   48405                              ( at time 2.4199578E+01 )

 nodal point  x-rot      y-rot       z-rot       x-rot vel   y-rot vel   z-rot vel   x-rot acc   y-rot acc   z-rot acc
    22626 -2.53937E-01 1.94834E-02-1.41326E-02-1.80859E-02 1.46054E-03-8.06472E-04 1.19558E-04-1.33745E-04 3.88521E-06



 n o d a l   p r i n t   o u t   f o r   t i m e  s t e p   48605                              ( at time 2.4299568E+01 )

 nodal point  x-disp     y-disp      z-disp      x-vel       y-vel       z-vel      x-accl      y-accl      z-accl      x-coor      y-coor      z-coor
    22626  6.83134E-01 2.61751E+01 2.10479E+01 6.29131E-02 1.86971E+00 1.03232E+00 3.89634E-03-1.18219E-02-4.91998E-02 5.34251E+00-2.01571E+00-2.39338E+01



 n o d a l   p r i n t   o u t   f o r   t i m e  s t e p   48605                              ( at time 2.4299568E+01 )

 nodal point  x-rot      y-rot       z-rot       x-rot vel   y-rot vel   z-rot vel   x-rot acc   y-rot acc   z-rot acc
    22626 -2.55744E-01 1.96297E-02-1.42125E-02-1.80747E-02 1.46396E-03-8.00936E-04 1.11788E-04 3.42071E-05 5.53623E-05



 n o d a l   p r i n t   o u t   f o r   t i m e  s t e p   48805                              ( at time 2.4399558E+01 )

 nodal point  x-disp     y-disp      z-disp      x-vel       y-vel       z-vel      x-accl      y-accl      z-accl      x-coor      y-coor      z-coor
    22626  6.89503E-01 2.63620E+01 2.11510E+01 6.37768E-02 1.86821E+00 1.03001E+00 8.63728E-03-1.50337E-02-2.31025E-02 5.34888E+00-1.82886E+00-2.38307E+01



 n o d a l   p r i n t   o u t   f o r   t i m e  s t e p   48805                              ( at time 2.4399558E+01 )

 nodal point  x-rot      y-rot       z-rot       x-rot vel   y-rot vel   z-rot vel   x-rot acc   y-rot acc   z-rot acc
    22626 -2.57551E-01 1.97758E-02-1.42933E-02-1.80661E-02 1.45498E-03-8.07409E-04 8.61552E-05-8.98029E-05-6.47270E-05



 n o d a l   p r i n t   o u t   f o r   t i m e  s t e p   49006                              ( at time 2.4500048E+01 )

 nodal point  x-disp     y-disp      z-disp      x-vel       y-vel       z-vel      x-accl      y-accl      z-accl      x-coor      y-coor      z-coor
    22626  6.95894E-01 2.65496E+01 2.12543E+01 6.35341E-02 1.86674E+00 1.02588E+00-2.41530E-03-1.46365E-02-4.11301E-02 5.35527E+00-1.64122E+00-2.37274E+01



 n o d a l   p r i n t   o u t   f o r   t i m e  s t e p   49006                              ( at time 2.4500048E+01 )

 nodal point  x-rot      y-rot       z-rot       x-rot vel   y-rot vel   z-rot vel   x-rot acc   y-rot acc   z-rot acc
    22626 -2.59365E-01 1.99223E-02-1.43750E-02-1.80485E-02 1.45944E-03-8.20310E-04 1.74404E-04 4.42984E-05-1.28389E-04



 n o d a l   p r i n t   o u t   f o r   t i m e  s t e p   49206                              ( at time 2.4600038E+01 )

 nodal point  x-disp     y-disp      z-disp      x-vel       y-vel       z-vel      x-accl      y-accl      z-accl      x-coor      y-coor      z-coor
    22626  7.02321E-01 2.67361E+01 2.13567E+01 6.54331E-02 1.86330E+00 1.02401E+00 1.89919E-02-3.44189E-02-1.86890E-02 5.36170E+00-1.45471E+00-2.36250E+01



 n o d a l   p r i n t   o u t   f o r   t i m e  s t e p   49206                              ( at time 2.4600038E+01 )

 nodal point  x-rot      y-rot       z-rot       x-rot vel   y-rot vel   z-rot vel   x-rot acc   y-rot acc   z-rot acc
    22626 -2.61168E-01 2.00686E-02-1.44570E-02-1.80284E-02 1.45935E-03-8.24981E-04 2.01054E-04-8.62716E-07-4.67084E-05



 n o d a l   p r i n t   o u t   f o r   t i m e  s t e p   49406                              ( at time 2.4700028E+01 )

 nodal point  x-disp     y-disp      z-disp      x-vel       y-vel       z-vel      x-accl      y-accl      z-accl      x-coor      y-coor      z-coor
    22626  7.08879E-01 2.69224E+01 2.14590E+01 6.53136E-02 1.86216E+00 1.02167E+00-1.19506E-03-1.13977E-02-2.33461E-02 5.36825E+00-1.26843E+00-2.35227E+01



 n o d a l   p r i n t   o u t   f o r   t i m e  s t e p   49406                              ( at time 2.4700028E+01 )

 nodal point  x-rot      y-rot       z-rot       x-rot vel   y-rot vel   z-rot vel   x-rot acc   y-rot acc   z-rot acc
    22626 -2.62971E-01 2.02146E-02-1.45388E-02-1.80278E-02 1.45899E-03-8.11356E-04 6.83666E-06-3.62557E-06 1.36264E-04



 n o d a l   p r i n t   o u t   f o r   t i m e  s t e p   49606                              ( at time 2.4800018E+01 )

 nodal point  x-disp     y-disp      z-disp      x-vel       y-vel       z-vel      x-accl      y-accl      z-accl      x-coor      y-coor      z-coor
    22626  7.15432E-01 2.71085E+01 2.15611E+01 6.58097E-02 1.85898E+00 1.01903E+00 4.96180E-03-3.18366E-02-2.64490E-02 5.37481E+00-1.08236E+00-2.34206E+01



 n o d a l   p r i n t   o u t   f o r   t i m e  s t e p   49606                              ( at time 2.4800018E+01 )

 nodal point  x-rot      y-rot       z-rot       x-rot vel   y-rot vel   z-rot vel   x-rot acc   y-rot acc   z-rot acc
    22626 -2.64772E-01 2.03604E-02-1.46212E-02-1.80163E-02 1.46005E-03-8.31898E-04 1.14898E-04 1.06739E-05-2.05442E-04



 n o d a l   p r i n t   o u t   f o r   t i m e  s t e p   49806                              ( at time 2.4900008E+01 )

 nodal point  x-disp     y-disp      z-disp      x-vel       y-vel       z-vel      x-accl      y-accl      z-accl      x-coor      y-coor      z-coor
    22626  7.22051E-01 2.72942E+01 2.16629E+01 6.71282E-02 1.85673E+00 1.01825E+00 1.31862E-02-2.25044E-02-7.73396E-03 5.38143E+00-8.96585E-01-2.33188E+01



 n o d a l   p r i n t   o u t   f o r   t i m e  s t e p   49806                              ( at time 2.4900008E+01 )

 nodal point  x-rot      y-rot       z-rot       x-rot vel   y-rot vel   z-rot vel   x-rot acc   y-rot acc   z-rot acc
    22626 -2.66572E-01 2.05056E-02-1.47042E-02-1.79985E-02 1.45803E-03-8.22042E-04 1.78182E-04-2.02352E-05 9.85745E-05



 n o d a l   p r i n t   o u t   f o r   t i m e  s t e p   50006                              ( at time 2.4999998E+01 )

 nodal point  x-disp     y-disp      z-disp      x-vel       y-vel       z-vel      x-accl      y-accl      z-accl      x-coor      y-coor      z-coor
    22626  7.28791E-01 2.74798E+01 2.17647E+01 6.79726E-02 1.85430E+00 1.01768E+00 8.44481E-03-2.42673E-02-5.75714E-03 5.38817E+00-7.11039E-01-2.32170E+01



 n o d a l   p r i n t   o u t   f o r   t i m e  s t e p   50006                              ( at time 2.4999998E+01 )

 nodal point  x-rot      y-rot       z-rot       x-rot vel   y-rot vel   z-rot vel   x-rot acc   y-rot acc   z-rot acc
    22626 -2.68370E-01 2.06513E-02-1.47867E-02-1.79872E-02 1.46128E-03-8.22607E-04 1.12160E-04 3.24700E-05-5.65015E-06
