 LSTC 50th% Full_FE H-III Dummy (Beta Version, February 17, 2019)        
                    ls-dyna smp s R16 R16.0_619_d222963 date 03/18/2025

{BEGIN LEGEND}
 Entity #        Title
        1     Upper_Neck_Force_INJURY                                              
{END LEGEND}



 line#1  section#     time        x-force     y-force     z-force    magnitude
 line#2  resultant  moments       x-moment    y-moment    z-moment   magnitude
 line#3  centroids                x           y           z            area  
           1    0.00000E+00     0.0000E+00  0.0000E+00  0.0000E+00  0.0000E+00
ac ID =   33377                 0.0000E+00  0.0000E+00  0.0000E+00  0.0000E+00
                               -3.7437E-01  1.0501E+01 -4.6940E+01  0.0000E+00

           1    1.00490E-01     1.3626E-04 -4.9880E-03  2.5983E-01  2.5988E-01
ac ID =   33377                 4.2544E-01 -1.2521E+00 -2.7100E-02  1.3227E+00
                               -3.7387E-01  1.0590E+01 -4.6886E+01  2.5147E+03

           1    2.00480E-01    -4.4250E-02  5.4458E-04  4.4100E-01  4.4321E-01
ac ID =   33377                 3.1172E-01 -1.5968E+00  2.0701E-02  1.6271E+00
                               -3.7386E-01  1.0591E+01 -4.6888E+01  2.5147E+03

           1    3.00470E-01     1.4958E-02 -3.2387E-03  2.1740E-01  2.1793E-01
ac ID =   33377                 2.1651E-02 -3.4118E-01  6.7982E-02  3.4856E-01
                               -3.7382E-01  1.0591E+01 -4.6889E+01  2.5147E+03

           1    4.00460E-01     2.7512E-03  1.0559E-02  8.8074E-02  8.8748E-02
ac ID =   33377                -4.9545E-01 -9.4900E-01  4.0487E-03  1.0706E+00
                               -3.7383E-01  1.0592E+01 -4.6890E+01  2.5147E+03

           1    5.00450E-01    -4.0208E-02  4.1913E-03  1.6394E-01  1.6885E-01
ac ID =   33377                -3.9233E-01 -1.4884E+00 -1.0586E-01  1.5429E+00
                               -3.7385E-01  1.0594E+01 -4.6893E+01  2.5147E+03

           1    6.00440E-01    -9.6489E-03  3.6341E-03  3.4815E-01  3.4831E-01
ac ID =   33377                 9.5699E-02 -1.2854E+00 -4.0499E-02  1.2896E+00
                               -3.7386E-01  1.0595E+01 -4.6897E+01  2.5147E+03

           1    7.00430E-01     2.8123E-03 -5.1003E-03  2.9436E-01  2.9442E-01
ac ID =   33377                 1.3538E-01 -4.8003E-01  8.5499E-02  5.0603E-01
                               -3.7390E-01  1.0597E+01 -4.6901E+01  2.5147E+03

           1    8.00420E-01    -2.9705E-02 -1.1889E-03  1.0123E-01  1.0551E-01
ac ID =   33377                 8.3802E-02 -9.9757E-01  5.5597E-02  1.0026E+00
                               -3.7395E-01  1.0599E+01 -4.6904E+01  2.5147E+03

           1    9.00410E-01    -3.7898E-02  7.3664E-04  6.8855E-02  7.8599E-02
ac ID =   33377                 8.8433E-02 -1.0201E+00 -1.4089E-02  1.0241E+00
                               -3.7400E-01  1.0601E+01 -4.6909E+01  2.5147E+03

           1    1.00040E+00     1.7517E-02 -4.0898E-03  2.3083E-01  2.3153E-01
ac ID =   33377                 3.7287E-01 -2.1973E-01 -5.8817E-02  4.3677E-01
                               -3.7402E-01  1.0604E+01 -4.6915E+01  2.5147E+03

           1    1.10039E+00     1.8078E-03 -3.1638E-03  2.7290E-01  2.7292E-01
ac ID =   33377                 3.4633E-01 -7.8488E-01 -4.5347E-02  8.5909E-01
                               -3.7404E-01  1.0606E+01 -4.6921E+01  2.5147E+03

           1    1.20038E+00    -3.1178E-02  3.1741E-04  1.2927E-01  1.3297E-01
ac ID =   33377                -1.7227E-01 -1.0852E+00  1.5956E-02  1.0989E+00
                               -3.7407E-01  1.0609E+01 -4.6926E+01  2.5147E+03

           1    1.30037E+00    -6.2448E-03  4.8329E-03  8.3598E-02  8.3970E-02
ac ID =   33377                -3.0226E-01 -7.4932E-01  3.8974E-03  8.0800E-01
                               -3.7411E-01  1.0612E+01 -4.6932E+01  2.5147E+03

           1    1.40036E+00     9.2205E-03  2.6627E-03  1.8901E-01  1.8925E-01
ac ID =   33377                -2.7303E-01 -7.2319E-01  1.3917E-02  7.7313E-01
                               -3.7414E-01  1.0615E+01 -4.6939E+01  2.5147E+03

           1    1.50035E+00    -2.3682E-02  8.9183E-04  3.3453E-01  3.3537E-01
ac ID =   33377                -1.4630E-02 -1.4269E+00 -1.1446E-02  1.4271E+00
                               -3.7419E-01  1.0619E+01 -4.6947E+01  2.5147E+03

           1    1.60034E+00    -1.5003E-02 -1.2834E-03  2.2149E-01  2.2200E-01
ac ID =   33377                -3.6779E-02 -1.1636E+00  4.6119E-03  1.1642E+00
                               -3.7427E-01  1.0622E+01 -4.6954E+01  2.5147E+03

           1    1.70033E+00     2.4818E-03 -4.3635E-04  6.8685E-02  6.8731E-02
ac ID =   33377                -4.2485E-02 -4.7046E-01  7.4366E-02  4.7820E-01
                               -3.7434E-01  1.0626E+01 -4.6962E+01  2.5147E+03

           1    1.80032E+00    -1.7430E-02  3.6018E-04  9.3033E-02  9.4653E-02
ac ID =   33377                 9.4587E-02 -9.5452E-01  1.2450E-01  9.6724E-01
                               -3.7442E-01  1.0630E+01 -4.6971E+01  2.5147E+03

           1    1.90031E+00    -2.7372E-03 -2.3550E-03  1.9994E-01  1.9997E-01
ac ID =   33377                 2.4169E-01 -5.8394E-01 -6.5093E-02  6.3532E-01
                               -3.7447E-01  1.0634E+01 -4.6980E+01  2.5147E+03

           1    2.00030E+00     5.8045E-03 -3.0973E-03  1.5958E-01  1.5971E-01
ac ID =   33377                 1.7419E-01 -1.5509E-01 -1.2844E-01  2.6625E-01
                               -3.7453E-01  1.0639E+01 -4.6989E+01  2.5147E+03

           1    2.10029E+00    -1.9692E-02  7.7172E-04  9.1235E-03  2.1717E-02
ac ID =   33377                -6.8118E-02 -4.1672E-01  5.8588E-02  4.2630E-01
                               -3.7460E-01  1.0643E+01 -4.6997E+01  2.5147E+03

           1    2.20028E+00    -4.0327E-03  5.5641E-03  1.5223E-02  1.6702E-02
ac ID =   33377                -2.4580E-01 -3.1417E-01  3.7953E-02  4.0070E-01
                               -3.7466E-01  1.0648E+01 -4.7007E+01  2.5147E+03

           1    2.30027E+00     1.2343E-02  3.4850E-03  1.6058E-01  1.6109E-01
ac ID =   33377                -1.5288E-01 -4.1578E-01 -4.7125E-02  4.4550E-01
                               -3.7473E-01  1.0653E+01 -4.7017E+01  2.5147E+03

           1    2.40026E+00    -6.6733E-03 -4.6500E-03  1.8924E-01  1.8942E-01
ac ID =   33377                -1.2015E-01 -7.6672E-01  1.9152E-01  7.9936E-01
                               -3.7483E-01  1.0658E+01 -4.7027E+01  2.5147E+03

           1    2.50025E+00    -5.8185E-03 -8.9730E-04  1.5066E-03  6.0770E-03
ac ID =   33377                -1.3183E-01 -3.8199E-01  2.5004E-01  4.7520E-01
                               -3.7498E-01  1.0663E+01 -4.7037E+01  2.5147E+03

           1    2.60024E+00     8.4853E-03  6.3467E-03 -6.9513E-02  7.0316E-02
ac ID =   33377                -1.5636E-01  3.4628E-01  5.6164E-02  3.8407E-01
                               -3.7516E-01  1.0668E+01 -4.7047E+01  2.5147E+03

           1    2.70023E+00     7.0817E-03 -4.3933E-03  4.8925E-03  9.6638E-03
ac ID =   33377                 1.3336E-01  3.7836E-01  4.6462E-02  4.0386E-01
                               -3.7536E-01  1.0674E+01 -4.7058E+01  2.5147E+03

           1    2.80022E+00     2.0297E-02 -1.0365E-02  4.9462E-02  5.4459E-02
ac ID =   33377                 4.5197E-01  7.1433E-01  3.9960E-02  8.4625E-01
                               -3.7557E-01  1.0681E+01 -4.7069E+01  2.5147E+03

           1    2.90021E+00     3.3847E-02 -6.9529E-03 -3.2108E-02  4.7169E-02
ac ID =   33377                 2.6235E-01  1.2169E+00 -1.1671E-02  1.2449E+00
                               -3.7583E-01  1.0687E+01 -4.7079E+01  2.5147E+03

           1    3.00020E+00     2.6883E-02 -2.5678E-03 -1.1353E-01  1.1670E-01
ac ID =   33377                 1.6632E-01  1.2245E+00  3.6854E-02  1.2363E+00
                               -3.7612E-01  1.0694E+01 -4.7090E+01  2.5147E+03

           1    3.10019E+00     3.5390E-02 -1.0203E-03 -3.4020E-02  4.9101E-02
ac ID =   33377                 1.2654E-01  1.0733E+00 -1.0543E-02  1.0807E+00
                               -3.7644E-01  1.0702E+01 -4.7101E+01  2.5147E+03

           1    3.20018E+00     4.1919E-02 -8.4311E-03  1.7195E-02  4.6086E-02
ac ID =   33377                 2.1059E-01  1.0408E+00  2.3259E-01  1.0871E+00
                               -3.7681E-01  1.0710E+01 -4.7113E+01  2.5147E+03

           1    3.30017E+00     4.9748E-02 -8.1090E-03 -3.8170E-02  6.3227E-02
ac ID =   33377                 2.2355E-02  1.0002E+00  2.7546E-01  1.0377E+00
                               -3.7725E-01  1.0719E+01 -4.7124E+01  2.5147E+03

           1    3.40016E+00     4.7915E-02 -1.2560E-03 -1.7248E-01  1.7902E-01
ac ID =   33377                -1.7367E-01  1.6065E+00  2.4317E-02  1.6160E+00
                               -3.7773E-01  1.0728E+01 -4.7136E+01  2.5147E+03

           1    3.50015E+00     5.9057E-02 -2.9123E-04 -2.1243E-01  2.2049E-01
ac ID =   33377                 2.7416E-01  2.1301E+00  3.5827E-01  2.1773E+00
                               -3.7825E-01  1.0739E+01 -4.7148E+01  2.5147E+03

           1    3.60014E+00     4.8838E-02  3.3183E-04 -1.2007E-01  1.2962E-01
ac ID =   33377                 3.0183E-01  2.3893E+00 -1.2679E-01  2.4116E+00
                               -3.7880E-01  1.0751E+01 -4.7161E+01  2.5147E+03

           1    3.70013E+00     7.6557E-02 -1.2587E-02 -1.6897E-01  1.8593E-01
ac ID =   33377                 5.6899E-01  3.0352E+00 -4.7952E-01  3.1251E+00
                               -3.7938E-01  1.0763E+01 -4.7173E+01  2.5147E+03

           1    3.80012E+00     7.4079E-02 -3.7877E-02 -2.4912E-01  2.6264E-01
ac ID =   33377                 9.1709E-01  3.2566E+00  3.9301E-01  3.4060E+00
                               -3.7998E-01  1.0777E+01 -4.7186E+01  2.5147E+03

           1    3.90011E+00     8.0921E-02  2.8429E-03 -3.2563E-01  3.3555E-01
ac ID =   33377                 5.1548E-01  3.5511E+00 -3.2988E-01  3.6034E+00
                               -3.8061E-01  1.0791E+01 -4.7199E+01  2.5147E+03

           1    4.00010E+00     5.1611E-02 -1.4817E-02 -2.9223E-01  2.9713E-01
ac ID =   33377                 2.8818E-01  2.7474E+00  2.0248E-01  2.7699E+00
                               -3.8123E-01  1.0808E+01 -4.7212E+01  2.5147E+03

           1    4.10009E+00     8.7993E-02 -1.3953E-02 -2.3238E-01  2.4887E-01
ac ID =   33377                 5.2313E-01  2.8223E+00  1.3527E+00  3.1731E+00
                               -3.8184E-01  1.0825E+01 -4.7226E+01  2.5147E+03

           1    4.20008E+00     8.8790E-02 -1.8247E-03 -3.2455E-01  3.3648E-01
ac ID =   33377                 2.9924E-01  3.0671E+00 -2.9725E-01  3.0959E+00
                               -3.8249E-01  1.0843E+01 -4.7239E+01  2.5147E+03

           1    4.30007E+00     9.7768E-02 -3.9147E-03 -4.6302E-01  4.7324E-01
ac ID =   33377                 3.2400E-01  3.4974E+00 -5.9366E-02  3.5129E+00
                               -3.8322E-01  1.0863E+01 -4.7253E+01  2.5147E+03

           1    4.40006E+00     8.7855E-02  1.7516E-02 -3.7374E-01  3.8433E-01
ac ID =   33377                 1.8523E-03  3.5393E+00  6.2252E-01  3.5937E+00
                               -3.8395E-01  1.0885E+01 -4.7267E+01  2.5147E+03

           1    4.50005E+00     1.0360E-01  3.3353E-02 -3.9526E-01  4.0997E-01
ac ID =   33377                 4.0284E-01  4.2861E+00 -8.6467E-01  4.3910E+00
                               -3.8453E-01  1.0908E+01 -4.7281E+01  2.5147E+03

           1    4.60004E+00     1.0328E-01 -5.4596E-02 -4.0717E-01  4.2359E-01
ac ID =   33377                 1.3049E+00  3.9412E+00 -3.4997E-01  4.1663E+00
                               -3.8509E-01  1.0933E+01 -4.7295E+01  2.5147E+03

           1    4.70003E+00     1.0907E-01 -3.3709E-03 -5.0317E-01  5.1487E-01
ac ID =   33377                 5.3920E-01  4.2878E+00  4.6010E-01  4.3459E+00
                               -3.8567E-01  1.0959E+01 -4.7310E+01  2.5147E+03

           1    4.80002E+00     9.9872E-02  3.6741E-02 -5.8545E-01  5.9505E-01
ac ID =   33377                 6.4411E-02  3.9761E+00 -8.4609E-01  4.0656E+00
                               -3.8625E-01  1.0988E+01 -4.7324E+01  2.5147E+03

           1    4.90001E+00     1.0982E-01 -4.2020E-02 -4.9833E-01  5.1202E-01
ac ID =   33377                 1.4530E+00  3.5859E+00  7.9855E-02  3.8699E+00
                               -3.8674E-01  1.1018E+01 -4.7339E+01  2.5147E+03

           1    5.00000E+00     8.2542E-02 -2.3209E-02 -5.5244E-01  5.5905E-01
ac ID =   33377                 3.6850E-01  4.1035E+00  7.2413E-01  4.1831E+00
                               -3.8720E-01  1.1049E+01 -4.7354E+01  2.5147E+03

           1    5.10049E+00     1.3090E-01  2.8224E-02 -6.6017E-01  6.7361E-01
ac ID =   33377                 8.4735E-02  4.5031E+00  1.6727E-01  4.5070E+00
                               -3.8774E-01  1.1083E+01 -4.7369E+01  2.5147E+03

           1    5.20048E+00     9.6083E-02  1.4571E-02 -6.3168E-01  6.3911E-01
ac ID =   33377                 2.5586E-01  4.1586E+00 -3.8957E-01  4.1846E+00
                               -3.8823E-01  1.1118E+01 -4.7384E+01  2.5147E+03

           1    5.30047E+00     1.2038E-01 -3.8784E-02 -7.1319E-01  7.2432E-01
ac ID =   33377                 4.6427E-01  5.0742E+00 -4.9026E-01  5.1190E+00
                               -3.8856E-01  1.1155E+01 -4.7399E+01  2.5147E+03

           1    5.40046E+00     1.0719E-01  1.6979E-02 -6.9441E-01  7.0284E-01
ac ID =   33377                 2.8601E-02  4.5529E+00  2.3994E-01  4.5593E+00
                               -3.8890E-01  1.1194E+01 -4.7415E+01  2.5147E+03

           1    5.50045E+00     1.2941E-01 -1.5085E-02 -7.5160E-01  7.6281E-01
ac ID =   33377                 1.2159E+00  3.9670E+00 -5.4439E-01  4.1847E+00
                               -3.8922E-01  1.1234E+01 -4.7430E+01  2.5147E+03

           1    5.60044E+00     1.0138E-01  2.0762E-02 -8.8583E-01  8.9186E-01
ac ID =   33377                 6.0606E-01  4.6983E+00 -3.7852E-01  4.7524E+00
                               -3.8949E-01  1.1276E+01 -4.7445E+01  2.5147E+03

           1    5.70043E+00     1.4132E-01 -1.0836E-02 -8.4592E-01  8.5771E-01
ac ID =   33377                 4.6217E-01  5.0018E+00  1.1164E+00  5.1457E+00
                               -3.8959E-01  1.1320E+01 -4.7460E+01  2.5147E+03

           1    5.80042E+00     1.1990E-01 -1.4947E-02 -8.6952E-01  8.7787E-01
ac ID =   33377                 1.0590E+00  4.3582E+00  1.3482E-01  4.4871E+00
                               -3.8973E-01  1.1365E+01 -4.7475E+01  2.5147E+03

           1    5.90041E+00     1.3136E-01  3.1088E-02 -9.6677E-01  9.7615E-01
ac ID =   33377                 5.6485E-01  5.0423E+00 -1.9972E+00  5.4527E+00
                               -3.8974E-01  1.1412E+01 -4.7489E+01  2.5147E+03

           1    6.00040E+00     1.3562E-01 -2.6940E-02 -9.1785E-01  9.2820E-01
ac ID =   33377                 3.4010E-01  5.3349E+00  8.2874E-02  5.3464E+00
                               -3.8944E-01  1.1461E+01 -4.7503E+01  2.5147E+03

           1    6.10039E+00     1.3250E-01 -3.9377E-04 -1.0093E+00  1.0180E+00
ac ID =   33377                 1.0651E+00  3.8043E+00 -6.6647E-03  3.9506E+00
                               -3.8928E-01  1.1511E+01 -4.7517E+01  2.5147E+03

           1    6.20038E+00     1.2128E-01  8.1598E-03 -9.8272E-01  9.9021E-01
ac ID =   33377                -2.0704E-01  4.6349E+00 -2.2192E-01  4.6448E+00
                               -3.8897E-01  1.1563E+01 -4.7531E+01  2.5147E+03

           1    6.30037E+00     1.3139E-01  2.9143E-02 -1.0322E+00  1.0410E+00
ac ID =   33377                 7.3109E-01  4.1772E+00 -5.4602E-01  4.2757E+00
                               -3.8847E-01  1.1616E+01 -4.7544E+01  2.5147E+03

           1    6.40036E+00     1.1377E-01 -2.7299E-02 -1.1544E+00  1.1603E+00
ac ID =   33377                 3.3109E-02  5.8738E+00 -6.4832E-01  5.9095E+00
                               -3.8779E-01  1.1672E+01 -4.7556E+01  2.5147E+03

           1    6.50035E+00     1.7659E-01  2.2187E-02 -1.1674E+00  1.1809E+00
ac ID =   33377                 1.0244E+00  5.2865E+00  9.5503E-01  5.4689E+00
                               -3.8709E-01  1.1728E+01 -4.7568E+01  2.5147E+03

           1    6.60034E+00     9.4023E-02 -5.2419E-03 -1.1628E+00  1.1667E+00
ac ID =   33377                 2.8330E-01  5.2901E+00  4.0073E-01  5.3128E+00
                               -3.8624E-01  1.1786E+01 -4.7579E+01  2.5147E+03

           1    6.70033E+00     1.6382E-01  3.9112E-02 -1.2290E+00  1.2405E+00
ac ID =   33377                -2.0855E-01  5.7088E+00  4.3627E-01  5.7293E+00
                               -3.8506E-01  1.1845E+01 -4.7590E+01  2.5147E+03

           1    6.80032E+00     1.7154E-01 -4.8353E-03 -1.1910E+00  1.2033E+00
ac ID =   33377                 1.1945E+00  6.8275E+00  4.7510E-01  6.9475E+00
                               -3.8377E-01  1.1905E+01 -4.7600E+01  2.5147E+03

           1    6.90031E+00     1.6104E-01  2.6987E-02 -1.3201E+00  1.3302E+00
ac ID =   33377                -2.5512E-01  5.2291E+00 -1.1112E+00  5.3520E+00
                               -3.8213E-01  1.1966E+01 -4.7608E+01  2.5147E+03

           1    7.00030E+00     1.2057E-01  2.5770E-02 -1.3273E+00  1.3330E+00
ac ID =   33377                -3.4660E-01  6.4760E+00 -1.8470E+00  6.7432E+00
                               -3.8038E-01  1.2030E+01 -4.7616E+01  2.5147E+03

           1    7.10029E+00     2.0246E-01 -2.4666E-03 -1.3563E+00  1.3714E+00
ac ID =   33377                 6.1012E-01  6.6593E+00 -6.2796E-01  6.7166E+00
                               -3.7843E-01  1.2094E+01 -4.7623E+01  2.5147E+03

           1    7.20028E+00     1.7923E-01  2.1817E-02 -1.4055E+00  1.4171E+00
ac ID =   33377                -9.4558E-01  6.3332E+00 -2.1699E-01  6.4071E+00
                               -3.7630E-01  1.2159E+01 -4.7630E+01  2.5147E+03

           1    7.30027E+00     1.6267E-01  1.1099E-02 -1.5105E+00  1.5193E+00
ac ID =   33377                 1.0587E+00  6.4534E+00  3.7772E-03  6.5396E+00
                               -3.7399E-01  1.2226E+01 -4.7634E+01  2.5147E+03

           1    7.40026E+00     1.6379E-01  3.5997E-02 -1.5908E+00  1.5997E+00
ac ID =   33377                 1.1365E-01  7.7732E+00 -4.2023E-02  7.7742E+00
                               -3.7166E-01  1.2294E+01 -4.7638E+01  2.5147E+03

           1    7.50025E+00     2.4078E-01 -8.0443E-03 -1.5299E+00  1.5487E+00
ac ID =   33377                 5.4492E-01  7.7471E+00 -1.3929E+00  7.8902E+00
                               -3.6907E-01  1.2364E+01 -4.7641E+01  2.5147E+03

           1    7.60024E+00     1.6754E-01  1.9209E-02 -1.5297E+00  1.5390E+00
ac ID =   33377                 1.9341E-01  7.6465E+00 -4.0023E-01  7.6594E+00
                               -3.6624E-01  1.2435E+01 -4.7643E+01  2.5147E+03

           1    7.70023E+00     2.2827E-01 -3.3420E-02 -1.6560E+00  1.6719E+00
ac ID =   33377                 5.4690E-01  8.5054E+00  1.1741E+00  8.6034E+00
                               -3.6330E-01  1.2507E+01 -4.7643E+01  2.5147E+03

           1    7.80022E+00     2.2474E-01  5.0393E-02 -1.6327E+00  1.6489E+00
ac ID =   33377                -2.9666E-01  8.6451E+00  4.6230E-01  8.6626E+00
                               -3.6051E-01  1.2580E+01 -4.7642E+01  2.5147E+03

           1    7.90021E+00     1.7935E-01  3.7509E-02 -1.6412E+00  1.6514E+00
ac ID =   33377                -7.8742E-01  7.7080E+00 -4.3425E-01  7.7602E+00
                               -3.5722E-01  1.2655E+01 -4.7640E+01  2.5147E+03

           1    8.00020E+00     2.4357E-01 -2.3181E-02 -1.6816E+00  1.6993E+00
ac ID =   33377                 1.1133E-01  9.0266E+00 -7.1729E-01  9.0557E+00
                               -3.5382E-01  1.2731E+01 -4.7637E+01  2.5147E+03

           1    8.10019E+00     2.6351E-01 -4.6879E-03 -1.7399E+00  1.7598E+00
ac ID =   33377                 2.7733E-01  1.0062E+01 -3.2881E-01  1.0071E+01
                               -3.5069E-01  1.2809E+01 -4.7632E+01  2.5147E+03

           1    8.20018E+00     1.9965E-01  7.4266E-02 -1.8243E+00  1.8367E+00
ac ID =   33377                -1.0468E+00  8.9206E+00 -2.4665E-01  8.9852E+00
                               -3.4735E-01  1.2887E+01 -4.7625E+01  2.5147E+03

           1    8.30017E+00     2.4405E-01 -7.5522E-03 -1.8440E+00  1.8601E+00
ac ID =   33377                 4.0702E-02  9.9102E+00  1.2749E-01  9.9111E+00
                               -3.4360E-01  1.2967E+01 -4.7617E+01  2.5147E+03

           1    8.40016E+00     3.2490E-01 -5.9957E-02 -1.7820E+00  1.8124E+00
ac ID =   33377                 2.4377E+00  1.1601E+01 -5.4397E-01  1.1867E+01
                               -3.3991E-01  1.3049E+01 -4.7608E+01  2.5147E+03

           1    8.50015E+00     2.1434E-01  5.5551E-02 -1.8968E+00  1.9097E+00
ac ID =   33377                -6.9301E-01  9.5503E+00 -6.9116E-01  9.6003E+00
                               -3.3631E-01  1.3131E+01 -4.7597E+01  2.5147E+03

           1    8.60014E+00     2.7391E-01  3.5771E-02 -1.9585E+00  1.9779E+00
ac ID =   33377                -2.3786E-01  1.1257E+01 -2.3038E-01  1.1262E+01
                               -3.3225E-01  1.3215E+01 -4.7585E+01  2.5147E+03

           1    8.70013E+00     2.9094E-01 -1.8616E-02 -1.9158E+00  1.9378E+00
ac ID =   33377                 9.9278E-01  1.1559E+01 -8.2710E-01  1.1631E+01
                               -3.2817E-01  1.3300E+01 -4.7572E+01  2.5147E+03

           1    8.80012E+00     2.5422E-01 -2.7758E-03 -1.9625E+00  1.9789E+00
ac ID =   33377                -2.8719E-01  1.1675E+01 -5.0650E-01  1.1690E+01
                               -3.2407E-01  1.3386E+01 -4.7557E+01  2.5147E+03

           1    8.90011E+00     2.5949E-01  8.3843E-02 -2.0160E+00  2.0343E+00
ac ID =   33377                -1.4455E+00  1.1284E+01 -5.2617E-01  1.1388E+01
                               -3.1995E-01  1.3474E+01 -4.7540E+01  2.5147E+03

           1    9.00010E+00     3.0732E-01 -1.5692E-02 -2.0751E+00  2.0978E+00
ac ID =   33377                 1.3178E-02  1.2058E+01 -9.7008E-01  1.2097E+01
                               -3.1545E-01  1.3563E+01 -4.7522E+01  2.5147E+03

           1    9.10009E+00     3.0304E-01 -1.7822E-02 -2.0823E+00  2.1043E+00
ac ID =   33377                 9.0100E-01  1.2841E+01 -5.9634E-01  1.2886E+01
                               -3.1090E-01  1.3653E+01 -4.7503E+01  2.5147E+03

           1    9.20008E+00     2.8880E-01  2.1939E-02 -2.0250E+00  2.0456E+00
ac ID =   33377                -6.8323E-01  1.2163E+01  2.7993E-01  1.2186E+01
                               -3.0627E-01  1.3745E+01 -4.7481E+01  2.5147E+03

           1    9.30007E+00     2.8343E-01  2.6274E-02 -2.1109E+00  2.1300E+00
ac ID =   33377                 5.6308E-01  1.2245E+01  1.3098E-01  1.2259E+01
                               -3.0151E-01  1.3837E+01 -4.7458E+01  2.5147E+03

           1    9.40006E+00     3.5103E-01 -2.1089E-02 -2.0894E+00  2.1188E+00
ac ID =   33377                 8.8595E-01  1.2893E+01 -3.5246E-02  1.2923E+01
                               -2.9659E-01  1.3931E+01 -4.7434E+01  2.5147E+03

           1    9.50005E+00     2.6149E-01  2.2030E-02 -2.1010E+00  2.1173E+00
ac ID =   33377                -1.2772E-01  1.1961E+01  2.2762E-01  1.1964E+01
                               -2.9148E-01  1.4025E+01 -4.7407E+01  2.5147E+03

           1    9.60004E+00     3.2747E-01  1.7660E-02 -2.1158E+00  2.1410E+00
ac ID =   33377                -4.0340E-01  1.2468E+01 -3.7344E-01  1.2480E+01
                               -2.8640E-01  1.4121E+01 -4.7378E+01  2.5147E+03

           1    9.70003E+00     3.0665E-01 -1.4298E-02 -2.1356E+00  2.1575E+00
ac ID =   33377                 5.9434E-01  1.1790E+01  1.7163E-01  1.1806E+01
                               -2.8117E-01  1.4217E+01 -4.7348E+01  2.5147E+03

           1    9.80002E+00     3.2762E-01  1.8748E-02 -2.1360E+00  2.1610E+00
ac ID =   33377                -1.4626E-01  1.3359E+01 -1.0789E+00  1.3403E+01
                               -2.7589E-01  1.4315E+01 -4.7317E+01  2.5147E+03

           1    9.90001E+00     2.9161E-01 -5.1232E-03 -2.1251E+00  2.1450E+00
ac ID =   33377                -2.9110E-01  1.2625E+01 -8.0342E-01  1.2653E+01
                               -2.7056E-01  1.4414E+01 -4.7283E+01  2.5147E+03

           1    1.00005E+01     2.8004E-01 -2.0307E-02 -2.2551E+00  2.2725E+00
ac ID =   33377                 1.3085E+00  1.3637E+01 -3.2195E-01  1.3703E+01
                               -2.6515E-01  1.4515E+01 -4.7247E+01  2.5147E+03

           1    1.01005E+01     3.6418E-01  3.8824E-03 -2.2211E+00  2.2507E+00
ac ID =   33377                 1.6567E-01  1.3415E+01 -7.7764E-01  1.3438E+01
                               -2.5963E-01  1.4616E+01 -4.7210E+01  2.5147E+03

           1    1.02005E+01     2.9055E-01  1.7995E-02 -2.2150E+00  2.2341E+00
ac ID =   33377                 4.3266E-01  1.3660E+01 -2.0250E+00  1.3816E+01
                               -2.5418E-01  1.4719E+01 -4.7171E+01  2.5147E+03

           1    1.03005E+01     3.1765E-01 -3.5165E-02 -2.2217E+00  2.2446E+00
ac ID =   33377                 4.3754E-01  1.2607E+01 -6.9235E-01  1.2633E+01
                               -2.4835E-01  1.4823E+01 -4.7130E+01  2.5147E+03

           1    1.04005E+01     3.0519E-01 -4.0762E-02 -2.2629E+00  2.2838E+00
ac ID =   33377                 1.4552E+00  1.3849E+01 -4.0989E-01  1.3931E+01
                               -2.4251E-01  1.4928E+01 -4.7088E+01  2.5147E+03

           1    1.05004E+01     3.4115E-01  4.8787E-02 -2.3147E+00  2.3402E+00
ac ID =   33377                -7.0981E-01  1.3168E+01  3.3572E-01  1.3191E+01
                               -2.3668E-01  1.5034E+01 -4.7043E+01  2.5147E+03

           1    1.06004E+01     3.4352E-01  8.9431E-03 -2.2604E+00  2.2864E+00
ac ID =   33377                 9.9963E-02  1.3328E+01  3.8020E-01  1.3334E+01
                               -2.3080E-01  1.5142E+01 -4.6998E+01  2.5147E+03

           1    1.07004E+01     3.2635E-01 -3.1117E-02 -2.1716E+00  2.1962E+00
ac ID =   33377                 1.1985E+00  1.2766E+01  1.3885E-01  1.2823E+01
                               -2.2463E-01  1.5251E+01 -4.6950E+01  2.5147E+03

           1    1.08004E+01     3.1028E-01 -1.7668E-02 -2.2738E+00  2.2950E+00
ac ID =   33377                 3.8990E-01  1.2690E+01  3.0251E-01  1.2700E+01
                               -2.1847E-01  1.5362E+01 -4.6900E+01  2.5147E+03

           1    1.09004E+01     3.5507E-01  2.8354E-02 -2.2876E+00  2.3151E+00
ac ID =   33377                 7.1507E-01  1.3494E+01  7.5907E-02  1.3513E+01
                               -2.1257E-01  1.5473E+01 -4.6848E+01  2.5147E+03

           1    1.10004E+01     3.1628E-01  1.5488E-03 -2.2565E+00  2.2785E+00
ac ID =   33377                 2.8845E-01  1.1702E+01  2.9266E-01  1.1709E+01
                               -2.0625E-01  1.5586E+01 -4.6795E+01  2.5147E+03

           1    1.11004E+01     3.1153E-01 -5.4403E-02 -2.2448E+00  2.2670E+00
ac ID =   33377                 1.7123E+00  1.3015E+01 -6.2476E-01  1.3142E+01
                               -1.9994E-01  1.5700E+01 -4.6740E+01  2.5147E+03

           1    1.12004E+01     3.1746E-01  2.2268E-03 -2.2230E+00  2.2455E+00
ac ID =   33377                 6.1258E-01  1.2470E+01 -1.5626E+00  1.2583E+01
                               -1.9391E-01  1.5815E+01 -4.6683E+01  2.5147E+03

           1    1.13004E+01     2.8490E-01  4.3010E-02 -2.2469E+00  2.2653E+00
ac ID =   33377                -7.6402E-02  1.2646E+01 -1.1525E+00  1.2698E+01
                               -1.8766E-01  1.5932E+01 -4.6625E+01  2.5147E+03

           1    1.14004E+01     3.0178E-01 -2.6691E-02 -2.1528E+00  2.1740E+00
ac ID =   33377                 7.0844E-01  1.1618E+01 -7.8167E-01  1.1666E+01
                               -1.8115E-01  1.6049E+01 -4.6564E+01  2.5147E+03

           1    1.15003E+01     3.3192E-01 -9.2312E-03 -2.1650E+00  2.1903E+00
ac ID =   33377                 4.6414E-01  1.1978E+01 -1.4754E+00  1.2077E+01
                               -1.7497E-01  1.6168E+01 -4.6501E+01  2.5147E+03

           1    1.16003E+01     2.9029E-01  2.0401E-02 -2.1688E+00  2.1882E+00
ac ID =   33377                 7.6574E-02  1.1140E+01 -1.5198E+00  1.1243E+01
                               -1.6866E-01  1.6287E+01 -4.6437E+01  2.5147E+03

           1    1.17003E+01     2.7993E-01 -3.0194E-02 -2.1493E+00  2.1677E+00
ac ID =   33377                -8.0524E-02  1.0928E+01 -3.2059E-01  1.0933E+01
                               -1.6218E-01  1.6407E+01 -4.6371E+01  2.5147E+03

           1    1.18003E+01     3.2107E-01 -3.2701E-02 -2.1837E+00  2.2074E+00
ac ID =   33377                 1.7934E+00  1.1984E+01 -2.1948E-01  1.2119E+01
                               -1.5604E-01  1.6528E+01 -4.6303E+01  2.5147E+03

           1    1.19003E+01     3.0496E-01  1.1472E-02 -2.1243E+00  2.1461E+00
ac ID =   33377                -4.7579E-02  1.1054E+01 -3.0562E-02  1.1054E+01
                               -1.4974E-01  1.6650E+01 -4.6233E+01  2.5147E+03

           1    1.20003E+01     2.5882E-01  5.6172E-03 -2.1279E+00  2.1436E+00
ac ID =   33377                 5.9142E-01  1.1086E+01 -6.9957E-01  1.1123E+01
                               -1.4354E-01  1.6773E+01 -4.6161E+01  2.5147E+03

           1    1.21003E+01     3.0942E-01 -2.8089E-02 -2.0997E+00  2.1226E+00
ac ID =   33377                 7.4425E-01  1.0978E+01  8.5892E-01  1.1037E+01
                               -1.3727E-01  1.6896E+01 -4.6087E+01  2.5147E+03

           1    1.22003E+01     3.5217E-01  1.1034E-02 -2.0534E+00  2.0834E+00
ac ID =   33377                 7.3176E-01  1.1103E+01  4.2045E-01  1.1135E+01
                               -1.3110E-01  1.7020E+01 -4.6011E+01  2.5147E+03

           1    1.23003E+01     3.0832E-01  4.0647E-02 -2.0217E+00  2.0455E+00
ac ID =   33377                -1.4709E+00  9.7968E+00 -5.3323E-01  9.9210E+00
                               -1.2492E-01  1.7144E+01 -4.5933E+01  2.5147E+03

           1    1.24003E+01     2.9668E-01 -2.2910E-02 -1.9695E+00  1.9918E+00
ac ID =   33377                 1.0585E+00  1.0285E+01 -3.2687E-01  1.0345E+01
                               -1.1875E-01  1.7270E+01 -4.5854E+01  2.5147E+03

           1    1.25002E+01     3.1381E-01 -8.4825E-03 -1.9713E+00  1.9961E+00
ac ID =   33377                 2.9512E-01  1.0335E+01 -1.0558E-01  1.0340E+01
                               -1.1275E-01  1.7395E+01 -4.5772E+01  2.5147E+03

           1    1.26002E+01     2.9278E-01  3.0565E-02 -1.9925E+00  2.0141E+00
ac ID =   33377                -2.5617E-01  9.5712E+00 -9.7206E-01  9.6238E+00
                               -1.0678E-01  1.7522E+01 -4.5689E+01  2.5147E+03

           1    1.27002E+01     2.9978E-01  1.0584E-02 -1.8841E+00  1.9078E+00
ac ID =   33377                 2.4159E-02  1.0239E+01 -1.2848E+00  1.0319E+01
                               -1.0085E-01  1.7649E+01 -4.5604E+01  2.5147E+03

           1    1.28002E+01     2.8755E-01 -2.7572E-02 -1.8500E+00  1.8724E+00
ac ID =   33377                 1.5380E+00  1.0593E+01 -2.1621E+00  1.0920E+01
                               -9.4998E-02  1.7777E+01 -4.5518E+01  2.5147E+03

           1    1.29002E+01     2.8248E-01 -2.7711E-02 -1.8478E+00  1.8694E+00
ac ID =   33377                 3.9041E-01  1.0560E+01 -1.2939E+00  1.0647E+01
                               -8.9097E-02  1.7905E+01 -4.5429E+01  2.5147E+03

           1    1.30002E+01     2.9889E-01  2.2045E-02 -1.8170E+00  1.8416E+00
ac ID =   33377                -3.2888E-01  1.0026E+01 -6.8910E-01  1.0055E+01
                               -8.3383E-02  1.8033E+01 -4.5339E+01  2.5147E+03

           1    1.31002E+01     3.0145E-01 -4.5713E-03 -1.7706E+00  1.7961E+00
ac ID =   33377                 1.7103E-01  9.9302E+00 -7.0863E-02  9.9320E+00
                               -7.7539E-02  1.8163E+01 -4.5247E+01  2.5147E+03

           1    1.32002E+01     3.0181E-01 -1.7923E-02 -1.6573E+00  1.6846E+00
ac ID =   33377                 2.2479E-01  8.9884E+00 -3.0662E-01  8.9964E+00
                               -7.1719E-02  1.8292E+01 -4.5154E+01  2.5147E+03

           1    1.33002E+01     2.8825E-01  2.6713E-02 -1.6844E+00  1.7091E+00
ac ID =   33377                -1.0595E+00  8.4127E+00  8.7747E-02  8.4796E+00
                               -6.5929E-02  1.8422E+01 -4.5059E+01  2.5147E+03

           1    1.34002E+01     3.3202E-01  3.8970E-02 -1.6633E+00  1.6965E+00
ac ID =   33377                -7.8392E-01  9.3958E+00  8.3260E-01  9.4651E+00
                               -6.0247E-02  1.8553E+01 -4.4962E+01  2.5147E+03

           1    1.35001E+01     3.1598E-01 -1.7898E-02 -1.6091E+00  1.6400E+00
ac ID =   33377                 6.7458E-01  8.9651E+00  3.1168E-01  8.9959E+00
                               -5.4491E-02  1.8684E+01 -4.4865E+01  2.5147E+03

           1    1.36001E+01     2.5816E-01  3.3267E-02 -1.5514E+00  1.5730E+00
ac ID =   33377                -3.1510E-01  7.4748E+00 -9.3337E-01  7.5394E+00
                               -4.8833E-02  1.8816E+01 -4.4765E+01  2.5147E+03

           1    1.37001E+01     3.3546E-01  5.3060E-03 -1.5128E+00  1.5495E+00
ac ID =   33377                 2.0820E-03  8.6550E+00 -1.7638E+00  8.8329E+00
                               -4.3104E-02  1.8947E+01 -4.4664E+01  2.5147E+03

           1    1.38001E+01     2.8613E-01 -1.5509E-02 -1.5059E+00  1.5329E+00
ac ID =   33377                 7.6778E-01  7.9990E+00 -1.6080E+00  8.1951E+00
                               -3.7355E-02  1.9080E+01 -4.4562E+01  2.5147E+03

           1    1.39001E+01     2.5220E-01 -2.0747E-04 -1.4784E+00  1.4998E+00
ac ID =   33377                -1.6064E-01  6.5772E+00 -7.2439E-01  6.6189E+00
                               -3.1513E-02  1.9212E+01 -4.4458E+01  2.5147E+03

           1    1.40001E+01     2.6803E-01  2.5535E-02 -1.3957E+00  1.4214E+00
ac ID =   33377                -4.7785E-01  6.7236E+00 -1.5535E+00  6.9172E+00
                               -2.5630E-02  1.9345E+01 -4.4353E+01  2.5147E+03

           1    1.41001E+01     2.8056E-01  1.2944E-02 -1.3021E+00  1.3321E+00
ac ID =   33377                -9.9253E-01  6.3916E+00 -7.1612E-01  6.5077E+00
                               -1.9601E-02  1.9478E+01 -4.4247E+01  2.5147E+03

           1    1.42001E+01     2.3510E-01  7.6274E-03 -1.3014E+00  1.3225E+00
ac ID =   33377                 1.1917E-01  5.5278E+00 -5.0104E-01  5.5517E+00
                               -1.3560E-02  1.9612E+01 -4.4139E+01  2.5147E+03

           1    1.43001E+01     2.5941E-01  4.6508E-02 -1.2662E+00  1.2934E+00
ac ID =   33377                -1.2761E+00  5.2093E+00 -1.7352E-01  5.3661E+00
                               -7.3696E-03  1.9746E+01 -4.4030E+01  2.5147E+03

           1    1.44001E+01     2.7412E-01  3.7720E-02 -1.1849E+00  1.2167E+00
ac ID =   33377                -1.0793E+00  5.7851E+00  1.7796E-01  5.8876E+00
                               -1.1588E-03  1.9880E+01 -4.3920E+01  2.5147E+03

           1    1.45000E+01     2.4828E-01  1.7374E-02 -1.1163E+00  1.1437E+00
ac ID =   33377                 1.7803E-01  4.8457E+00 -7.0068E-02  4.8495E+00
                                5.1440E-03  2.0015E+01 -4.3809E+01  2.5147E+03

           1    1.46000E+01     2.3963E-01 -2.5541E-02 -1.0716E+00  1.0983E+00
ac ID =   33377                 3.3758E-01  3.6635E+00 -6.5277E-01  3.7365E+00
                                1.1665E-02  2.0149E+01 -4.3697E+01  2.5147E+03

           1    1.47000E+01     2.2557E-01  5.9180E-02 -1.0776E+00  1.1026E+00
ac ID =   33377                -9.1773E-01  3.5556E+00 -8.4398E-01  3.7679E+00
                                1.8074E-02  2.0285E+01 -4.3584E+01  2.5147E+03

           1    1.48005E+01     2.2611E-01  2.3666E-03 -1.0312E+00  1.0557E+00
ac ID =   33377                -1.9017E-01  3.3900E+00 -1.1768E+00  3.5935E+00
                                2.4782E-02  2.0421E+01 -4.3469E+01  2.5147E+03

           1    1.49005E+01     2.0383E-01  1.0508E-03 -9.5735E-01  9.7881E-01
ac ID =   33377                -1.6070E-01  2.9361E+00 -3.9244E-01  2.9665E+00
                                3.1559E-02  2.0557E+01 -4.3355E+01  2.5147E+03

           1    1.50005E+01     2.3285E-01  1.4447E-02 -9.1014E-01  9.3956E-01
ac ID =   33377                -1.0871E+00  3.2683E+00  3.1890E-01  3.4591E+00
                                3.8481E-02  2.0694E+01 -4.3239E+01  2.5147E+03

           1    1.51005E+01     2.3126E-01  5.8612E-02 -9.0937E-01  9.4014E-01
ac ID =   33377                -1.1858E+00  3.5746E+00 -6.2358E-01  3.8174E+00
                                4.5379E-02  2.0831E+01 -4.3123E+01  2.5147E+03

           1    1.52005E+01     2.2203E-01  3.4209E-03 -8.5923E-01  8.8746E-01
ac ID =   33377                -1.4306E-01  3.3509E+00 -1.1772E+00  3.5546E+00
                                5.2523E-02  2.0968E+01 -4.3007E+01  2.5147E+03

           1    1.53005E+01     2.2685E-01  2.1337E-02 -7.6123E-01  7.9460E-01
ac ID =   33377                -5.7181E-01  3.2203E+00 -6.5199E-01  3.3351E+00
                                5.9745E-02  2.1107E+01 -4.2890E+01  2.5147E+03

           1    1.54005E+01     2.0385E-01  3.0854E-02 -7.3090E-01  7.5942E-01
ac ID =   33377                -7.1150E-01  2.6886E+00 -8.9238E-02  2.7826E+00
                                6.6980E-02  2.1246E+01 -4.2773E+01  2.5147E+03

           1    1.55004E+01     2.2742E-01  2.4161E-02 -7.3614E-01  7.7085E-01
ac ID =   33377                -3.0586E-01  3.6479E+00 -3.3621E-01  3.6761E+00
                                7.4262E-02  2.1385E+01 -4.2655E+01  2.5147E+03

           1    1.56004E+01     1.6990E-01 -1.3094E-02 -6.7443E-01  6.9563E-01
ac ID =   33377                 4.9557E-01  3.2748E+00 -1.0376E+00  3.4708E+00
                                8.1829E-02  2.1525E+01 -4.2537E+01  2.5147E+03

           1    1.57004E+01     2.0105E-01 -3.0302E-03 -6.1958E-01  6.5139E-01
ac ID =   33377                 6.4890E-02  3.6942E+00 -2.0884E+00  4.2442E+00
                                8.9284E-02  2.1665E+01 -4.2418E+01  2.5147E+03

           1    1.58004E+01     2.2867E-01  3.6616E-02 -5.4815E-01  5.9506E-01
ac ID =   33377                -1.0929E+00  4.0917E+00 -1.0230E+00  4.3570E+00
                                9.6759E-02  2.1806E+01 -4.2300E+01  2.5147E+03

           1    1.59004E+01     2.3263E-01 -1.0190E-02 -5.1995E-01  5.6971E-01
ac ID =   33377                 4.2862E-01  4.0923E+00 -2.2513E-01  4.1209E+00
                                1.0446E-01  2.1947E+01 -4.2181E+01  2.5147E+03

           1    1.60004E+01     1.7810E-01  1.0097E-03 -4.8717E-01  5.1871E-01
ac ID =   33377                -5.0921E-01  3.4137E+00 -5.2116E-01  3.4906E+00
                                1.1228E-01  2.2089E+01 -4.2062E+01  2.5147E+03

           1    1.61004E+01     2.0614E-01  2.3997E-02 -3.7816E-01  4.3137E-01
ac ID =   33377                -7.9794E-01  3.6335E+00 -1.2113E+00  3.9123E+00
                                1.1994E-01  2.2231E+01 -4.1944E+01  2.5147E+03

           1    1.62004E+01     2.1176E-01  1.5213E-02 -3.4061E-01  4.0136E-01
ac ID =   33377                -6.6849E-01  3.8542E+00 -5.4687E-01  3.9498E+00
                                1.2771E-01  2.2373E+01 -4.1825E+01  2.5147E+03

           1    1.63004E+01     1.8206E-01  1.5990E-04 -3.1047E-01  3.5991E-01
ac ID =   33377                 1.8175E-01  2.9779E+00 -1.6645E-01  2.9880E+00
                                1.3552E-01  2.2516E+01 -4.1707E+01  2.5147E+03

           1    1.64004E+01     1.8806E-01  1.8279E-02 -2.8786E-01  3.4433E-01
ac ID =   33377                -4.6607E-01  3.5265E+00 -6.1410E-01  3.6098E+00
                                1.4346E-01  2.2659E+01 -4.1588E+01  2.5147E+03

           1    1.65003E+01     2.1003E-01  1.1515E-02 -2.4686E-01  3.2432E-01
ac ID =   33377                 9.6329E-02  3.8351E+00 -6.0909E-01  3.8843E+00
                                1.5143E-01  2.2802E+01 -4.1471E+01  2.5147E+03

           1    1.66003E+01     1.7155E-01 -3.1679E-03 -1.9043E-01  2.5633E-01
ac ID =   33377                 1.1978E-01  2.7062E+00 -2.4894E-01  2.7203E+00
                                1.5953E-01  2.2946E+01 -4.1353E+01  2.5147E+03

           1    1.67003E+01     1.7420E-01  7.1791E-03 -1.7136E-01  2.4446E-01
ac ID =   33377                 5.3117E-01  2.7807E+00 -6.5014E-01  2.9047E+00
                                1.6759E-01  2.3090E+01 -4.1236E+01  2.5147E+03

           1    1.68003E+01     1.8081E-01  3.1410E-02 -1.2152E-01  2.2010E-01
ac ID =   33377                -9.1164E-01  2.7172E+00 -8.6234E-01  2.9929E+00
                                1.7582E-01  2.3235E+01 -4.1120E+01  2.5147E+03

           1    1.69003E+01     1.4826E-01  4.8066E-03 -8.4847E-02  1.7089E-01
ac ID =   33377                 2.2950E-01  1.8680E+00 -1.9326E+00  2.6976E+00
                                1.8400E-01  2.3380E+01 -4.1003E+01  2.5147E+03

           1    1.70003E+01     1.6044E-01 -2.8889E-03 -5.6852E-02  1.7024E-01
ac ID =   33377                -5.0575E-01  1.7739E+00 -1.4621E+00  2.3538E+00
                                1.9236E-01  2.3525E+01 -4.0888E+01  2.5147E+03

           1    1.71003E+01     1.5468E-01 -2.4418E-03  4.3698E-02  1.6075E-01
ac ID =   33377                 1.8112E-01  1.5608E+00 -7.3877E-01  1.7363E+00
                                2.0060E-01  2.3671E+01 -4.0773E+01  2.5147E+03

           1    1.72003E+01     1.3113E-01  3.6300E-02  3.9131E-02  1.4158E-01
ac ID =   33377                -1.0869E+00  8.7816E-01 -7.0534E-01  1.5652E+00
                                2.0881E-01  2.3817E+01 -4.0659E+01  2.5147E+03

           1    1.73003E+01     1.4071E-01 -4.3788E-03  4.8779E-02  1.4899E-01
ac ID =   33377                 3.0321E-01  1.0258E+00 -7.8587E-01  1.3273E+00
                                2.1714E-01  2.3963E+01 -4.0545E+01  2.5147E+03

           1    1.74003E+01     1.3921E-01 -3.4768E-02  1.0033E-01  1.7509E-01
ac ID =   33377                 8.1367E-01  5.0767E-01 -6.3028E-01  1.1476E+00
                                2.2554E-01  2.4110E+01 -4.0432E+01  2.5147E+03

           1    1.75002E+01     1.1671E-01  3.3192E-02  1.4946E-01  1.9252E-01
ac ID =   33377                -4.0108E-01  1.6056E-01 -4.0373E-01  5.9130E-01
                                2.3369E-01  2.4257E+01 -4.0320E+01  2.5147E+03

           1    1.76002E+01     1.1571E-01  2.1471E-02  1.6597E-01  2.0346E-01
ac ID =   33377                 1.5337E-01 -3.3930E-01 -4.5679E-01  5.8932E-01
                                2.4188E-01  2.4404E+01 -4.0208E+01  2.5147E+03

           1    1.77002E+01     1.2477E-01 -2.2084E-02  2.0719E-01  2.4286E-01
ac ID =   33377                 3.9507E-01 -4.5804E-01 -4.7785E-01  7.7086E-01
                                2.5031E-01  2.4551E+01 -4.0097E+01  2.5147E+03

           1    1.78002E+01     1.0379E-01  2.5764E-03  2.1735E-01  2.4087E-01
ac ID =   33377                -1.7041E-02 -8.4113E-01 -5.3715E-01  9.9816E-01
                                2.5846E-01  2.4699E+01 -3.9987E+01  2.5147E+03

           1    1.79002E+01     1.2930E-01  3.2498E-02  3.0868E-01  3.3624E-01
ac ID =   33377                -7.1938E-01 -1.0757E+00 -7.2680E-01  1.4842E+00
                                2.6660E-01  2.4847E+01 -3.9878E+01  2.5147E+03

           1    1.80002E+01     1.0201E-01  4.9241E-03  3.1489E-01  3.3104E-01
ac ID =   33377                -2.1031E-01 -1.1766E+00 -1.2846E+00  1.7547E+00
                                2.7489E-01  2.4996E+01 -3.9770E+01  2.5147E+03

           1    1.81002E+01     1.1863E-01 -2.0044E-02  2.9941E-01  3.2268E-01
ac ID =   33377                 1.1300E-01 -9.3432E-01 -1.2740E+00  1.5840E+00
                                2.8312E-01  2.5144E+01 -3.9663E+01  2.5147E+03

           1    1.82002E+01     8.0751E-02 -1.0945E-02  3.7135E-01  3.8019E-01
ac ID =   33377                -1.3577E-01 -1.5711E+00 -7.3557E-01  1.7400E+00
                                2.9124E-01  2.5293E+01 -3.9557E+01  2.5147E+03

           1    1.83002E+01     8.9878E-02  3.0398E-02  3.7834E-01  3.9006E-01
ac ID =   33377                -2.0672E-01 -1.9338E+00 -2.1877E-01  1.9571E+00
                                2.9922E-01  2.5443E+01 -3.9452E+01  2.5147E+03

           1    1.84002E+01     1.1832E-01 -3.8455E-02  4.1550E-01  4.3373E-01
ac ID =   33377                 8.6789E-01 -1.3708E+00 -9.6531E-01  1.8879E+00
                                3.0738E-01  2.5592E+01 -3.9348E+01  2.5147E+03

           1    1.85001E+01     8.1000E-02 -4.6907E-03  4.2313E-01  4.3084E-01
ac ID =   33377                 6.0514E-01 -2.0940E+00 -1.1868E+00  2.4819E+00
                                3.1533E-01  2.5742E+01 -3.9244E+01  2.5147E+03

           1    1.86001E+01     6.1549E-02  1.9533E-03  4.2913E-01  4.3352E-01
ac ID =   33377                -3.6291E-01 -2.8027E+00 -7.4328E-01  2.9222E+00
                                3.2333E-01  2.5893E+01 -3.9143E+01  2.5147E+03

           1    1.87001E+01     1.3497E-01  1.7733E-02  4.8277E-01  5.0160E-01
ac ID =   33377                 1.1295E-01 -1.8494E+00 -1.2053E+00  2.2104E+00
                                3.3118E-01  2.6044E+01 -3.9042E+01  2.5147E+03

           1    1.88001E+01     8.4144E-02 -1.6352E-02  5.1428E-01  5.2138E-01
ac ID =   33377                 7.4224E-01 -2.8965E+00 -2.8299E-01  3.0035E+00
                                3.3916E-01  2.6195E+01 -3.8943E+01  2.5147E+03

           1    1.89001E+01     6.3333E-02  1.2086E-02  5.2952E-01  5.3343E-01
ac ID =   33377                -8.6269E-01 -3.5227E+00  9.7863E-02  3.6281E+00
                                3.4709E-01  2.6347E+01 -3.8845E+01  2.5147E+03

           1    1.90001E+01     1.1639E-01 -4.6432E-03  5.1882E-01  5.3174E-01
ac ID =   33377                 4.4937E-01 -2.5610E+00 -1.1296E+00  2.8349E+00
                                3.5470E-01  2.6499E+01 -3.8748E+01  2.5147E+03

           1    1.91001E+01     6.9060E-02  2.5199E-02  5.6773E-01  5.7247E-01
ac ID =   33377                -6.1387E-01 -4.0393E+00 -1.1962E+00  4.2572E+00
                                3.6248E-01  2.6651E+01 -3.8652E+01  2.5147E+03

           1    1.92001E+01     8.2749E-02 -3.0465E-02  6.0845E-01  6.1481E-01
ac ID =   33377                 1.1719E+00 -3.2800E+00 -1.6227E+00  3.8425E+00
                                3.7012E-01  2.6804E+01 -3.8558E+01  2.5147E+03

           1    1.93001E+01     5.0750E-02  7.3684E-03  5.8891E-01  5.9114E-01
ac ID =   33377                -1.7874E-01 -4.0993E+00 -1.0578E+00  4.2374E+00
                                3.7766E-01  2.6958E+01 -3.8465E+01  2.5147E+03

           1    1.94001E+01     7.8300E-02 -1.4062E-02  5.9082E-01  5.9615E-01
ac ID =   33377                 1.0310E+00 -4.0030E+00 -6.2966E-01  4.1813E+00
                                3.8512E-01  2.7111E+01 -3.8374E+01  2.5147E+03

           1    1.95000E+01     1.0775E-01  7.4583E-03  6.1466E-01  6.2408E-01
ac ID =   33377                 3.2472E-01 -3.8009E+00 -8.8425E-01  3.9159E+00
                                3.9257E-01  2.7266E+01 -3.8284E+01  2.5147E+03

           1    1.96000E+01     5.5843E-02 -1.9960E-02  6.3727E-01  6.4003E-01
ac ID =   33377                 6.4067E-01 -4.9058E+00 -1.4813E+00  5.1645E+00
                                3.9993E-01  2.7420E+01 -3.8196E+01  2.5147E+03

           1    1.97005E+01     9.3523E-02  2.2595E-03  6.4939E-01  6.5609E-01
ac ID =   33377                -1.8540E-02 -4.3829E+00 -1.1728E+00  4.5371E+00
                                4.0718E-01  2.7576E+01 -3.8108E+01  2.5147E+03

           1    1.98005E+01     6.0749E-02 -7.5768E-03  5.9689E-01  6.0002E-01
ac ID =   33377                 2.5525E-01 -4.9308E+00 -5.7275E-01  4.9705E+00
                                4.1431E-01  2.7732E+01 -3.8023E+01  2.5147E+03

           1    1.99005E+01     8.0499E-02  1.9568E-02  6.3771E-01  6.4306E-01
ac ID =   33377                -2.1095E-01 -4.5633E+00  4.9423E-01  4.5948E+00
                                4.2135E-01  2.7888E+01 -3.7939E+01  2.5147E+03

           1    2.00005E+01     6.0566E-02 -1.0744E-02  6.7628E-01  6.7907E-01
ac ID =   33377                 4.8144E-01 -5.2878E+00 -2.1106E-01  5.3139E+00
                                4.2825E-01  2.8045E+01 -3.7856E+01  2.5147E+03

           1    2.01005E+01     4.8164E-02  1.9246E-02  6.4794E-01  6.5001E-01
ac ID =   33377                 1.1197E-01 -5.4144E+00 -1.6629E+00  5.6651E+00
                                4.3500E-01  2.8202E+01 -3.7775E+01  2.5147E+03

           1    2.02005E+01     8.3954E-02 -2.6824E-02  6.5404E-01  6.5995E-01
ac ID =   33377                 9.1140E-01 -5.1346E+00 -1.6574E+00  5.4719E+00
                                4.4177E-01  2.8360E+01 -3.7695E+01  2.5147E+03

           1    2.03005E+01     3.9281E-02  1.3936E-02  6.6523E-01  6.6653E-01
ac ID =   33377                 5.3627E-01 -5.9214E+00 -7.1684E-01  5.9887E+00
                                4.4828E-01  2.8518E+01 -3.7617E+01  2.5147E+03

           1    2.04005E+01     6.2601E-02  7.6186E-03  6.6341E-01  6.6640E-01
ac ID =   33377                 4.6195E-01 -5.6040E+00 -5.5268E-01  5.6501E+00
                                4.5482E-01  2.8677E+01 -3.7541E+01  2.5147E+03

           1    2.05004E+01     6.8494E-02 -2.7524E-02  6.8826E-01  6.9221E-01
ac ID =   33377                 1.1374E+00 -6.1232E+00 -7.5968E-01  6.2741E+00
                                4.6133E-01  2.8836E+01 -3.7465E+01  2.5147E+03

           1    2.06004E+01     5.2169E-02  1.1198E-02  6.4223E-01  6.4444E-01
ac ID =   33377                 5.4848E-01 -5.9395E+00 -1.3772E+00  6.1217E+00
                                4.6758E-01  2.8995E+01 -3.7392E+01  2.5147E+03

           1    2.07004E+01     6.7698E-02  1.5465E-02  6.8363E-01  6.8715E-01
ac ID =   33377                -9.0596E-02 -6.2061E+00 -1.0194E+00  6.2899E+00
                                4.7394E-01  2.9155E+01 -3.7319E+01  2.5147E+03

           1    2.08004E+01     5.8411E-02 -1.6611E-02  7.0452E-01  7.0714E-01
ac ID =   33377                 8.4181E-01 -6.4672E+00 -2.5986E-01  6.5269E+00
                                4.8023E-01  2.9316E+01 -3.7249E+01  2.5147E+03

           1    2.09004E+01     7.2608E-02 -8.2448E-03  6.7874E-01  6.8266E-01
ac ID =   33377                 8.0999E-01 -6.2785E+00 -6.8289E-01  6.3673E+00
                                4.8632E-01  2.9477E+01 -3.7179E+01  2.5147E+03

           1    2.10004E+01     6.7490E-02  2.7267E-02  7.0528E-01  7.0903E-01
ac ID =   33377                -1.9314E-01 -6.4564E+00 -5.4157E-01  6.4820E+00
                                4.9246E-01  2.9638E+01 -3.7111E+01  2.5147E+03

           1    2.11004E+01     5.9699E-02  1.3649E-03  6.5768E-01  6.6038E-01
ac ID =   33377                 8.7874E-01 -6.6375E+00 -1.5328E+00  6.8686E+00
                                4.9860E-01  2.9800E+01 -3.7045E+01  2.5147E+03

           1    2.12004E+01     6.3005E-02 -1.7250E-02  6.6051E-01  6.6374E-01
ac ID =   33377                 1.4058E+00 -6.6103E+00 -1.9184E+00  7.0252E+00
                                5.0480E-01  2.9963E+01 -3.6980E+01  2.5147E+03

           1    2.13004E+01     6.4048E-02  1.5358E-03  6.8893E-01  6.9190E-01
ac ID =   33377                 6.9913E-01 -6.5867E+00 -7.0897E-01  6.6616E+00
                                5.1107E-01  3.0125E+01 -3.6916E+01  2.5147E+03

           1    2.14004E+01     7.4200E-02  2.7944E-02  6.2316E-01  6.2819E-01
ac ID =   33377                 6.3549E-01 -6.4548E+00 -5.7895E-01  6.5118E+00
                                5.1725E-01  3.0288E+01 -3.6854E+01  2.5147E+03

           1    2.15003E+01     7.9844E-02 -8.2921E-03  6.2047E-01  6.2564E-01
ac ID =   33377                 1.1453E+00 -6.1649E+00 -7.6880E-01  6.3174E+00
                                5.2359E-01  3.0452E+01 -3.6793E+01  2.5147E+03

           1    2.16003E+01     8.3742E-02  2.9656E-03  6.0358E-01  6.0937E-01
ac ID =   33377                 1.0907E+00 -6.4829E+00 -1.1726E+00  6.6778E+00
                                5.2992E-01  3.0615E+01 -3.6734E+01  2.5147E+03

           1    2.17003E+01     6.9989E-02  2.3416E-02  6.1434E-01  6.1876E-01
ac ID =   33377                -7.3028E-03 -6.8781E+00 -1.2791E+00  6.9960E+00
                                5.3628E-01  3.0779E+01 -3.6676E+01  2.5147E+03

           1    2.18003E+01     9.5875E-02  7.7272E-03  5.8852E-01  5.9633E-01
ac ID =   33377                 8.1234E-01 -6.6912E+00 -1.2525E+00  6.8557E+00
                                5.4266E-01  3.0944E+01 -3.6619E+01  2.5147E+03

           1    2.19003E+01     7.7807E-02 -7.5296E-03  5.6023E-01  5.6566E-01
ac ID =   33377                 1.1085E+00 -7.0715E+00 -9.1446E-01  7.2161E+00
                                5.4915E-01  3.1108E+01 -3.6563E+01  2.5147E+03

           1    2.20003E+01     5.5452E-02  2.6862E-02  5.4415E-01  5.4763E-01
ac ID =   33377                 3.0340E-01 -7.5910E+00 -6.5856E-01  7.6255E+00
                                5.5569E-01  3.1273E+01 -3.6508E+01  2.5147E+03

           1    2.21003E+01     7.5833E-02  8.2411E-03  5.3785E-01  5.4323E-01
ac ID =   33377                 9.1459E-01 -7.5116E+00 -1.1969E+00  7.6612E+00
                                5.6223E-01  3.1438E+01 -3.6455E+01  2.5147E+03

           1    2.22003E+01     8.7853E-02 -2.6830E-03  5.4559E-01  5.5263E-01
ac ID =   33377                 1.4001E+00 -7.5670E+00 -1.7319E+00  7.8879E+00
                                5.6895E-01  3.1603E+01 -3.6403E+01  2.5147E+03

           1    2.23003E+01     6.9068E-02  2.8999E-03  5.1852E-01  5.2311E-01
ac ID =   33377                 7.5892E-01 -8.2158E+00 -1.2641E+00  8.3471E+00
                                5.7573E-01  3.1769E+01 -3.6352E+01  2.5147E+03

           1    2.24003E+01     8.4782E-02  3.3403E-02  4.7636E-01  4.8500E-01
ac ID =   33377                 6.1594E-01 -7.9079E+00 -6.8586E-01  7.9615E+00
                                5.8247E-01  3.1934E+01 -3.6301E+01  2.5147E+03

           1    2.25002E+01     7.3028E-02 -1.8505E-02  4.8628E-01  4.9208E-01
ac ID =   33377                 1.4122E+00 -8.4776E+00 -8.3656E-01  8.6350E+00
                                5.8940E-01  3.2100E+01 -3.6252E+01  2.5147E+03

           1    2.26002E+01     7.6905E-02  7.5792E-03  4.8261E-01  4.8876E-01
ac ID =   33377                 8.6726E-01 -8.7895E+00 -1.4055E+00  8.9433E+00
                                5.9631E-01  3.2266E+01 -3.6204E+01  2.5147E+03

           1    2.27002E+01     7.6779E-02  2.4797E-02  4.4742E-01  4.5464E-01
ac ID =   33377                 6.0010E-01 -9.1629E+00 -1.6434E+00  9.3284E+00
                                6.0321E-01  3.2432E+01 -3.6157E+01  2.5147E+03

           1    2.28002E+01     6.5564E-02 -6.3380E-03  4.2861E-01  4.3364E-01
ac ID =   33377                 1.2961E+00 -9.2986E+00 -1.2829E+00  9.4757E+00
                                6.1026E-01  3.2599E+01 -3.6111E+01  2.5147E+03

           1    2.29002E+01     6.3791E-02  8.0455E-04  3.9918E-01  4.0425E-01
ac ID =   33377                 1.3129E+00 -9.6779E+00 -1.0498E+00  9.8228E+00
                                6.1729E-01  3.2765E+01 -3.6065E+01  2.5147E+03

           1    2.30002E+01     6.9046E-02  4.3900E-03  3.9884E-01  4.0480E-01
ac ID =   33377                 1.2853E+00 -9.7258E+00 -9.3633E-01  9.8550E+00
                                6.2434E-01  3.2932E+01 -3.6021E+01  2.5147E+03

           1    2.31002E+01     7.8329E-02  1.1107E-02  3.6930E-01  3.7768E-01
ac ID =   33377                 1.1790E+00 -9.7737E+00 -1.1999E+00  9.9174E+00
                                6.3146E-01  3.3099E+01 -3.5977E+01  2.5147E+03

           1    2.32002E+01     7.7981E-02 -1.2897E-02  3.2351E-01  3.3302E-01
ac ID =   33377                 1.8669E+00 -9.7112E+00 -1.4984E+00  1.0002E+01
                                6.3866E-01  3.3265E+01 -3.5934E+01  2.5147E+03

           1    2.33002E+01     7.3419E-02 -2.7251E-03  3.2048E-01  3.2879E-01
ac ID =   33377                 1.5222E+00 -9.9077E+00 -9.0488E-01  1.0065E+01
                                6.4586E-01  3.3433E+01 -3.5892E+01  2.5147E+03

           1    2.34002E+01     8.3827E-02  2.6827E-02  3.0516E-01  3.1760E-01
ac ID =   33377                 7.7628E-01 -1.0030E+01 -7.3398E-01  1.0087E+01
                                6.5311E-01  3.3600E+01 -3.5851E+01  2.5147E+03

           1    2.35001E+01     9.5335E-02 -2.1469E-02  2.6251E-01  2.8011E-01
ac ID =   33377                 1.8276E+00 -1.0020E+01 -1.0122E+00  1.0236E+01
                                6.6047E-01  3.3767E+01 -3.5810E+01  2.5147E+03

           1    2.36001E+01     7.7288E-02  1.1497E-02  2.5177E-01  2.6362E-01
ac ID =   33377                 1.2598E+00 -1.0424E+01 -1.2182E+00  1.0570E+01
                                6.6775E-01  3.3934E+01 -3.5770E+01  2.5147E+03

           1    2.37001E+01     8.9996E-02  1.9426E-03  2.0972E-01  2.2823E-01
ac ID =   33377                 1.0737E+00 -1.0251E+01 -1.2905E+00  1.0388E+01
                                6.7514E-01  3.4101E+01 -3.5730E+01  2.5147E+03

           1    2.38001E+01     9.8225E-02 -3.2703E-03  2.0169E-01  2.2436E-01
ac ID =   33377                 1.7166E+00 -9.8003E+00 -1.4532E+00  1.0055E+01
                                6.8246E-01  3.4269E+01 -3.5691E+01  2.5147E+03

           1    2.39001E+01     8.7746E-02 -7.7987E-03  1.9220E-01  2.1142E-01
ac ID =   33377                 1.6574E+00 -1.0068E+01 -1.0581E+00  1.0258E+01
                                6.8986E-01  3.4436E+01 -3.5652E+01  2.5147E+03

           1    2.40001E+01     9.8385E-02 -1.5716E-03  1.5408E-01  1.8282E-01
ac ID =   33377                 1.7622E+00 -9.8693E+00 -1.1821E+00  1.0095E+01
                                6.9723E-01  3.4603E+01 -3.5614E+01  2.5147E+03

           1    2.41001E+01     9.8614E-02  9.9214E-03  1.3830E-01  1.7014E-01
ac ID =   33377                 1.4473E+00 -9.8256E+00 -9.4726E-01  9.9767E+00
                                7.0469E-01  3.4770E+01 -3.5576E+01  2.5147E+03

           1    2.42001E+01     1.0648E-01 -4.9354E-03  1.2805E-01  1.6661E-01
ac ID =   33377                 1.9208E+00 -1.0181E+01 -1.2106E+00  1.0431E+01
                                7.1223E-01  3.4936E+01 -3.5539E+01  2.5147E+03

           1    2.43001E+01     9.7984E-02 -1.3056E-02  1.0937E-01  1.4742E-01
ac ID =   33377                 1.8372E+00 -1.0272E+01 -1.2021E+00  1.0504E+01
                                7.1981E-01  3.5103E+01 -3.5502E+01  2.5147E+03

           1    2.44001E+01     1.1372E-01  2.5039E-02  6.9936E-02  1.3583E-01
ac ID =   33377                 1.0825E+00 -1.0158E+01 -1.0483E+00  1.0270E+01
                                7.2741E-01  3.5269E+01 -3.5465E+01  2.5147E+03

           1    2.45005E+01     1.0598E-01  1.0559E-02  4.6333E-02  1.1615E-01
ac ID =   33377                 1.4014E+00 -1.0007E+01 -1.1636E+00  1.0172E+01
                                7.3514E-01  3.5436E+01 -3.5428E+01  2.5147E+03

           1    2.46005E+01     1.1131E-01 -1.0760E-02  2.8316E-02  1.1536E-01
ac ID =   33377                 1.9585E+00 -1.0094E+01 -9.9313E-01  1.0330E+01
                                7.4295E-01  3.5602E+01 -3.5392E+01  2.5147E+03

           1    2.47005E+01     1.0854E-01  6.6703E-03  2.4904E-02  1.1156E-01
ac ID =   33377                 1.4942E+00 -1.0032E+01 -1.0233E+00  1.0194E+01
                                7.5076E-01  3.5767E+01 -3.5356E+01  2.5147E+03

           1    2.48005E+01     1.2874E-01  5.0379E-03  2.0399E-03  1.2885E-01
ac ID =   33377                 1.7457E+00 -9.6839E+00 -1.1655E+00  9.9088E+00
                                7.5865E-01  3.5932E+01 -3.5320E+01  2.5147E+03

           1    2.49005E+01     1.1716E-01 -5.4170E-03 -3.3493E-02  1.2197E-01
ac ID =   33377                 2.2215E+00 -9.9560E+00 -1.0935E+00  1.0259E+01
                                7.6662E-01  3.6097E+01 -3.5284E+01  2.5147E+03

