 LSTC 50th% Full_FE H-III Dummy (Beta Version, February 17, 2019)        
                    ls-dyna smp s R16 R16.0_619_d222963 date 03/18/2025

{BEGIN LEGEND}
 Entity #        Title
    22626                                                                                     
{END LEGEND}




 n o d a l   p r i n t   o u t   f o r   t i m e  s t e p       1                              ( at time 0.0000000E+00 )

 nodal point  x-disp     y-disp      z-disp      x-vel       y-vel       z-vel      x-accl      y-accl      z-accl      x-coor      y-coor      z-coor
    22626  0.00000E+00 0.00000E+00 0.00000E+00 0.00000E+00 0.00000E+00 0.00000E+00 0.00000E+00 0.00000E+00 0.00000E+00 4.65938E+00-2.81908E+01-4.49817E+01



 n o d a l   p r i n t   o u t   f o r   t i m e  s t e p       1                              ( at time 0.0000000E+00 )

 nodal point  x-rot      y-rot       z-rot       x-rot vel   y-rot vel   z-rot vel   x-rot acc   y-rot acc   z-rot acc
    22626  0.00000E+00 0.00000E+00 0.00000E+00 0.00000E+00 0.00000E+00 0.00000E+00 0.00000E+00 0.00000E+00 0.00000E+00



 n o d a l   p r i n t   o u t   f o r   t i m e  s t e p     201                              ( at time 9.9989993E-02 )

 nodal point  x-disp     y-disp      z-disp      x-vel       y-vel       z-vel      x-accl      y-accl      z-accl      x-coor      y-coor      z-coor
    22626  2.73501E-07 1.73610E-06-5.34270E-05 4.19706E-05 2.55538E-04-1.46811E-03 4.19748E-04 2.55563E-03-1.46825E-02 4.65938E+00-2.81908E+01-4.49818E+01



 n o d a l   p r i n t   o u t   f o r   t i m e  s t e p     201                              ( at time 9.9989993E-02 )

 nodal point  x-rot      y-rot       z-rot       x-rot vel   y-rot vel   z-rot vel   x-rot acc   y-rot acc   z-rot acc
    22626 -5.99079E-08-8.37911E-09-5.45421E-09-5.86975E-06-9.69531E-07-9.26692E-07-5.87034E-05-9.69628E-06-9.26785E-06



 n o d a l   p r i n t   o u t   f o r   t i m e  s t e p     401                              ( at time 1.9997999E-01 )

 nodal point  x-disp     y-disp      z-disp      x-vel       y-vel       z-vel      x-accl      y-accl      z-accl      x-coor      y-coor      z-coor
    22626  1.73058E-05 3.61707E-04-6.67546E-04 3.02850E-05 7.80990E-03-1.21528E-02-1.16867E-04 7.55512E-02-1.06858E-01 4.65939E+00-2.81905E+01-4.49824E+01



 n o d a l   p r i n t   o u t   f o r   t i m e  s t e p     401                              ( at time 1.9997999E-01 )

 nodal point  x-rot      y-rot       z-rot       x-rot vel   y-rot vel   z-rot vel   x-rot acc   y-rot acc   z-rot acc
    22626 -2.82077E-06-3.37042E-07-3.34374E-07-3.94397E-05-1.76330E-06-2.28391E-06-3.35733E-04-7.93848E-06-1.35736E-05



 n o d a l   p r i n t   o u t   f o r   t i m e  s t e p     601                              ( at time 2.9996998E-01 )

 nodal point  x-disp     y-disp      z-disp      x-vel       y-vel       z-vel      x-accl      y-accl      z-accl      x-coor      y-coor      z-coor
    22626  2.73994E-05 1.23937E-03-2.33780E-03 4.20729E-04 8.43007E-03-1.92429E-02 3.90483E-03 6.20229E-03-7.09079E-02 4.65940E+00-2.81896E+01-4.49841E+01



 n o d a l   p r i n t   o u t   f o r   t i m e  s t e p     601                              ( at time 2.9996998E-01 )

 nodal point  x-rot      y-rot       z-rot       x-rot vel   y-rot vel   z-rot vel   x-rot acc   y-rot acc   z-rot acc
    22626 -5.39198E-06-3.89875E-07-6.41891E-07-1.54281E-05-5.45681E-06-6.69204E-06 2.40139E-04-3.69388E-05-4.40856E-05



 n o d a l   p r i n t   o u t   f o r   t i m e  s t e p     801                              ( at time 3.9995997E-01 )

 nodal point  x-disp     y-disp      z-disp      x-vel       y-vel       z-vel      x-accl      y-accl      z-accl      x-coor      y-coor      z-coor
    22626  2.60001E-05 2.15692E-03-4.28040E-03-3.15572E-04 1.06738E-02-2.10604E-02-7.36375E-03 2.24397E-02-1.81771E-02 4.65940E+00-2.81887E+01-4.49860E+01



 n o d a l   p r i n t   o u t   f o r   t i m e  s t e p     801                              ( at time 3.9995997E-01 )

 nodal point  x-rot      y-rot       z-rot       x-rot vel   y-rot vel   z-rot vel   x-rot acc   y-rot acc   z-rot acc
    22626 -7.58734E-06-1.24936E-06-9.80398E-07-4.40096E-05-6.26483E-06-1.52170E-06-2.85843E-04-8.08104E-06 5.17086E-05



 n o d a l   p r i n t   o u t   f o r   t i m e  s t e p    1001                              ( at time 4.9994997E-01 )

 nodal point  x-disp     y-disp      z-disp      x-vel       y-vel       z-vel      x-accl      y-accl      z-accl      x-coor      y-coor      z-coor
    22626  3.93207E-06 3.42613E-03-6.73916E-03-2.34458E-04 1.41145E-02-2.86536E-02 8.11223E-04 3.44100E-02-7.59394E-02 4.65938E+00-2.81874E+01-4.49885E+01



 n o d a l   p r i n t   o u t   f o r   t i m e  s t e p    1001                              ( at time 4.9994997E-01 )

 nodal point  x-rot      y-rot       z-rot       x-rot vel   y-rot vel   z-rot vel   x-rot acc   y-rot acc   z-rot acc
    22626 -1.34713E-05-1.16853E-06-9.50853E-07-8.39295E-05 3.17504E-06 4.07119E-06-3.99240E-04 9.44082E-05 5.59345E-05



 n o d a l   p r i n t   o u t   f o r   t i m e  s t e p    1201                              ( at time 5.9993996E-01 )

 nodal point  x-disp     y-disp      z-disp      x-vel       y-vel       z-vel      x-accl      y-accl      z-accl      x-coor      y-coor      z-coor
    22626 -1.09914E-06 4.99327E-03-9.70397E-03 3.91063E-05 1.65798E-02-3.09259E-02 2.73592E-03 2.46561E-02-2.27254E-02 4.65937E+00-2.81858E+01-4.49914E+01



 n o d a l   p r i n t   o u t   f o r   t i m e  s t e p    1201                              ( at time 5.9993996E-01 )

 nodal point  x-rot      y-rot       z-rot       x-rot vel   y-rot vel   z-rot vel   x-rot acc   y-rot acc   z-rot acc
    22626 -2.02079E-05-8.88626E-07-9.66860E-07-5.89811E-05 3.78490E-06-2.22023E-06 2.49510E-04 6.09918E-06-6.29205E-05



 n o d a l   p r i n t   o u t   f o r   t i m e  s t e p    1401                              ( at time 6.9992995E-01 )

 nodal point  x-disp     y-disp      z-disp      x-vel       y-vel       z-vel      x-accl      y-accl      z-accl      x-coor      y-coor      z-coor
    22626 -5.02055E-05 6.82199E-03-1.31506E-02-4.69385E-04 1.95860E-02-3.88335E-02-5.08542E-03 3.00648E-02-7.90832E-02 4.65932E+00-2.81840E+01-4.49949E+01



 n o d a l   p r i n t   o u t   f o r   t i m e  s t e p    1401                              ( at time 6.9992995E-01 )

 nodal point  x-rot      y-rot       z-rot       x-rot vel   y-rot vel   z-rot vel   x-rot acc   y-rot acc   z-rot acc
    22626 -2.61380E-05-9.16073E-07-6.80798E-07-7.10820E-05 1.29409E-07 3.23288E-06-1.21022E-04-3.65586E-05 5.45366E-05



 n o d a l   p r i n t   o u t   f o r   t i m e  s t e p    1601                              ( at time 7.9991994E-01 )

 nodal point  x-disp     y-disp      z-disp      x-vel       y-vel       z-vel      x-accl      y-accl      z-accl      x-coor      y-coor      z-coor
    22626 -7.85231E-05 8.94914E-03-1.74229E-02-4.97297E-04 2.20543E-02-4.48551E-02-2.79149E-04 2.46850E-02-6.02222E-02 4.65930E+00-2.81819E+01-4.49991E+01



 n o d a l   p r i n t   o u t   f o r   t i m e  s t e p    1601                              ( at time 7.9991994E-01 )

 nodal point  x-rot      y-rot       z-rot       x-rot vel   y-rot vel   z-rot vel   x-rot acc   y-rot acc   z-rot acc
    22626 -3.43650E-05-9.05673E-07-6.50958E-07-9.25892E-05-4.92149E-06 5.06033E-07-2.15093E-04-5.05140E-05-2.72712E-05



 n o d a l   p r i n t   o u t   f o r   t i m e  s t e p    1801                              ( at time 8.9990994E-01 )

 nodal point  x-disp     y-disp      z-disp      x-vel       y-vel       z-vel      x-accl      y-accl      z-accl      x-coor      y-coor      z-coor
    22626 -1.14312E-04 1.12064E-02-2.19195E-02-2.67140E-04 2.39473E-02-4.52227E-02 2.30180E-03 1.89325E-02-3.67619E-03 4.65926E+00-2.81796E+01-4.50036E+01



 n o d a l   p r i n t   o u t   f o r   t i m e  s t e p    1801                              ( at time 8.9990994E-01 )

 nodal point  x-rot      y-rot       z-rot       x-rot vel   y-rot vel   z-rot vel   x-rot acc   y-rot acc   z-rot acc
    22626 -4.28747E-05-9.88063E-07-8.11319E-07-8.37766E-05 1.94008E-06-3.06802E-06 8.81339E-05 6.86225E-05-3.57442E-05



 n o d a l   p r i n t   o u t   f o r   t i m e  s t e p    2001                              ( at time 9.9989993E-01 )

 nodal point  x-disp     y-disp      z-disp      x-vel       y-vel       z-vel      x-accl      y-accl      z-accl      x-coor      y-coor      z-coor
    22626 -1.46524E-04 1.37301E-02-2.66075E-02 4.19504E-06 2.63169E-02-4.93596E-02 2.71362E-03 2.36980E-02-4.13740E-02 4.65923E+00-2.81771E+01-4.50083E+01



 n o d a l   p r i n t   o u t   f o r   t i m e  s t e p    2001                              ( at time 9.9989993E-01 )

 nodal point  x-rot      y-rot       z-rot       x-rot vel   y-rot vel   z-rot vel   x-rot acc   y-rot acc   z-rot acc
    22626 -5.21263E-05-9.43262E-07-1.04862E-06-1.08550E-04 1.25010E-06-6.87855E-06-2.47763E-04-6.90049E-06-3.81090E-05



 n o d a l   p r i n t   o u t   f o r   t i m e  s t e p    2201                              ( at time 1.0998899E+00 )

 nodal point  x-disp     y-disp      z-disp      x-vel       y-vel       z-vel      x-accl      y-accl      z-accl      x-coor      y-coor      z-coor
    22626 -1.51661E-04 1.64562E-02-3.18552E-02-3.12370E-04 2.87749E-02-5.51852E-02-3.16596E-03 2.45820E-02-5.82611E-02 4.65922E+00-2.81744E+01-4.50136E+01



 n o d a l   p r i n t   o u t   f o r   t i m e  s t e p    2201                              ( at time 1.0998899E+00 )

 nodal point  x-rot      y-rot       z-rot       x-rot vel   y-rot vel   z-rot vel   x-rot acc   y-rot acc   z-rot acc
    22626 -6.34989E-05-1.02856E-06-1.86137E-06-1.06601E-04-7.51669E-06-8.11693E-06 1.94998E-05-8.76767E-05-1.23851E-05



 n o d a l   p r i n t   o u t   f o r   t i m e  s t e p    2401                              ( at time 1.1998799E+00 )

 nodal point  x-disp     y-disp      z-disp      x-vel       y-vel       z-vel      x-accl      y-accl      z-accl      x-coor      y-coor      z-coor
    22626 -1.75941E-04 1.93864E-02-3.76251E-02-1.38254E-04 3.00646E-02-5.99349E-02 1.74133E-03 1.28990E-02-4.75019E-02 4.65920E+00-2.81714E+01-4.50193E+01



 n o d a l   p r i n t   o u t   f o r   t i m e  s t e p    2401                              ( at time 1.1998799E+00 )

 nodal point  x-rot      y-rot       z-rot       x-rot vel   y-rot vel   z-rot vel   x-rot acc   y-rot acc   z-rot acc
    22626 -7.39262E-05-1.61814E-06-2.86823E-06-1.07546E-04-7.08381E-06-1.20943E-05-9.45016E-06 4.32920E-06-3.97779E-05



 n o d a l   p r i n t   o u t   f o r   t i m e  s t e p    2601                              ( at time 1.2998699E+00 )

 nodal point  x-disp     y-disp      z-disp      x-vel       y-vel       z-vel      x-accl      y-accl      z-accl      x-coor      y-coor      z-coor
    22626 -2.02854E-04 2.25180E-02-4.37494E-02-1.30122E-04 3.24377E-02-6.22928E-02 8.13239E-05 2.37327E-02-2.35817E-02 4.65917E+00-2.81683E+01-4.50255E+01



 n o d a l   p r i n t   o u t   f o r   t i m e  s t e p    2601                              ( at time 1.2998699E+00 )

 nodal point  x-rot      y-rot       z-rot       x-rot vel   y-rot vel   z-rot vel   x-rot acc   y-rot acc   z-rot acc
    22626 -8.56386E-05-2.17672E-06-4.19524E-06-1.36196E-04 3.71227E-09-1.45786E-05-2.86533E-04 7.08823E-05-2.48456E-05



 n o d a l   p r i n t   o u t   f o r   t i m e  s t e p    2801                              ( at time 1.3998599E+00 )

 nodal point  x-disp     y-disp      z-disp      x-vel       y-vel       z-vel      x-accl      y-accl      z-accl      x-coor      y-coor      z-coor
    22626 -2.17797E-04 2.58715E-02-5.00473E-02-3.02492E-04 3.43445E-02-6.43286E-02-1.72387E-03 1.90700E-02-2.03594E-02 4.65916E+00-2.81650E+01-4.50318E+01



 n o d a l   p r i n t   o u t   f o r   t i m e  s t e p    2801                              ( at time 1.3998599E+00 )

 nodal point  x-rot      y-rot       z-rot       x-rot vel   y-rot vel   z-rot vel   x-rot acc   y-rot acc   z-rot acc
    22626 -9.98510E-05-2.04177E-06-5.80495E-06-1.47269E-04-6.09964E-07-1.51610E-05-1.10738E-04-6.13737E-06-5.82454E-06



 n o d a l   p r i n t   o u t   f o r   t i m e  s t e p    3001                              ( at time 1.4998499E+00 )

 nodal point  x-disp     y-disp      z-disp      x-vel       y-vel       z-vel      x-accl      y-accl      z-accl      x-coor      y-coor      z-coor
    22626 -2.46551E-04 2.94490E-02-5.67929E-02-3.15180E-04 3.69834E-02-7.10279E-02-1.26886E-04 2.63916E-02-6.70006E-02 4.65913E+00-2.81614E+01-4.50385E+01



 n o d a l   p r i n t   o u t   f o r   t i m e  s t e p    3001                              ( at time 1.4998499E+00 )

 nodal point  x-rot      y-rot       z-rot       x-rot vel   y-rot vel   z-rot vel   x-rot acc   y-rot acc   z-rot acc
    22626 -1.14440E-04-2.06431E-06-7.71841E-06-1.44697E-04-8.01095E-07-2.45467E-05 2.57219E-05-1.91151E-06-9.38666E-05



 n o d a l   p r i n t   o u t   f o r   t i m e  s t e p    3201                              ( at time 1.5998399E+00 )

 nodal point  x-disp     y-disp      z-disp      x-vel       y-vel       z-vel      x-accl      y-accl      z-accl      x-coor      y-coor      z-coor
    22626 -2.88846E-04 3.33241E-02-6.41765E-02-1.95535E-04 4.04656E-02-7.58766E-02 1.19657E-03 3.48254E-02-4.84910E-02 4.65909E+00-2.81575E+01-4.50459E+01



 n o d a l   p r i n t   o u t   f o r   t i m e  s t e p    3201                              ( at time 1.5998399E+00 )

 nodal point  x-rot      y-rot       z-rot       x-rot vel   y-rot vel   z-rot vel   x-rot acc   y-rot acc   z-rot acc
    22626 -1.28645E-04-2.29149E-06-1.01854E-05-1.48236E-04-5.11151E-06-2.74567E-05-3.53955E-05-4.31085E-05-2.91021E-05



 n o d a l   p r i n t   o u t   f o r   t i m e  s t e p    3401                              ( at time 1.6998299E+00 )

 nodal point  x-disp     y-disp      z-disp      x-vel       y-vel       z-vel      x-accl      y-accl      z-accl      x-coor      y-coor      z-coor
    22626 -3.09950E-04 3.74662E-02-7.19157E-02-3.36047E-04 4.21627E-02-7.84326E-02-1.40526E-03 1.69730E-02-2.55630E-02 4.65907E+00-2.81534E+01-4.50536E+01



 n o d a l   p r i n t   o u t   f o r   t i m e  s t e p    3401                              ( at time 1.6998299E+00 )

 nodal point  x-rot      y-rot       z-rot       x-rot vel   y-rot vel   z-rot vel   x-rot acc   y-rot acc   z-rot acc
    22626 -1.44975E-04-2.41735E-06-1.32835E-05-1.69591E-04 1.70251E-06-3.08010E-05-2.13567E-04 6.81470E-05-3.34467E-05



 n o d a l   p r i n t   o u t   f o r   t i m e  s t e p    3601                              ( at time 1.7998199E+00 )

 nodal point  x-disp     y-disp      z-disp      x-vel       y-vel       z-vel      x-accl      y-accl      z-accl      x-coor      y-coor      z-coor
    22626 -3.38389E-04 4.17524E-02-7.98621E-02-2.46529E-04 4.37889E-02-8.04823E-02 8.95266E-04 1.62637E-02-2.04988E-02 4.65904E+00-2.81491E+01-4.50616E+01



 n o d a l   p r i n t   o u t   f o r   t i m e  s t e p    3601                              ( at time 1.7998199E+00 )

 nodal point  x-rot      y-rot       z-rot       x-rot vel   y-rot vel   z-rot vel   x-rot acc   y-rot acc   z-rot acc
    22626 -1.62661E-04-2.06144E-06-1.69660E-05-1.77117E-04 6.78503E-06-4.28512E-05-7.52691E-05 5.08303E-05-1.20514E-04



 n o d a l   p r i n t   o u t   f o r   t i m e  s t e p    3801                              ( at time 1.8998099E+00 )

 nodal point  x-disp     y-disp      z-disp      x-vel       y-vel       z-vel      x-accl      y-accl      z-accl      x-coor      y-coor      z-coor
    22626 -3.59735E-04 4.63071E-02-8.80832E-02-1.28905E-04 4.70958E-02-8.42691E-02 1.17636E-03 3.30719E-02-3.78724E-02 4.65902E+00-2.81445E+01-4.50698E+01



 n o d a l   p r i n t   o u t   f o r   t i m e  s t e p    3801                              ( at time 1.8998099E+00 )

 nodal point  x-rot      y-rot       z-rot       x-rot vel   y-rot vel   z-rot vel   x-rot acc   y-rot acc   z-rot acc
    22626 -1.80347E-04-1.18939E-06-2.14352E-05-1.82791E-04 6.56329E-06-5.16082E-05-5.67449E-05-2.21756E-06-8.75789E-05



 n o d a l   p r i n t   o u t   f o r   t i m e  s t e p    4001                              ( at time 1.9997999E+00 )

 nodal point  x-disp     y-disp      z-disp      x-vel       y-vel       z-vel      x-accl      y-accl      z-accl      x-coor      y-coor      z-coor
    22626 -3.59353E-04 5.10942E-02-9.67300E-02 1.92427E-04 4.88579E-02-8.84325E-02 3.21365E-03 1.76230E-02-4.16382E-02 4.65902E+00-2.81397E+01-4.50784E+01



 n o d a l   p r i n t   o u t   f o r   t i m e  s t e p    4001                              ( at time 1.9997999E+00 )

 nodal point  x-rot      y-rot       z-rot       x-rot vel   y-rot vel   z-rot vel   x-rot acc   y-rot acc   z-rot acc
    22626 -1.98863E-04-5.58325E-07-2.65302E-05-1.86036E-04 4.84707E-06-5.15261E-05-3.24540E-05-1.71639E-05 8.20992E-07



 n o d a l   p r i n t   o u t   f o r   t i m e  s t e p    4201                              ( at time 2.0997899E+00 )

 nodal point  x-disp     y-disp      z-disp      x-vel       y-vel       z-vel      x-accl      y-accl      z-accl      x-coor      y-coor      z-coor
    22626 -3.39704E-04 5.60513E-02-1.05679E-01 1.35643E-04 5.05978E-02-9.05242E-02-5.67904E-04 1.74012E-02-2.09188E-02 4.65904E+00-2.81348E+01-4.50874E+01



 n o d a l   p r i n t   o u t   f o r   t i m e  s t e p    4201                              ( at time 2.0997899E+00 )

 nodal point  x-rot      y-rot       z-rot       x-rot vel   y-rot vel   z-rot vel   x-rot acc   y-rot acc   z-rot acc
    22626 -2.18211E-04 2.78607E-07-3.20393E-05-1.94099E-04 1.04561E-05-5.33482E-05-8.06369E-05 5.60961E-05-1.82225E-05



 n o d a l   p r i n t   o u t   f o r   t i m e  s t e p    4401                              ( at time 2.1997798E+00 )

 nodal point  x-disp     y-disp      z-disp      x-vel       y-vel       z-vel      x-accl      y-accl      z-accl      x-coor      y-coor      z-coor
    22626 -3.15073E-04 6.12386E-02-1.14819E-01 4.85162E-04 5.31518E-02-9.22849E-02 3.49555E-03 2.55424E-02-1.76087E-02 4.65906E+00-2.81296E+01-4.50965E+01



 n o d a l   p r i n t   o u t   f o r   t i m e  s t e p    4401                              ( at time 2.1997798E+00 )

 nodal point  x-rot      y-rot       z-rot       x-rot vel   y-rot vel   z-rot vel   x-rot acc   y-rot acc   z-rot acc
    22626 -2.38889E-04 1.85199E-06-3.76476E-05-2.19350E-04 2.08920E-05-5.51203E-05-2.52536E-04 1.04370E-04-1.77229E-05



 n o d a l   p r i n t   o u t   f o r   t i m e  s t e p    4601                              ( at time 2.2997698E+00 )

 nodal point  x-disp     y-disp      z-disp      x-vel       y-vel       z-vel      x-accl      y-accl      z-accl      x-coor      y-coor      z-coor
    22626 -2.92162E-04 6.66739E-02-1.24131E-01 2.79102E-04 5.61527E-02-9.45488E-02-2.06080E-03 3.00114E-02-2.26413E-02 4.65908E+00-2.81242E+01-4.51059E+01



 n o d a l   p r i n t   o u t   f o r   t i m e  s t e p    4601                              ( at time 2.2997698E+00 )

 nodal point  x-rot      y-rot       z-rot       x-rot vel   y-rot vel   z-rot vel   x-rot acc   y-rot acc   z-rot acc
    22626 -2.61651E-04 4.47270E-06-4.28343E-05-2.31724E-04 3.25896E-05-5.35943E-05-1.23751E-04 1.16987E-04 1.52612E-05



 n o d a l   p r i n t   o u t   f o r   t i m e  s t e p    4801                              ( at time 2.3997598E+00 )

 nodal point  x-disp     y-disp      z-disp      x-vel       y-vel       z-vel      x-accl      y-accl      z-accl      x-coor      y-coor      z-coor
    22626 -3.05533E-04 7.24928E-02-1.33802E-01-6.40076E-04 5.97179E-02-9.91993E-02-9.19271E-03 3.56565E-02-4.65094E-02 4.65907E+00-2.81183E+01-4.51155E+01



 n o d a l   p r i n t   o u t   f o r   t i m e  s t e p    4801                              ( at time 2.3997598E+00 )

 nodal point  x-rot      y-rot       z-rot       x-rot vel   y-rot vel   z-rot vel   x-rot acc   y-rot acc   z-rot acc
    22626 -2.84836E-04 8.14781E-06-4.78278E-05-2.28401E-04 4.05637E-05-4.63105E-05 3.32309E-05 7.97497E-05 7.28455E-05



 n o d a l   p r i n t   o u t   f o r   t i m e  s t e p    5001                              ( at time 2.4997498E+00 )

 nodal point  x-disp     y-disp      z-disp      x-vel       y-vel       z-vel      x-accl      y-accl      z-accl      x-coor      y-coor      z-coor
    22626 -3.45558E-04 7.87149E-02-1.43880E-01-7.15672E-04 6.41746E-02-1.01724E-01-7.56034E-04 4.45705E-02-2.52453E-02 4.65903E+00-2.81121E+01-4.51256E+01



 n o d a l   p r i n t   o u t   f o r   t i m e  s t e p    5001                              ( at time 2.4997498E+00 )

 nodal point  x-rot      y-rot       z-rot       x-rot vel   y-rot vel   z-rot vel   x-rot acc   y-rot acc   z-rot acc
    22626 -3.07375E-04 1.21373E-05-5.30739E-05-2.14337E-04 4.12690E-05-5.14978E-05 1.40651E-04 7.05325E-06-5.18786E-05



 n o d a l   p r i n t   o u t   f o r   t i m e  s t e p    5201                              ( at time 2.5997398E+00 )

 nodal point  x-disp     y-disp      z-disp      x-vel       y-vel       z-vel      x-accl      y-accl      z-accl      x-coor      y-coor      z-coor
    22626 -4.01399E-04 8.53104E-02-1.54099E-01-8.05146E-04 6.76456E-02-1.02729E-01-8.94832E-04 3.47141E-02-1.00577E-02 4.65897E+00-2.81055E+01-4.51358E+01



 n o d a l   p r i n t   o u t   f o r   t i m e  s t e p    5201                              ( at time 2.5997398E+00 )

 nodal point  x-rot      y-rot       z-rot       x-rot vel   y-rot vel   z-rot vel   x-rot acc   y-rot acc   z-rot acc
    22626 -3.30979E-04 1.72472E-05-5.83012E-05-2.47138E-04 5.50053E-05-5.11368E-05-3.28046E-04 1.37377E-04 3.61102E-06



 n o d a l   p r i n t   o u t   f o r   t i m e  s t e p    5401                              ( at time 2.6997298E+00 )

 nodal point  x-disp     y-disp      z-disp      x-vel       y-vel       z-vel      x-accl      y-accl      z-accl      x-coor      y-coor      z-coor
    22626 -4.58809E-04 9.22431E-02-1.64396E-01 1.15567E-06 7.13709E-02-1.04010E-01 8.06381E-03 3.72564E-02-1.28043E-02 4.65892E+00-2.80986E+01-4.51461E+01



 n o d a l   p r i n t   o u t   f o r   t i m e  s t e p    5401                              ( at time 2.6997298E+00 )

 nodal point  x-rot      y-rot       z-rot       x-rot vel   y-rot vel   z-rot vel   x-rot acc   y-rot acc   z-rot acc
    22626 -3.55783E-04 2.22589E-05-6.34089E-05-2.60478E-04 4.50628E-05-6.84774E-05-1.33410E-04-9.94354E-05-1.73423E-04



 n o d a l   p r i n t   o u t   f o r   t i m e  s t e p    5601                              ( at time 2.7997198E+00 )

 nodal point  x-disp     y-disp      z-disp      x-vel       y-vel       z-vel      x-accl      y-accl      z-accl      x-coor      y-coor      z-coor
    22626 -5.06370E-04 9.96177E-02-1.74797E-01-3.76754E-04 7.64187E-02-1.05027E-01-3.77948E-03 5.04832E-02-1.01708E-02 4.65887E+00-2.80912E+01-4.51565E+01



 n o d a l   p r i n t   o u t   f o r   t i m e  s t e p    5601                              ( at time 2.7997198E+00 )

 nodal point  x-rot      y-rot       z-rot       x-rot vel   y-rot vel   z-rot vel   x-rot acc   y-rot acc   z-rot acc
    22626 -3.80057E-04 2.70231E-05-6.96285E-05-2.39198E-04 5.09246E-05-5.60530E-05 2.12825E-04 5.86243E-05 1.24256E-04



 n o d a l   p r i n t   o u t   f o r   t i m e  s t e p    5801                              ( at time 2.8997098E+00 )

 nodal point  x-disp     y-disp      z-disp      x-vel       y-vel       z-vel      x-accl      y-accl      z-accl      x-coor      y-coor      z-coor
    22626 -5.15341E-04 1.07556E-01-1.85461E-01-3.22075E-04 8.21596E-02-1.08196E-01 5.46844E-04 5.74151E-02-3.16955E-02 4.65886E+00-2.80833E+01-4.51672E+01



 n o d a l   p r i n t   o u t   f o r   t i m e  s t e p    5801                              ( at time 2.8997098E+00 )

 nodal point  x-rot      y-rot       z-rot       x-rot vel   y-rot vel   z-rot vel   x-rot acc   y-rot acc   z-rot acc
    22626 -4.04066E-04 3.19285E-05-7.51592E-05-2.37992E-04 4.32491E-05-5.21940E-05 1.20549E-05-7.67628E-05 3.85942E-05



 n o d a l   p r i n t   o u t   f o r   t i m e  s t e p    6001                              ( at time 2.9996998E+00 )

 nodal point  x-disp     y-disp      z-disp      x-vel       y-vel       z-vel      x-accl      y-accl      z-accl      x-coor      y-coor      z-coor
    22626 -5.49727E-04 1.15945E-01-1.96357E-01-8.64484E-04 8.53359E-02-1.09253E-01-5.42462E-03 3.17654E-02-1.05782E-02 4.65883E+00-2.80749E+01-4.51781E+01



 n o d a l   p r i n t   o u t   f o r   t i m e  s t e p    6001                              ( at time 2.9996998E+00 )

 nodal point  x-rot      y-rot       z-rot       x-rot vel   y-rot vel   z-rot vel   x-rot acc   y-rot acc   z-rot acc
    22626 -4.28679E-04 3.59758E-05-8.30023E-05-2.40172E-04 4.27436E-05-1.01559E-04-2.17938E-05-5.05518E-06-4.93702E-04



 n o d a l   p r i n t   o u t   f o r   t i m e  s t e p    6201                              ( at time 3.0996898E+00 )

 nodal point  x-disp     y-disp      z-disp      x-vel       y-vel       z-vel      x-accl      y-accl      z-accl      x-coor      y-coor      z-coor
    22626 -5.70048E-04 1.24880E-01-2.07375E-01 9.93587E-04 9.27230E-02-1.10844E-01 1.85826E-02 7.38789E-02-1.59114E-02 4.65880E+00-2.80660E+01-4.51891E+01



 n o d a l   p r i n t   o u t   f o r   t i m e  s t e p    6201                              ( at time 3.0996898E+00 )

 nodal point  x-rot      y-rot       z-rot       x-rot vel   y-rot vel   z-rot vel   x-rot acc   y-rot acc   z-rot acc
    22626 -4.55714E-04 4.13446E-05-9.39707E-05-2.78019E-04 6.46337E-05-1.16558E-04-3.78512E-04 2.18923E-04-1.49998E-04



 n o d a l   p r i n t   o u t   f o r   t i m e  s t e p    6401                              ( at time 3.1996798E+00 )

 nodal point  x-disp     y-disp      z-disp      x-vel       y-vel       z-vel      x-accl      y-accl      z-accl      x-coor      y-coor      z-coor
    22626 -4.95223E-04 1.34486E-01-2.18621E-01 2.62892E-04 9.96960E-02-1.14705E-01-7.30766E-03 6.97369E-02-3.86088E-02 4.65888E+00-2.80563E+01-4.52003E+01



 n o d a l   p r i n t   o u t   f o r   t i m e  s t e p    6401                              ( at time 3.1996798E+00 )

 nodal point  x-rot      y-rot       z-rot       x-rot vel   y-rot vel   z-rot vel   x-rot acc   y-rot acc   z-rot acc
    22626 -4.83227E-04 4.72038E-05-1.05749E-04-2.67237E-04 5.00410E-05-1.20440E-04 1.07830E-04-1.45942E-04-3.88270E-05



 n o d a l   p r i n t   o u t   f o r   t i m e  s t e p    6601                              ( at time 3.2996698E+00 )

 nodal point  x-disp     y-disp      z-disp      x-vel       y-vel       z-vel      x-accl      y-accl      z-accl      x-coor      y-coor      z-coor
    22626 -4.79295E-04 1.44923E-01-2.30283E-01-7.06101E-04 1.06998E-01-1.18479E-01-9.69091E-03 7.30234E-02-3.77401E-02 4.65890E+00-2.80459E+01-4.52120E+01



 n o d a l   p r i n t   o u t   f o r   t i m e  s t e p    6601                              ( at time 3.2996698E+00 )

 nodal point  x-rot      y-rot       z-rot       x-rot vel   y-rot vel   z-rot vel   x-rot acc   y-rot acc   z-rot acc
    22626 -5.11392E-04 5.29620E-05-1.21299E-04-2.97974E-04 6.78543E-05-1.61146E-04-3.07398E-04 1.78151E-04-4.07098E-04



 n o d a l   p r i n t   o u t   f o r   t i m e  s t e p    6801                              ( at time 3.3996598E+00 )

 nodal point  x-disp     y-disp      z-disp      x-vel       y-vel       z-vel      x-accl      y-accl      z-accl      x-coor      y-coor      z-coor
    22626 -4.66039E-04 1.55929E-01-2.42294E-01 8.39027E-04 1.14901E-01-1.22815E-01 1.54528E-02 7.90441E-02-4.33703E-02 4.65891E+00-2.80349E+01-4.52240E+01



 n o d a l   p r i n t   o u t   f o r   t i m e  s t e p    6801                              ( at time 3.3996598E+00 )

 nodal point  x-rot      y-rot       z-rot       x-rot vel   y-rot vel   z-rot vel   x-rot acc   y-rot acc   z-rot acc
    22626 -5.41482E-04 6.04855E-05-1.35090E-04-3.29183E-04 7.20240E-05-1.19147E-04-3.12128E-04 4.17018E-05 4.20028E-04



 n o d a l   p r i n t   o u t   f o r   t i m e  s t e p    7001                              ( at time 3.4996498E+00 )

 nodal point  x-disp     y-disp      z-disp      x-vel       y-vel       z-vel      x-accl      y-accl      z-accl      x-coor      y-coor      z-coor
    22626 -5.55399E-04 1.67898E-01-2.54504E-01-1.64384E-03 1.21171E-01-1.21310E-01-2.48312E-02 6.27078E-02 1.50511E-02 4.65882E+00-2.80229E+01-4.52362E+01



 n o d a l   p r i n t   o u t   f o r   t i m e  s t e p    7001                              ( at time 3.4996498E+00 )

 nodal point  x-rot      y-rot       z-rot       x-rot vel   y-rot vel   z-rot vel   x-rot acc   y-rot acc   z-rot acc
    22626 -5.75744E-04 6.47456E-05-1.47511E-04-3.44351E-04 4.80755E-05-1.51912E-04-1.51691E-04-2.39510E-04-3.27679E-04



 n o d a l   p r i n t   o u t   f o r   t i m e  s t e p    7201                              ( at time 3.5996397E+00 )

 nodal point  x-disp     y-disp      z-disp      x-vel       y-vel       z-vel      x-accl      y-accl      z-accl      x-coor      y-coor      z-coor
    22626 -6.49146E-04 1.80404E-01-2.66767E-01-1.12537E-03 1.30609E-01-1.24689E-01 5.18523E-03 9.43845E-02-3.37897E-02 4.65873E+00-2.80104E+01-4.52485E+01



 n o d a l   p r i n t   o u t   f o r   t i m e  s t e p    7201                              ( at time 3.5996397E+00 )

 nodal point  x-rot      y-rot       z-rot       x-rot vel   y-rot vel   z-rot vel   x-rot acc   y-rot acc   z-rot acc
    22626 -6.10870E-04 7.17241E-05-1.64210E-04-3.70509E-04 8.28875E-05-1.49942E-04-2.61609E-04 3.48155E-04 1.97000E-05



 n o d a l   p r i n t   o u t   f o r   t i m e  s t e p    7401                              ( at time 3.6996297E+00 )

 nodal point  x-disp     y-disp      z-disp      x-vel       y-vel       z-vel      x-accl      y-accl      z-accl      x-coor      y-coor      z-coor
    22626 -6.10056E-04 1.93913E-01-2.79316E-01-1.06119E-04 1.39690E-01-1.24495E-01 1.01936E-02 9.08171E-02 1.93429E-03 4.65876E+00-2.79969E+01-4.52610E+01



 n o d a l   p r i n t   o u t   f o r   t i m e  s t e p    7401                              ( at time 3.6996297E+00 )

 nodal point  x-rot      y-rot       z-rot       x-rot vel   y-rot vel   z-rot vel   x-rot acc   y-rot acc   z-rot acc
    22626 -6.52587E-04 7.82750E-05-1.77367E-04-4.52002E-04 3.81836E-05-1.37799E-04-8.15008E-04-4.47082E-04 1.21443E-04



 n o d a l   p r i n t   o u t   f o r   t i m e  s t e p    7601                              ( at time 3.7996197E+00 )

 nodal point  x-disp     y-disp      z-disp      x-vel       y-vel       z-vel      x-accl      y-accl      z-accl      x-coor      y-coor      z-coor
    22626 -7.99326E-04 2.08310E-01-2.91840E-01-1.36121E-03 1.49034E-01-1.26818E-01-1.25522E-02 9.34511E-02-2.32289E-02 4.65858E+00-2.79825E+01-4.52736E+01



 n o d a l   p r i n t   o u t   f o r   t i m e  s t e p    7601                              ( at time 3.7996197E+00 )

 nodal point  x-rot      y-rot       z-rot       x-rot vel   y-rot vel   z-rot vel   x-rot acc   y-rot acc   z-rot acc
    22626 -6.98478E-04 8.18675E-05-1.93078E-04-4.93801E-04 5.05082E-05-1.90326E-04-4.18027E-04 1.23258E-04-5.25329E-04



 n o d a l   p r i n t   o u t   f o r   t i m e  s t e p    7801                              ( at time 3.8996097E+00 )

 nodal point  x-disp     y-disp      z-disp      x-vel       y-vel       z-vel      x-accl      y-accl      z-accl      x-coor      y-coor      z-coor
    22626 -8.98173E-04 2.23668E-01-3.04522E-01-6.16627E-04 1.58027E-01-1.25618E-01 7.44660E-03 8.99414E-02 1.20039E-02 4.65848E+00-2.79672E+01-4.52862E+01



 n o d a l   p r i n t   o u t   f o r   t i m e  s t e p    7801                              ( at time 3.8996097E+00 )

 nodal point  x-rot      y-rot       z-rot       x-rot vel   y-rot vel   z-rot vel   x-rot acc   y-rot acc   z-rot acc
    22626 -7.51593E-04 8.79965E-05-2.09570E-04-5.70146E-04 5.61768E-05-1.29605E-04-7.63527E-04 5.66911E-05 6.07269E-04



 n o d a l   p r i n t   o u t   f o r   t i m e  s t e p    8001                              ( at time 3.9995997E+00 )

 nodal point  x-disp     y-disp      z-disp      x-vel       y-vel       z-vel      x-accl      y-accl      z-accl      x-coor      y-coor      z-coor
    22626 -8.97573E-04 2.40088E-01-3.17085E-01-1.05328E-03 1.71319E-01-1.25796E-01-4.36698E-03 1.32932E-01-1.78310E-03 4.65848E+00-2.79507E+01-4.52988E+01



 n o d a l   p r i n t   o u t   f o r   t i m e  s t e p    8001                              ( at time 3.9995997E+00 )

 nodal point  x-rot      y-rot       z-rot       x-rot vel   y-rot vel   z-rot vel   x-rot acc   y-rot acc   z-rot acc
    22626 -8.12354E-04 9.33768E-05-2.23703E-04-6.38369E-04 3.96709E-05-1.57125E-04-6.82301E-04-1.65076E-04-2.75219E-04



 n o d a l   p r i n t   o u t   f o r   t i m e  s t e p    8201                              ( at time 4.0995897E+00 )

 nodal point  x-disp     y-disp      z-disp      x-vel       y-vel       z-vel      x-accl      y-accl      z-accl      x-coor      y-coor      z-coor
    22626 -1.11852E-03 2.57728E-01-3.29644E-01-4.73105E-04 1.81022E-01-1.24551E-01 5.80233E-03 9.70361E-02 1.24565E-02 4.65826E+00-2.79331E+01-4.53114E+01



 n o d a l   p r i n t   o u t   f o r   t i m e  s t e p    8201                              ( at time 4.0995897E+00 )

 nodal point  x-rot      y-rot       z-rot       x-rot vel   y-rot vel   z-rot vel   x-rot acc   y-rot acc   z-rot acc
    22626 -8.80958E-04 9.75644E-05-2.41534E-04-7.30766E-04 5.86717E-05-1.89144E-04-9.24064E-04 1.90028E-04-3.20224E-04



 n o d a l   p r i n t   o u t   f o r   t i m e  s t e p    8401                              ( at time 4.1995797E+00 )

 nodal point  x-disp     y-disp      z-disp      x-vel       y-vel       z-vel      x-accl      y-accl      z-accl      x-coor      y-coor      z-coor
    22626 -1.28290E-03 2.76524E-01-3.42125E-01-1.32110E-03 1.95251E-01-1.26350E-01-8.48080E-03 1.42305E-01-1.79985E-02 4.65809E+00-2.79143E+01-4.53238E+01



 n o d a l   p r i n t   o u t   f o r   t i m e  s t e p    8401                              ( at time 4.1995797E+00 )

 nodal point  x-rot      y-rot       z-rot       x-rot vel   y-rot vel   z-rot vel   x-rot acc   y-rot acc   z-rot acc
    22626 -9.58526E-04 1.03842E-04-2.56272E-04-8.39899E-04 5.67253E-05-1.18696E-04-1.09144E-03-1.94668E-05 7.04546E-04



 n o d a l   p r i n t   o u t   f o r   t i m e  s t e p    8601                              ( at time 4.2995697E+00 )

 nodal point  x-disp     y-disp      z-disp      x-vel       y-vel       z-vel      x-accl      y-accl      z-accl      x-coor      y-coor      z-coor
    22626 -1.36307E-03 2.96797E-01-3.54639E-01-2.46120E-03 2.08471E-01-1.23251E-01-1.14021E-02 1.32212E-01 3.09926E-02 4.65801E+00-2.78940E+01-4.53364E+01



 n o d a l   p r i n t   o u t   f o r   t i m e  s t e p    8601                              ( at time 4.2995697E+00 )

 nodal point  x-rot      y-rot       z-rot       x-rot vel   y-rot vel   z-rot vel   x-rot acc   y-rot acc   z-rot acc
    22626 -1.04699E-03 1.08502E-04-2.71495E-04-9.35931E-04 3.90903E-05-1.76535E-04-9.60412E-04-1.76367E-04-5.78444E-04



 n o d a l   p r i n t   o u t   f o r   t i m e  s t e p    8801                              ( at time 4.3995597E+00 )

 nodal point  x-disp     y-disp      z-disp      x-vel       y-vel       z-vel      x-accl      y-accl      z-accl      x-coor      y-coor      z-coor
    22626 -1.62562E-03 3.18320E-01-3.66762E-01-1.88803E-03 2.21044E-01-1.21781E-01 5.73228E-03 1.25748E-01 1.47036E-02 4.65775E+00-2.78725E+01-4.53485E+01



 n o d a l   p r i n t   o u t   f o r   t i m e  s t e p    8801                              ( at time 4.3995597E+00 )

 nodal point  x-rot      y-rot       z-rot       x-rot vel   y-rot vel   z-rot vel   x-rot acc   y-rot acc   z-rot acc
    22626 -1.14460E-03 1.14289E-04-2.89231E-04-1.03568E-03 7.40469E-05-1.52934E-04-9.97638E-04 3.49601E-04 2.36034E-04



 n o d a l   p r i n t   o u t   f o r   t i m e  s t e p    9001                              ( at time 4.4995497E+00 )

 nodal point  x-disp     y-disp      z-disp      x-vel       y-vel       z-vel      x-accl      y-accl      z-accl      x-coor      y-coor      z-coor
    22626 -1.73315E-03 3.41292E-01-3.78808E-01 7.15789E-04 2.36818E-01-1.18749E-01 2.60407E-02 1.57751E-01 3.03259E-02 4.65764E+00-2.78495E+01-4.53605E+01



 n o d a l   p r i n t   o u t   f o r   t i m e  s t e p    9001                              ( at time 4.4995497E+00 )

 nodal point  x-rot      y-rot       z-rot       x-rot vel   y-rot vel   z-rot vel   x-rot acc   y-rot acc   z-rot acc
    22626 -1.25585E-03 1.20169E-04-3.02562E-04-1.17061E-03 6.20133E-05-1.50382E-04-1.34942E-03-1.20347E-04 2.55223E-05



 n o d a l   p r i n t   o u t   f o r   t i m e  s t e p    9201                              ( at time 4.5995397E+00 )

 nodal point  x-disp     y-disp      z-disp      x-vel       y-vel       z-vel      x-accl      y-accl      z-accl      x-coor      y-coor      z-coor
    22626 -1.80877E-03 3.65790E-01-3.90580E-01-3.22959E-03 2.53354E-01-1.17181E-01-3.94578E-02 1.65383E-01 1.56760E-02 4.65757E+00-2.78250E+01-4.53723E+01



 n o d a l   p r i n t   o u t   f o r   t i m e  s t e p    9201                              ( at time 4.5995397E+00 )

 nodal point  x-rot      y-rot       z-rot       x-rot vel   y-rot vel   z-rot vel   x-rot acc   y-rot acc   z-rot acc
    22626 -1.37954E-03 1.24956E-04-3.18089E-04-1.28854E-03 3.23087E-05-1.54416E-04-1.17940E-03-2.97076E-04-4.03424E-05



 n o d a l   p r i n t   o u t   f o r   t i m e  s t e p    9401                              ( at time 4.6995297E+00 )

 nodal point  x-disp     y-disp      z-disp      x-vel       y-vel       z-vel      x-accl      y-accl      z-accl      x-coor      y-coor      z-coor
    22626 -1.91440E-03 3.91849E-01-4.02206E-01-5.89643E-04 2.67825E-01-1.13851E-01 2.64022E-02 1.44716E-01 3.33033E-02 4.65746E+00-2.77990E+01-4.53839E+01



 n o d a l   p r i n t   o u t   f o r   t i m e  s t e p    9401                              ( at time 4.6995297E+00 )

 nodal point  x-rot      y-rot       z-rot       x-rot vel   y-rot vel   z-rot vel   x-rot acc   y-rot acc   z-rot acc
    22626 -1.51487E-03 1.30054E-04-3.34355E-04-1.40165E-03 5.27894E-05-1.54895E-04-1.13118E-03 2.04828E-04-4.79345E-06



 n o d a l   p r i n t   o u t   f o r   t i m e  s t e p    9601                              ( at time 4.7995197E+00 )

 nodal point  x-disp     y-disp      z-disp      x-vel       y-vel       z-vel      x-accl      y-accl      z-accl      x-coor      y-coor      z-coor
    22626 -1.95666E-03 4.19475E-01-4.13450E-01 7.54559E-04 2.85059E-01-1.11197E-01 1.34434E-02 1.72363E-01 2.65480E-02 4.65742E+00-2.77714E+01-4.53952E+01



 n o d a l   p r i n t   o u t   f o r   t i m e  s t e p    9601                              ( at time 4.7995197E+00 )

 nodal point  x-rot      y-rot       z-rot       x-rot vel   y-rot vel   z-rot vel   x-rot acc   y-rot acc   z-rot acc
    22626 -1.66458E-03 1.35880E-04-3.48877E-04-1.57985E-03 5.80605E-05-1.50389E-04-1.78218E-03 5.27163E-05 4.50651E-05



 n o d a l   p r i n t   o u t   f o r   t i m e  s t e p    9801                              ( at time 4.8995097E+00 )

 nodal point  x-disp     y-disp      z-disp      x-vel       y-vel       z-vel      x-accl      y-accl      z-accl      x-coor      y-coor      z-coor
    22626 -1.95970E-03 4.48828E-01-4.24327E-01-8.83022E-04 3.01598E-01-1.05801E-01-1.63775E-02 1.65406E-01 5.39660E-02 4.65742E+00-2.77420E+01-4.54060E+01



 n o d a l   p r i n t   o u t   f o r   t i m e  s t e p    9801                              ( at time 4.8995097E+00 )

 nodal point  x-rot      y-rot       z-rot       x-rot vel   y-rot vel   z-rot vel   x-rot acc   y-rot acc   z-rot acc
    22626 -1.82971E-03 1.41084E-04-3.63283E-04-1.70519E-03 5.87486E-05-1.34164E-04-1.25355E-03 6.88164E-06 1.62262E-04



 n o d a l   p r i n t   o u t   f o r   t i m e  s t e p   10001                              ( at time 4.9994997E+00 )

 nodal point  x-disp     y-disp      z-disp      x-vel       y-vel       z-vel      x-accl      y-accl      z-accl      x-coor      y-coor      z-coor
    22626 -1.93196E-03 4.79807E-01-4.34772E-01-2.81139E-04 3.19082E-01-1.03885E-01 6.01941E-03 1.74860E-01 1.91583E-02 4.65744E+00-2.77110E+01-4.54165E+01



 n o d a l   p r i n t   o u t   f o r   t i m e  s t e p   10001                              ( at time 4.9994997E+00 )

 nodal point  x-rot      y-rot       z-rot       x-rot vel   y-rot vel   z-rot vel   x-rot acc   y-rot acc   z-rot acc
    22626 -2.00748E-03 1.46979E-04-3.77941E-04-1.84923E-03 6.30927E-05-1.44303E-04-1.44050E-03 4.34453E-05-1.01398E-04



 n o d a l   p r i n t   o u t   f o r   t i m e  s t e p   10202                              ( at time 5.0999896E+00 )

 nodal point  x-disp     y-disp      z-disp      x-vel       y-vel       z-vel      x-accl      y-accl      z-accl      x-coor      y-coor      z-coor
    22626 -1.97331E-03 5.12745E-01-4.45037E-01 2.78760E-04 3.36026E-01-9.95279E-02 5.57171E-03 1.68612E-01 4.33598E-02 4.65740E+00-2.76781E+01-4.54268E+01



 n o d a l   p r i n t   o u t   f o r   t i m e  s t e p   10202                              ( at time 5.0999896E+00 )

 nodal point  x-rot      y-rot       z-rot       x-rot vel   y-rot vel   z-rot vel   x-rot acc   y-rot acc   z-rot acc
    22626 -2.20106E-03 1.52701E-04-3.92235E-04-1.99619E-03 7.55830E-05-1.43235E-04-1.46250E-03 1.24294E-04 1.06331E-05



 n o d a l   p r i n t   o u t   f o r   t i m e  s t e p   10402                              ( at time 5.1999796E+00 )

 nodal point  x-disp     y-disp      z-disp      x-vel       y-vel       z-vel      x-accl      y-accl      z-accl      x-coor      y-coor      z-coor
    22626 -1.93875E-03 5.47244E-01-4.54713E-01 7.90587E-04 3.53851E-01-9.43878E-02 5.11876E-03 1.78262E-01 5.14066E-02 4.65744E+00-2.76436E+01-4.54364E+01



 n o d a l   p r i n t   o u t   f o r   t i m e  s t e p   10402                              ( at time 5.1999796E+00 )

 nodal point  x-rot      y-rot       z-rot       x-rot vel   y-rot vel   z-rot vel   x-rot acc   y-rot acc   z-rot acc
    22626 -2.40932E-03 1.60062E-04-4.05819E-04-2.15380E-03 6.79146E-05-1.26365E-04-1.57619E-03-7.66910E-05 1.68718E-04



 n o d a l   p r i n t   o u t   f o r   t i m e  s t e p   10602                              ( at time 5.2999696E+00 )

 nodal point  x-disp     y-disp      z-disp      x-vel       y-vel       z-vel      x-accl      y-accl      z-accl      x-coor      y-coor      z-coor
    22626 -1.88312E-03 5.83494E-01-4.63917E-01 3.64183E-04 3.71604E-01-8.90878E-02-4.26446E-03 1.77548E-01 5.30050E-02 4.65749E+00-2.76073E+01-4.54456E+01



 n o d a l   p r i n t   o u t   f o r   t i m e  s t e p   10602                              ( at time 5.2999696E+00 )

 nodal point  x-rot      y-rot       z-rot       x-rot vel   y-rot vel   z-rot vel   x-rot acc   y-rot acc   z-rot acc
    22626 -2.63236E-03 1.66534E-04-4.18572E-04-2.30444E-03 5.65937E-05-1.36660E-04-1.50653E-03-1.13220E-04-1.02964E-04



 n o d a l   p r i n t   o u t   f o r   t i m e  s t e p   10802                              ( at time 5.3999596E+00 )

 nodal point  x-disp     y-disp      z-disp      x-vel       y-vel       z-vel      x-accl      y-accl      z-accl      x-coor      y-coor      z-coor
    22626 -1.88374E-03 6.21575E-01-4.72594E-01-5.36288E-04 3.89659E-01-8.44492E-02-9.00563E-03 1.80572E-01 4.63910E-02 4.65749E+00-2.75693E+01-4.54543E+01



 n o d a l   p r i n t   o u t   f o r   t i m e  s t e p   10802                              ( at time 5.3999596E+00 )

 nodal point  x-rot      y-rot       z-rot       x-rot vel   y-rot vel   z-rot vel   x-rot acc   y-rot acc   z-rot acc
    22626 -2.87139E-03 1.73132E-04-4.33239E-04-2.46376E-03 7.31892E-05-1.40591E-04-1.59335E-03 1.65972E-04-3.93158E-05



 n o d a l   p r i n t   o u t   f o r   t i m e  s t e p   11002                              ( at time 5.4999496E+00 )

 nodal point  x-disp     y-disp      z-disp      x-vel       y-vel       z-vel      x-accl      y-accl      z-accl      x-coor      y-coor      z-coor
    22626 -1.84964E-03 6.61366E-01-4.80713E-01 1.20744E-03 4.06366E-01-7.73886E-02 1.74391E-02 1.67091E-01 7.06126E-02 4.65753E+00-2.75295E+01-4.54624E+01



 n o d a l   p r i n t   o u t   f o r   t i m e  s t e p   11002                              ( at time 5.4999496E+00 )

 nodal point  x-rot      y-rot       z-rot       x-rot vel   y-rot vel   z-rot vel   x-rot acc   y-rot acc   z-rot acc
    22626 -3.12405E-03 1.80971E-04-4.47040E-04-2.59922E-03 7.30046E-05-1.28509E-04-1.35479E-03-1.84646E-06 1.20834E-04



 n o d a l   p r i n t   o u t   f o r   t i m e  s t e p   11202                              ( at time 5.5999396E+00 )

 nodal point  x-disp     y-disp      z-disp      x-vel       y-vel       z-vel      x-accl      y-accl      z-accl      x-coor      y-coor      z-coor
    22626 -1.73889E-03 7.02899E-01-4.88157E-01 1.08155E-03 4.24604E-01-7.07750E-02-1.25908E-03 1.82397E-01 6.61428E-02 4.65764E+00-2.74879E+01-4.54699E+01



 n o d a l   p r i n t   o u t   f o r   t i m e  s t e p   11202                              ( at time 5.5999396E+00 )

 nodal point  x-rot      y-rot       z-rot       x-rot vel   y-rot vel   z-rot vel   x-rot acc   y-rot acc   z-rot acc
    22626 -3.39281E-03 1.88068E-04-4.60672E-04-2.76229E-03 5.65229E-05-1.50837E-04-1.63086E-03-1.64834E-04-2.23305E-04



 n o d a l   p r i n t   o u t   f o r   t i m e  s t e p   11402                              ( at time 5.6999296E+00 )

 nodal point  x-disp     y-disp      z-disp      x-vel       y-vel       z-vel      x-accl      y-accl      z-accl      x-coor      y-coor      z-coor
    22626 -1.71765E-03 7.46152E-01-4.94798E-01 1.10960E-04 4.40407E-01-6.15151E-02-9.70682E-03 1.58045E-01 9.26082E-02 4.65766E+00-2.74447E+01-4.54765E+01



 n o d a l   p r i n t   o u t   f o r   t i m e  s t e p   11402                              ( at time 5.6999296E+00 )

 nodal point  x-rot      y-rot       z-rot       x-rot vel   y-rot vel   z-rot vel   x-rot acc   y-rot acc   z-rot acc
    22626 -3.67713E-03 1.93611E-04-4.76169E-04-2.90919E-03 5.27239E-05-1.60542E-04-1.46914E-03-3.79937E-05-9.70552E-05



 n o d a l   p r i n t   o u t   f o r   t i m e  s t e p   11602                              ( at time 5.7999195E+00 )

 nodal point  x-disp     y-disp      z-disp      x-vel       y-vel       z-vel      x-accl      y-accl      z-accl      x-coor      y-coor      z-coor
    22626 -1.65568E-03 7.91057E-01-5.00562E-01 1.59160E-03 4.57667E-01-5.32997E-02 1.48079E-02 1.72611E-01 8.21618E-02 4.65772E+00-2.73998E+01-4.54823E+01



 n o d a l   p r i n t   o u t   f o r   t i m e  s t e p   11602                              ( at time 5.7999195E+00 )

 nodal point  x-rot      y-rot       z-rot       x-rot vel   y-rot vel   z-rot vel   x-rot acc   y-rot acc   z-rot acc
    22626 -3.97539E-03 2.01614E-04-4.90939E-04-3.04880E-03 7.63014E-05-1.37040E-04-1.39628E-03 2.35799E-04 2.35040E-04



 n o d a l   p r i n t   o u t   f o r   t i m e  s t e p   11802                              ( at time 5.8999095E+00 )

 nodal point  x-disp     y-disp      z-disp      x-vel       y-vel       z-vel      x-accl      y-accl      z-accl      x-coor      y-coor      z-coor
    22626 -1.48607E-03 8.37717E-01-5.05491E-01 1.37490E-03 4.75040E-01-4.48002E-02-2.16727E-03 1.73751E-01 8.50037E-02 4.65789E+00-2.73531E+01-4.54872E+01



 n o d a l   p r i n t   o u t   f o r   t i m e  s t e p   11802                              ( at time 5.8999095E+00 )

 nodal point  x-rot      y-rot       z-rot       x-rot vel   y-rot vel   z-rot vel   x-rot acc   y-rot acc   z-rot acc
    22626 -4.28957E-03 2.08218E-04-5.05564E-04-3.22080E-03 5.76325E-05-1.58971E-04-1.72012E-03-1.86707E-04-2.19327E-04



 n o d a l   p r i n t   o u t   f o r   t i m e  s t e p   12002                              ( at time 5.9998995E+00 )

 nodal point  x-disp     y-disp      z-disp      x-vel       y-vel       z-vel      x-accl      y-accl      z-accl      x-coor      y-coor      z-coor
    22626 -1.49471E-03 8.86069E-01-5.09544E-01-6.48451E-05 4.91666E-01-3.60280E-02-1.43989E-02 1.66281E-01 8.77308E-02 4.65788E+00-2.73048E+01-4.54913E+01



 n o d a l   p r i n t   o u t   f o r   t i m e  s t e p   12002                              ( at time 5.9998995E+00 )

 nodal point  x-rot      y-rot       z-rot       x-rot vel   y-rot vel   z-rot vel   x-rot acc   y-rot acc   z-rot acc
    22626 -4.61899E-03 2.13181E-04-5.21875E-04-3.36973E-03 5.61934E-05-1.70254E-04-1.48943E-03-1.43923E-05-1.12848E-04



 n o d a l   p r i n t   o u t   f o r   t i m e  s t e p   12202                              ( at time 6.0998895E+00 )

 nodal point  x-disp     y-disp      z-disp      x-vel       y-vel       z-vel      x-accl      y-accl      z-accl      x-coor      y-coor      z-coor
    22626 -1.39133E-03 9.36150E-01-5.12628E-01 1.26056E-03 5.09443E-01-2.56959E-02 1.32553E-02 1.77789E-01 1.03331E-01 4.65798E+00-2.72547E+01-4.54943E+01



 n o d a l   p r i n t   o u t   f o r   t i m e  s t e p   12202                              ( at time 6.0998895E+00 )

 nodal point  x-rot      y-rot       z-rot       x-rot vel   y-rot vel   z-rot vel   x-rot acc   y-rot acc   z-rot acc
    22626 -4.96384E-03 2.19984E-04-5.38111E-04-3.52050E-03 7.81750E-05-1.44732E-04-1.50784E-03 2.19837E-04 2.55251E-04



 n o d a l   p r i n t   o u t   f o r   t i m e  s t e p   12402                              ( at time 6.1998795E+00 )

 nodal point  x-disp     y-disp      z-disp      x-vel       y-vel       z-vel      x-accl      y-accl      z-accl      x-coor      y-coor      z-coor
    22626 -1.23554E-03 9.87993E-01-5.14752E-01 1.33711E-03 5.27001E-01-1.64630E-02 7.65541E-04 1.75589E-01 9.23386E-02 4.65814E+00-2.72028E+01-4.54965E+01



 n o d a l   p r i n t   o u t   f o r   t i m e  s t e p   12402                              ( at time 6.1998795E+00 )

 nodal point  x-rot      y-rot       z-rot       x-rot vel   y-rot vel   z-rot vel   x-rot acc   y-rot acc   z-rot acc
    22626 -5.32356E-03 2.27531E-04-5.53066E-04-3.67623E-03 5.88361E-05-1.56560E-04-1.55754E-03-1.93409E-04-1.18299E-04



 n o d a l   p r i n t   o u t   f o r   t i m e  s t e p   12602                              ( at time 6.2998695E+00 )

 nodal point  x-disp     y-disp      z-disp      x-vel       y-vel       z-vel      x-accl      y-accl      z-accl      x-coor      y-coor      z-coor
    22626 -1.14954E-03 1.04155E+00-5.15873E-01-2.92073E-05 5.44414E-01-5.86803E-03-1.36645E-02 1.74150E-01 1.05960E-01 4.65823E+00-2.71493E+01-4.54976E+01



 n o d a l   p r i n t   o u t   f o r   t i m e  s t e p   12602                              ( at time 6.2998695E+00 )

 nodal point  x-rot      y-rot       z-rot       x-rot vel   y-rot vel   z-rot vel   x-rot acc   y-rot acc   z-rot acc
    22626 -5.69875E-03 2.32365E-04-5.70763E-04-3.82186E-03 5.01033E-05-1.71495E-04-1.45641E-03-8.73361E-05-1.49357E-04



 n o d a l   p r i n t   o u t   f o r   t i m e  s t e p   12802                              ( at time 6.3998595E+00 )

 nodal point  x-disp     y-disp      z-disp      x-vel       y-vel       z-vel      x-accl      y-accl      z-accl      x-coor      y-coor      z-coor
    22626 -1.03302E-03 1.09685E+00-5.15930E-01 2.10058E-03 5.61325E-01 4.56784E-03 2.13000E-02 1.69131E-01 1.04369E-01 4.65834E+00-2.70940E+01-4.54977E+01



 n o d a l   p r i n t   o u t   f o r   t i m e  s t e p   12802                              ( at time 6.3998595E+00 )

 nodal point  x-rot      y-rot       z-rot       x-rot vel   y-rot vel   z-rot vel   x-rot acc   y-rot acc   z-rot acc
    22626 -6.08794E-03 2.38873E-04-5.88225E-04-3.96605E-03 6.13842E-05-1.67200E-04-1.44202E-03 1.12820E-04 4.29545E-05



 n o d a l   p r i n t   o u t   f o r   t i m e  s t e p   13002                              ( at time 6.4998495E+00 )

 nodal point  x-disp     y-disp      z-disp      x-vel       y-vel       z-vel      x-accl      y-accl      z-accl      x-coor      y-coor      z-coor
    22626 -8.67049E-04 1.15387E+00-5.14890E-01 2.30879E-03 5.78495E-01 1.70461E-02 2.08231E-03 1.71720E-01 1.24796E-01 4.65851E+00-2.70370E+01-4.54966E+01



 n o d a l   p r i n t   o u t   f o r   t i m e  s t e p   13002                              ( at time 6.4998495E+00 )

 nodal point  x-rot      y-rot       z-rot       x-rot vel   y-rot vel   z-rot vel   x-rot acc   y-rot acc   z-rot acc
    22626 -6.49275E-03 2.44664E-04-6.05255E-04-4.11567E-03 6.08216E-05-1.91718E-04-1.49640E-03-5.62634E-06-2.45209E-04



 n o d a l   p r i n t   o u t   f o r   t i m e  s t e p   13202                              ( at time 6.5998395E+00 )

 nodal point  x-disp     y-disp      z-disp      x-vel       y-vel       z-vel      x-accl      y-accl      z-accl      x-coor      y-coor      z-coor
    22626 -7.14767E-04 1.21254E+00-5.12608E-01 5.85641E-04 5.95298E-01 2.85193E-02-1.72331E-02 1.68038E-01 1.14742E-01 4.65866E+00-2.69783E+01-4.54943E+01



 n o d a l   p r i n t   o u t   f o r   t i m e  s t e p   13202                              ( at time 6.5998395E+00 )

 nodal point  x-rot      y-rot       z-rot       x-rot vel   y-rot vel   z-rot vel   x-rot acc   y-rot acc   z-rot acc
    22626 -6.91179E-03 2.49796E-04-6.24461E-04-4.25634E-03 4.24102E-05-1.84215E-04-1.40675E-03-1.84132E-04 7.50352E-05



 n o d a l   p r i n t   o u t   f o r   t i m e  s t e p   13402                              ( at time 6.6998295E+00 )

 nodal point  x-disp     y-disp      z-disp      x-vel       y-vel       z-vel      x-accl      y-accl      z-accl      x-coor      y-coor      z-coor
    22626 -5.87836E-04 1.27297E+00-5.09188E-01 1.02545E-03 6.12633E-01 4.07347E-02 4.39854E-03 1.73373E-01 1.22167E-01 4.65879E+00-2.69179E+01-4.54909E+01



 n o d a l   p r i n t   o u t   f o r   t i m e  s t e p   13402                              ( at time 6.6998295E+00 )

 nodal point  x-rot      y-rot       z-rot       x-rot vel   y-rot vel   z-rot vel   x-rot acc   y-rot acc   z-rot acc
    22626 -7.34384E-03 2.54889E-04-6.44464E-04-4.38438E-03 5.55383E-05-1.91527E-04-1.28054E-03 1.31294E-04-7.31215E-05



 n o d a l   p r i n t   o u t   f o r   t i m e  s t e p   13602                              ( at time 6.7998195E+00 )

 nodal point  x-disp     y-disp      z-disp      x-vel       y-vel       z-vel      x-accl      y-accl      z-accl      x-coor      y-coor      z-coor
    22626 -4.64248E-04 1.33505E+00-5.04530E-01 2.06748E-03 6.29821E-01 5.21148E-02 1.04213E-02 1.71899E-01 1.13812E-01 4.65891E+00-2.68558E+01-4.54863E+01



 n o d a l   p r i n t   o u t   f o r   t i m e  s t e p   13602                              ( at time 6.7998195E+00 )

 nodal point  x-rot      y-rot       z-rot       x-rot vel   y-rot vel   z-rot vel   x-rot acc   y-rot acc   z-rot acc
    22626 -7.78970E-03 2.60091E-04-6.63682E-04-4.53564E-03 5.86549E-05-1.90403E-04-1.51284E-03 3.11693E-05 1.12377E-05



 n o d a l   p r i n t   o u t   f o r   t i m e  s t e p   13802                              ( at time 6.8998095E+00 )

 nodal point  x-disp     y-disp      z-disp      x-vel       y-vel       z-vel      x-accl      y-accl      z-accl      x-coor      y-coor      z-coor
    22626 -3.18783E-04 1.39891E+00-4.98704E-01 1.19382E-03 6.46711E-01 6.46446E-02-8.73744E-03 1.68914E-01 1.25311E-01 4.65906E+00-2.67919E+01-4.54804E+01



 n o d a l   p r i n t   o u t   f o r   t i m e  s t e p   13802                              ( at time 6.8998095E+00 )

 nodal point  x-rot      y-rot       z-rot       x-rot vel   y-rot vel   z-rot vel   x-rot acc   y-rot acc   z-rot acc
    22626 -8.24957E-03 2.65872E-04-6.83518E-04-4.66469E-03 5.13557E-05-2.01324E-04-1.29063E-03-7.30000E-05-1.09225E-04



 n o d a l   p r i n t   o u t   f o r   t i m e  s t e p   14002                              ( at time 6.9997995E+00 )

 nodal point  x-disp     y-disp      z-disp      x-vel       y-vel       z-vel      x-accl      y-accl      z-accl      x-coor      y-coor      z-coor
    22626 -1.95718E-04 1.46446E+00-4.91524E-01 4.05251E-04 6.63986E-01 7.87973E-02-7.88649E-03 1.72771E-01 1.41541E-01 4.65918E+00-2.67264E+01-4.54732E+01



 n o d a l   p r i n t   o u t   f o r   t i m e  s t e p   14002                              ( at time 6.9997995E+00 )

 nodal point  x-rot      y-rot       z-rot       x-rot vel   y-rot vel   z-rot vel   x-rot acc   y-rot acc   z-rot acc
    22626 -8.72308E-03 2.71391E-04-7.04131E-04-4.78689E-03 5.84286E-05-2.02726E-04-1.22212E-03 7.07358E-05-1.40185E-05



 n o d a l   p r i n t   o u t   f o r   t i m e  s t e p   14202                              ( at time 7.0997895E+00 )

 nodal point  x-disp     y-disp      z-disp      x-vel       y-vel       z-vel      x-accl      y-accl      z-accl      x-coor      y-coor      z-coor
    22626 -1.30020E-04 1.53171E+00-4.83021E-01 1.97059E-03 6.80862E-01 9.18519E-02 1.56549E-02 1.68777E-01 1.30559E-01 4.65925E+00-2.66591E+01-4.54647E+01



 n o d a l   p r i n t   o u t   f o r   t i m e  s t e p   14202                              ( at time 7.0997895E+00 )

 nodal point  x-rot      y-rot       z-rot       x-rot vel   y-rot vel   z-rot vel   x-rot acc   y-rot acc   z-rot acc
    22626 -9.20975E-03 2.77633E-04-7.24321E-04-4.92576E-03 5.93228E-05-2.15648E-04-1.38882E-03 8.94323E-06-1.29234E-04



 n o d a l   p r i n t   o u t   f o r   t i m e  s t e p   14402                              ( at time 7.1997794E+00 )

 nodal point  x-disp     y-disp      z-disp      x-vel       y-vel       z-vel      x-accl      y-accl      z-accl      x-coor      y-coor      z-coor
    22626  1.71831E-05 1.60071E+00-4.73174E-01 8.08915E-04 6.98806E-01 1.05961E-01-1.16179E-02 1.79459E-01 1.41107E-01 4.65939E+00-2.65901E+01-4.54549E+01



 n o d a l   p r i n t   o u t   f o r   t i m e  s t e p   14402                              ( at time 7.1997794E+00 )

 nodal point  x-rot      y-rot       z-rot       x-rot vel   y-rot vel   z-rot vel   x-rot acc   y-rot acc   z-rot acc
    22626 -9.70997E-03 2.83486E-04-7.44599E-04-5.06441E-03 5.46792E-05-2.08039E-04-1.38664E-03-4.64406E-05 7.61011E-05



 n o d a l   p r i n t   o u t   f o r   t i m e  s t e p   14602                              ( at time 7.2997694E+00 )

 nodal point  x-disp     y-disp      z-disp      x-vel       y-vel       z-vel      x-accl      y-accl      z-accl      x-coor      y-coor      z-coor
    22626  8.69238E-05 1.67134E+00-4.61809E-01 3.94534E-04 7.14375E-01 1.21483E-01-4.14423E-03 1.55705E-01 1.55233E-01 4.65946E+00-2.65195E+01-4.54435E+01



 n o d a l   p r i n t   o u t   f o r   t i m e  s t e p   14602                              ( at time 7.2997694E+00 )

 nodal point  x-rot      y-rot       z-rot       x-rot vel   y-rot vel   z-rot vel   x-rot acc   y-rot acc   z-rot acc
    22626 -1.02231E-02 2.89547E-04-7.66460E-04-5.20631E-03 5.56882E-05-2.22234E-04-1.41914E-03 1.00912E-05-1.41960E-04



 n o d a l   p r i n t   o u t   f o r   t i m e  s t e p   14802                              ( at time 7.3997594E+00 )

 nodal point  x-disp     y-disp      z-disp      x-vel       y-vel       z-vel      x-accl      y-accl      z-accl      x-coor      y-coor      z-coor
    22626  1.71957E-04 1.74365E+00-4.48866E-01 1.45454E-03 7.31461E-01 1.37747E-01 1.06011E-02 1.70878E-01 1.62661E-01 4.65955E+00-2.64472E+01-4.54306E+01



 n o d a l   p r i n t   o u t   f o r   t i m e  s t e p   14802                              ( at time 7.3997594E+00 )

 nodal point  x-rot      y-rot       z-rot       x-rot vel   y-rot vel   z-rot vel   x-rot acc   y-rot acc   z-rot acc
    22626 -1.07498E-02 2.94664E-04-7.87977E-04-5.33059E-03 5.72260E-05-2.08459E-04-1.24292E-03 1.53791E-05 1.37760E-04



 n o d a l   p r i n t   o u t   f o r   t i m e  s t e p   15002                              ( at time 7.4997494E+00 )

 nodal point  x-disp     y-disp      z-disp      x-vel       y-vel       z-vel      x-accl      y-accl      z-accl      x-coor      y-coor      z-coor
    22626  3.26272E-04 1.81757E+00-4.34322E-01 1.40317E-03 7.47778E-01 1.53623E-01-5.13725E-04 1.63180E-01 1.58774E-01 4.65970E+00-2.63733E+01-4.54160E+01



 n o d a l   p r i n t   o u t   f o r   t i m e  s t e p   15002                              ( at time 7.4997494E+00 )

 nodal point  x-rot      y-rot       z-rot       x-rot vel   y-rot vel   z-rot vel   x-rot acc   y-rot acc   z-rot acc
    22626 -1.12897E-02 3.01122E-04-8.08706E-04-5.47167E-03 6.39935E-05-2.15597E-04-1.41088E-03 6.76817E-05-7.13834E-05



 n o d a l   p r i n t   o u t   f o r   t i m e  s t e p   15202                              ( at time 7.5997394E+00 )

 nodal point  x-disp     y-disp      z-disp      x-vel       y-vel       z-vel      x-accl      y-accl      z-accl      x-coor      y-coor      z-coor
    22626  4.72908E-04 1.89315E+00-4.18161E-01 1.22560E-03 7.63853E-01 1.69483E-01-1.77592E-03 1.60769E-01 1.58617E-01 4.65985E+00-2.62977E+01-4.53999E+01



 n o d a l   p r i n t   o u t   f o r   t i m e  s t e p   15202                              ( at time 7.5997394E+00 )

 nodal point  x-rot      y-rot       z-rot       x-rot vel   y-rot vel   z-rot vel   x-rot acc   y-rot acc   z-rot acc
    22626 -1.18417E-02 3.06447E-04-8.31041E-04-5.58447E-03 4.06142E-05-2.15107E-04-1.12815E-03-2.33817E-04 4.89663E-06



 n o d a l   p r i n t   o u t   f o r   t i m e  s t e p   15402                              ( at time 7.6997294E+00 )

 nodal point  x-disp     y-disp      z-disp      x-vel       y-vel       z-vel      x-accl      y-accl      z-accl      x-coor      y-coor      z-coor
    22626  5.64692E-04 1.97036E+00-4.00448E-01 1.26116E-03 7.80500E-01 1.84735E-01 3.55646E-04 1.66487E-01 1.52533E-01 4.65994E+00-2.62205E+01-4.53822E+01



 n o d a l   p r i n t   o u t   f o r   t i m e  s t e p   15402                              ( at time 7.6997294E+00 )

 nodal point  x-rot      y-rot       z-rot       x-rot vel   y-rot vel   z-rot vel   x-rot acc   y-rot acc   z-rot acc
    22626 -1.24066E-02 3.11423E-04-8.52281E-04-5.72888E-03 6.52971E-05-2.17658E-04-1.44420E-03 2.46854E-04-2.55096E-05



 n o d a l   p r i n t   o u t   f o r   t i m e  s t e p   15602                              ( at time 7.7997194E+00 )

 nodal point  x-disp     y-disp      z-disp      x-vel       y-vel       z-vel      x-accl      y-accl      z-accl      x-coor      y-coor      z-coor
    22626  7.44585E-04 2.04925E+00-3.81113E-01 2.02522E-03 7.96149E-01 2.02021E-01 7.64138E-03 1.56505E-01 1.72872E-01 4.66012E+00-2.61416E+01-4.53628E+01



 n o d a l   p r i n t   o u t   f o r   t i m e  s t e p   15602                              ( at time 7.7997194E+00 )

 nodal point  x-rot      y-rot       z-rot       x-rot vel   y-rot vel   z-rot vel   x-rot acc   y-rot acc   z-rot acc
    22626 -1.29837E-02 3.17897E-04-8.74335E-04-5.84222E-03 5.52891E-05-2.12909E-04-1.13356E-03-1.00091E-04 4.74905E-05



 n o d a l   p r i n t   o u t   f o r   t i m e  s t e p   15802                              ( at time 7.8997094E+00 )

 nodal point  x-disp     y-disp      z-disp      x-vel       y-vel       z-vel      x-accl      y-accl      z-accl      x-coor      y-coor      z-coor
    22626  9.09139E-04 2.12920E+00-3.59838E-01 2.14982E-03 8.05111E-01 2.22058E-01 1.24620E-03 8.96294E-02 2.00393E-01 4.66028E+00-2.60616E+01-4.53416E+01



 n o d a l   p r i n t   o u t   f o r   t i m e  s t e p   15802                              ( at time 7.8997094E+00 )

 nodal point  x-rot      y-rot       z-rot       x-rot vel   y-rot vel   z-rot vel   x-rot acc   y-rot acc   z-rot acc
    22626 -1.35695E-02 3.24040E-04-8.93752E-04-5.87380E-03 8.08017E-05-1.62021E-04-3.15778E-04 2.55152E-04 5.08927E-04



 n o d a l   p r i n t   o u t   f o r   t i m e  s t e p   16002                              ( at time 7.9996994E+00 )

 nodal point  x-disp     y-disp      z-disp      x-vel       y-vel       z-vel      x-accl      y-accl      z-accl      x-coor      y-coor      z-coor
    22626  1.25606E-03 2.21069E+00-3.37071E-01 4.21527E-03 8.21612E-01 2.38587E-01 2.06565E-02 1.65024E-01 1.65303E-01 4.66063E+00-2.59801E+01-4.53188E+01



 n o d a l   p r i n t   o u t   f o r   t i m e  s t e p   16002                              ( at time 7.9996994E+00 )

 nodal point  x-rot      y-rot       z-rot       x-rot vel   y-rot vel   z-rot vel   x-rot acc   y-rot acc   z-rot acc
    22626 -1.41667E-02 3.32559E-04-9.08329E-04-6.00800E-03 9.23904E-05-1.46737E-04-1.34220E-03 1.15898E-04 1.52855E-04



 n o d a l   p r i n t   o u t   f o r   t i m e  s t e p   16202                              ( at time 8.0996894E+00 )

 nodal point  x-disp     y-disp      z-disp      x-vel       y-vel       z-vel      x-accl      y-accl      z-accl      x-coor      y-coor      z-coor
    22626  1.48298E-03 2.29319E+00-3.12122E-01 7.96503E-04 8.33578E-01 2.60164E-01-3.41912E-02 1.19677E-01 2.15796E-01 4.66086E+00-2.58976E+01-4.52938E+01



 n o d a l   p r i n t   o u t   f o r   t i m e  s t e p   16202                              ( at time 8.0996894E+00 )

 nodal point  x-rot      y-rot       z-rot       x-rot vel   y-rot vel   z-rot vel   x-rot acc   y-rot acc   z-rot acc
    22626 -1.47762E-02 3.39723E-04-9.24466E-04-6.15845E-03 5.92715E-05-1.78568E-04-1.50468E-03-3.31222E-04-3.18338E-04



 n o d a l   p r i n t   o u t   f o r   t i m e  s t e p   16402                              ( at time 8.1996794E+00 )

 nodal point  x-disp     y-disp      z-disp      x-vel       y-vel       z-vel      x-accl      y-accl      z-accl      x-coor      y-coor      z-coor
    22626  1.68256E-03 2.37714E+00-2.85253E-01 2.18397E-03 8.43268E-01 2.77123E-01 1.38761E-02 9.69031E-02 1.69608E-01 4.66106E+00-2.58137E+01-4.52670E+01



 n o d a l   p r i n t   o u t   f o r   t i m e  s t e p   16402                              ( at time 8.1996794E+00 )

 nodal point  x-rot      y-rot       z-rot       x-rot vel   y-rot vel   z-rot vel   x-rot acc   y-rot acc   z-rot acc
    22626 -1.53974E-02 3.46105E-04-9.39871E-04-6.25180E-03 6.40846E-05-1.48576E-04-9.33531E-04 4.81353E-05 2.99946E-04



 n o d a l   p r i n t   o u t   f o r   t i m e  s t e p   16602                              ( at time 8.2996694E+00 )

 nodal point  x-disp     y-disp      z-disp      x-vel       y-vel       z-vel      x-accl      y-accl      z-accl      x-coor      y-coor      z-coor
    22626  2.01727E-03 2.46227E+00-2.56328E-01 4.44257E-03 8.58437E-01 2.98414E-01 2.25883E-02 1.51708E-01 2.12933E-01 4.66139E+00-2.57286E+01-4.52380E+01



 n o d a l   p r i n t   o u t   f o r   t i m e  s t e p   16602                              ( at time 8.2996694E+00 )

 nodal point  x-rot      y-rot       z-rot       x-rot vel   y-rot vel   z-rot vel   x-rot acc   y-rot acc   z-rot acc
    22626 -1.60282E-02 3.54425E-04-9.53253E-04-6.39482E-03 8.48464E-05-1.28936E-04-1.43035E-03 2.07640E-04 1.96422E-04



 n o d a l   p r i n t   o u t   f o r   t i m e  s t e p   16802                              ( at time 8.3996594E+00 )

 nodal point  x-disp     y-disp      z-disp      x-vel       y-vel       z-vel      x-accl      y-accl      z-accl      x-coor      y-coor      z-coor
    22626  2.32065E-03 2.54868E+00-2.25336E-01 1.81175E-03 8.69800E-01 3.20851E-01-2.63109E-02 1.13638E-01 2.24394E-01 4.66170E+00-2.56422E+01-4.52071E+01



 n o d a l   p r i n t   o u t   f o r   t i m e  s t e p   16802                              ( at time 8.3996594E+00 )

 nodal point  x-rot      y-rot       z-rot       x-rot vel   y-rot vel   z-rot vel   x-rot acc   y-rot acc   z-rot acc
    22626 -1.66723E-02 3.61556E-04-9.66531E-04-6.51641E-03 4.75581E-05-1.46654E-04-1.21608E-03-3.72921E-04-1.77193E-04



 n o d a l   p r i n t   o u t   f o r   t i m e  s t e p   17002                              ( at time 8.4996494E+00 )

 nodal point  x-disp     y-disp      z-disp      x-vel       y-vel       z-vel      x-accl      y-accl      z-accl      x-coor      y-coor      z-coor
    22626  2.56629E-03 2.63646E+00-1.92167E-01 2.10594E-03 8.86607E-01 3.43298E-01 2.94219E-03 1.68091E-01 2.24488E-01 4.66194E+00-2.55544E+01-4.51739E+01



 n o d a l   p r i n t   o u t   f o r   t i m e  s t e p   17002                              ( at time 8.4996494E+00 )

 nodal point  x-rot      y-rot       z-rot       x-rot vel   y-rot vel   z-rot vel   x-rot acc   y-rot acc   z-rot acc
    22626 -1.73332E-02 3.66058E-04-9.82174E-04-6.65447E-03 4.48520E-05-1.40122E-04-1.38074E-03-2.70638E-05 6.53271E-05



 n o d a l   p r i n t   o u t   f o r   t i m e  s t e p   17202                              ( at time 8.5996394E+00 )

 nodal point  x-disp     y-disp      z-disp      x-vel       y-vel       z-vel      x-accl      y-accl      z-accl      x-coor      y-coor      z-coor
    22626  2.82738E-03 2.72556E+00-1.56948E-01 3.03717E-03 8.96905E-01 3.63118E-01 9.31328E-03 1.02988E-01 1.98222E-01 4.66220E+00-2.54653E+01-4.51387E+01



 n o d a l   p r i n t   o u t   f o r   t i m e  s t e p   17202                              ( at time 8.5996394E+00 )

 nodal point  x-rot      y-rot       z-rot       x-rot vel   y-rot vel   z-rot vel   x-rot acc   y-rot acc   z-rot acc
    22626 -1.80065E-02 3.74053E-04-9.96149E-04-6.75006E-03 9.60912E-05-1.30528E-04-9.55964E-04 5.12444E-04 9.59426E-05



 n o d a l   p r i n t   o u t   f o r   t i m e  s t e p   17402                              ( at time 8.6996293E+00 )

 nodal point  x-disp     y-disp      z-disp      x-vel       y-vel       z-vel      x-accl      y-accl      z-accl      x-coor      y-coor      z-coor
    22626  3.16679E-03 2.81599E+00-1.19409E-01 4.12871E-03 9.10610E-01 3.88684E-01 1.09164E-02 1.37066E-01 2.55677E-01 4.66254E+00-2.53748E+01-4.51011E+01



 n o d a l   p r i n t   o u t   f o r   t i m e  s t e p   17402                              ( at time 8.6996293E+00 )

 nodal point  x-rot      y-rot       z-rot       x-rot vel   y-rot vel   z-rot vel   x-rot acc   y-rot acc   z-rot acc
    22626 -1.86924E-02 3.80138E-04-1.00870E-03-6.93423E-03 4.39018E-05-1.46770E-04-1.84187E-03-5.21942E-04-1.62432E-04



 n o d a l   p r i n t   o u t   f o r   t i m e  s t e p   17602                              ( at time 8.7996193E+00 )

 nodal point  x-disp     y-disp      z-disp      x-vel       y-vel       z-vel      x-accl      y-accl      z-accl      x-coor      y-coor      z-coor
    22626  3.39281E-03 2.90773E+00-7.94635E-02 4.39600E-04 9.25157E-01 4.09793E-01-3.68948E-02 1.45488E-01 2.11111E-01 4.66277E+00-2.52831E+01-4.50612E+01



 n o d a l   p r i n t   o u t   f o r   t i m e  s t e p   17602                              ( at time 8.7996193E+00 )

 nodal point  x-rot      y-rot       z-rot       x-rot vel   y-rot vel   z-rot vel   x-rot acc   y-rot acc   z-rot acc
    22626 -1.93948E-02 3.84952E-04-1.02405E-03-7.10810E-03 5.78554E-05-1.54498E-04-1.73882E-03 1.39550E-04-7.72894E-05



 n o d a l   p r i n t   o u t   f o r   t i m e  s t e p   17802                              ( at time 8.8996093E+00 )

 nodal point  x-disp     y-disp      z-disp      x-vel       y-vel       z-vel      x-accl      y-accl      z-accl      x-coor      y-coor      z-coor
    22626  3.61318E-03 3.00084E+00-3.72927E-02 3.93488E-03 9.37847E-01 4.32644E-01 3.49563E-02 1.26909E-01 2.28538E-01 4.66299E+00-2.51900E+01-4.50190E+01



 n o d a l   p r i n t   o u t   f o r   t i m e  s t e p   17802                              ( at time 8.8996093E+00 )

 nodal point  x-rot      y-rot       z-rot       x-rot vel   y-rot vel   z-rot vel   x-rot acc   y-rot acc   z-rot acc
    22626 -2.01099E-02 3.90739E-04-1.04088E-03-7.23039E-03 7.08477E-05-1.39994E-04-1.22308E-03 1.29936E-04 1.45055E-04



 n o d a l   p r i n t   o u t   f o r   t i m e  s t e p   18002                              ( at time 8.9995993E+00 )

 nodal point  x-disp     y-disp      z-disp      x-vel       y-vel       z-vel      x-accl      y-accl      z-accl      x-coor      y-coor      z-coor
    22626  3.91596E-03 3.09517E+00 7.27657E-03 3.69302E-03 9.48453E-01 4.58713E-01-2.41883E-03 1.06072E-01 2.60717E-01 4.66329E+00-2.50957E+01-4.49744E+01



 n o d a l   p r i n t   o u t   f o r   t i m e  s t e p   18002                              ( at time 8.9995993E+00 )

 nodal point  x-rot      y-rot       z-rot       x-rot vel   y-rot vel   z-rot vel   x-rot acc   y-rot acc   z-rot acc
    22626 -2.08388E-02 3.97033E-04-1.05411E-03-7.33717E-03 4.69296E-05-1.59689E-04-1.06795E-03-2.39205E-04-1.96968E-04



 n o d a l   p r i n t   o u t   f o r   t i m e  s t e p   18202                              ( at time 9.0995893E+00 )

 nodal point  x-disp     y-disp      z-disp      x-vel       y-vel       z-vel      x-accl      y-accl      z-accl      x-coor      y-coor      z-coor
    22626  4.17325E-03 3.19070E+00 5.44208E-02 7.28307E-04 9.61511E-01 4.84277E-01-2.96501E-02 1.30591E-01 2.55667E-01 4.66355E+00-2.50001E+01-4.49273E+01



 n o d a l   p r i n t   o u t   f o r   t i m e  s t e p   18202                              ( at time 9.0995893E+00 )

 nodal point  x-rot      y-rot       z-rot       x-rot vel   y-rot vel   z-rot vel   x-rot acc   y-rot acc   z-rot acc
    22626 -2.15829E-02 3.98661E-04-1.07320E-03-7.52122E-03-3.00050E-06-2.09788E-04-1.84060E-03-4.99352E-04-5.01039E-04



 n o d a l   p r i n t   o u t   f o r   t i m e  s t e p   18402                              ( at time 9.1995793E+00 )

 nodal point  x-disp     y-disp      z-disp      x-vel       y-vel       z-vel      x-accl      y-accl      z-accl      x-coor      y-coor      z-coor
    22626  4.24871E-03 3.28751E+00 1.04198E-01 4.87705E-04 9.74259E-01 5.10194E-01-2.40626E-03 1.27489E-01 2.59195E-01 4.66362E+00-2.49033E+01-4.48775E+01



 n o d a l   p r i n t   o u t   f o r   t i m e  s t e p   18402                              ( at time 9.1995793E+00 )

 nodal point  x-rot      y-rot       z-rot       x-rot vel   y-rot vel   z-rot vel   x-rot acc   y-rot acc   z-rot acc
    22626 -2.23426E-02 4.01175E-04-1.09415E-03-7.66121E-03 3.70513E-05-1.97434E-04-1.40013E-03 4.00559E-04 1.23552E-04



 n o d a l   p r i n t   o u t   f o r   t i m e  s t e p   18602                              ( at time 9.2995693E+00 )

 nodal point  x-disp     y-disp      z-disp      x-vel       y-vel       z-vel      x-accl      y-accl      z-accl      x-coor      y-coor      z-coor
    22626  4.43924E-03 3.38539E+00 1.56372E-01 3.47453E-03 9.84717E-01 5.33454E-01 2.98712E-02 1.04593E-01 2.32620E-01 4.66381E+00-2.48054E+01-4.48253E+01



 n o d a l   p r i n t   o u t   f o r   t i m e  s t e p   18602                              ( at time 9.2995693E+00 )

 nodal point  x-rot      y-rot       z-rot       x-rot vel   y-rot vel   z-rot vel   x-rot acc   y-rot acc   z-rot acc
    22626 -2.31137E-02 4.03849E-04-1.11444E-03-7.76929E-03 9.75977E-06-2.28067E-04-1.08089E-03-2.72943E-04-3.06360E-04



 n o d a l   p r i n t   o u t   f o r   t i m e  s t e p   18802                              ( at time 9.3995593E+00 )

 nodal point  x-disp     y-disp      z-disp      x-vel       y-vel       z-vel      x-accl      y-accl      z-accl      x-coor      y-coor      z-coor
    22626  4.58111E-03 3.48458E+00 2.10997E-01-1.52742E-03 9.98279E-01 5.59926E-01-5.00245E-02 1.35631E-01 2.64749E-01 4.66396E+00-2.47063E+01-4.47707E+01



 n o d a l   p r i n t   o u t   f o r   t i m e  s t e p   18802                              ( at time 9.3995593E+00 )

 nodal point  x-rot      y-rot       z-rot       x-rot vel   y-rot vel   z-rot vel   x-rot acc   y-rot acc   z-rot acc
    22626 -2.38993E-02 4.03127E-04-1.13671E-03-7.92757E-03-2.34960E-05-2.35443E-04-1.58297E-03-3.32591E-04-7.37665E-05



 n o d a l   p r i n t   o u t   f o r   t i m e  s t e p   19002                              ( at time 9.4995493E+00 )

 nodal point  x-disp     y-disp      z-disp      x-vel       y-vel       z-vel      x-accl      y-accl      z-accl      x-coor      y-coor      z-coor
    22626  4.44264E-03 3.58496E+00 2.68312E-01-1.35856E-03 1.01101E+00 5.85081E-01 1.68872E-03 1.27326E-01 2.51578E-01 4.66382E+00-2.46059E+01-4.47134E+01



 n o d a l   p r i n t   o u t   f o r   t i m e  s t e p   19002                              ( at time 9.4995493E+00 )

 nodal point  x-rot      y-rot       z-rot       x-rot vel   y-rot vel   z-rot vel   x-rot acc   y-rot acc   z-rot acc
    22626 -2.46989E-02 4.00384E-04-1.16331E-03-8.04094E-03-9.55154E-06-2.71171E-04-1.13379E-03 1.39459E-04-3.57317E-04



 n o d a l   p r i n t   o u t   f o r   t i m e  s t e p   19202                              ( at time 9.5995393E+00 )

 nodal point  x-disp     y-disp      z-disp      x-vel       y-vel       z-vel      x-accl      y-accl      z-accl      x-coor      y-coor      z-coor
    22626  4.42655E-03 3.68668E+00 3.27928E-01 6.40179E-04 1.02410E+00 6.08330E-01 1.99893E-02 1.30916E-01 2.32506E-01 4.66380E+00-2.45041E+01-4.46538E+01



 n o d a l   p r i n t   o u t   f o r   t i m e  s t e p   19202                              ( at time 9.5995393E+00 )

 nodal point  x-rot      y-rot       z-rot       x-rot vel   y-rot vel   z-rot vel   x-rot acc   y-rot acc   z-rot acc
    22626 -2.55091E-02 4.00393E-04-1.18823E-03-8.14764E-03 1.51248E-05-2.46654E-04-1.06712E-03 2.46786E-04 2.45189E-04



 n o d a l   p r i n t   o u t   f o r   t i m e  s t e p   19402                              ( at time 9.6995293E+00 )

 nodal point  x-disp     y-disp      z-disp      x-vel       y-vel       z-vel      x-accl      y-accl      z-accl      x-coor      y-coor      z-coor
    22626  4.38264E-03 3.78974E+00 3.89896E-01-1.73145E-03 1.03718E+00 6.31126E-01-2.37187E-02 1.30802E-01 2.27988E-01 4.66376E+00-2.44011E+01-4.45918E+01



 n o d a l   p r i n t   o u t   f o r   t i m e  s t e p   19402                              ( at time 9.6995293E+00 )

 nodal point  x-rot      y-rot       z-rot       x-rot vel   y-rot vel   z-rot vel   x-rot acc   y-rot acc   z-rot acc
    22626 -2.63308E-02 3.98781E-04-1.21386E-03-8.26854E-03-4.05607E-05-2.75386E-04-1.20913E-03-5.56912E-04-2.87352E-04



 n o d a l   p r i n t   o u t   f o r   t i m e  s t e p   19602                              ( at time 9.7995193E+00 )

 nodal point  x-disp     y-disp      z-disp      x-vel       y-vel       z-vel      x-accl      y-accl      z-accl      x-coor      y-coor      z-coor
    22626  4.16251E-03 3.89423E+00 4.54140E-01-2.42880E-03 1.05267E+00 6.53452E-01-6.97416E-03 1.54952E-01 2.23277E-01 4.66354E+00-2.42966E+01-4.45276E+01



 n o d a l   p r i n t   o u t   f o r   t i m e  s t e p   19602                              ( at time 9.7995193E+00 )

 nodal point  x-rot      y-rot       z-rot       x-rot vel   y-rot vel   z-rot vel   x-rot acc   y-rot acc   z-rot acc
    22626 -2.71647E-02 3.93710E-04-1.24276E-03-8.40885E-03-3.43246E-05-2.77626E-04-1.40318E-03 6.23669E-05-2.24014E-05



 n o d a l   p r i n t   o u t   f o r   t i m e  s t e p   19802                              ( at time 9.8995093E+00 )

 nodal point  x-disp     y-disp      z-disp      x-vel       y-vel       z-vel      x-accl      y-accl      z-accl      x-coor      y-coor      z-coor
    22626  3.94726E-03 4.00011E+00 5.20738E-01-1.79567E-03 1.06552E+00 6.77050E-01 6.33190E-03 1.28469E-01 2.36009E-01 4.66332E+00-2.41907E+01-4.44610E+01



 n o d a l   p r i n t   o u t   f o r   t i m e  s t e p   19802                              ( at time 9.8995093E+00 )

 nodal point  x-rot      y-rot       z-rot       x-rot vel   y-rot vel   z-rot vel   x-rot acc   y-rot acc   z-rot acc
    22626 -2.80097E-02 3.91691E-04-1.26989E-03-8.48907E-03-1.35055E-05-2.73175E-04-8.02266E-04 2.08212E-04 4.45197E-05



 n o d a l   p r i n t   o u t   f o r   t i m e  s t e p   20003                              ( at time 9.9999992E+00 )

 nodal point  x-disp     y-disp      z-disp      x-vel       y-vel       z-vel      x-accl      y-accl      z-accl      x-coor      y-coor      z-coor
[...]
    22626 -2.22059E-01 6.61752E-04-2.03116E-03-1.89891E-02 2.84019E-06-1.19999E-04 2.07518E-05 2.72333E-04 8.96793E-06



 n o d a l   p r i n t   o u t   f o r   t i m e  s t e p   45205                              ( at time 2.2599738E+01 )

 nodal point  x-disp     y-disp      z-disp      x-vel       y-vel       z-vel      x-accl      y-accl      z-accl      x-coor      y-coor      z-coor
    22626 -3.27832E-02 2.28748E+01 1.91102E+01-1.93929E-02 1.78950E+00 1.00385E+00-2.04459E-03 3.25400E-02-8.36604E-02 4.62659E+00-5.31602E+00-2.58715E+01



 n o d a l   p r i n t   o u t   f o r   t i m e  s t e p   45205                              ( at time 2.2599738E+01 )

 nodal point  x-rot      y-rot       z-rot       x-rot vel   y-rot vel   z-rot vel   x-rot acc   y-rot acc   z-rot acc
    22626 -2.23957E-01 6.62988E-04-2.04308E-03-1.89913E-02 2.61960E-05-1.12700E-04-2.19999E-05 2.33580E-04 7.30041E-05



 n o d a l   p r i n t   o u t   f o r   t i m e  s t e p   45405                              ( at time 2.2699728E+01 )

 nodal point  x-disp     y-disp      z-disp      x-vel       y-vel       z-vel      x-accl      y-accl      z-accl      x-coor      y-coor      z-coor
    22626 -3.47819E-02 2.30539E+01 1.92102E+01-2.03787E-02 1.79162E+00 9.94915E-01-9.85987E-03 2.12109E-02-8.93942E-02 4.62459E+00-5.13692E+00-2.57716E+01



 n o d a l   p r i n t   o u t   f o r   t i m e  s t e p   45405                              ( at time 2.2699728E+01 )

 nodal point  x-rot      y-rot       z-rot       x-rot vel   y-rot vel   z-rot vel   x-rot acc   y-rot acc   z-rot acc
    22626 -2.25855E-01 6.65598E-04-2.05396E-03-1.89765E-02 2.21257E-05-1.09159E-04 1.48302E-04-4.07078E-05 3.54103E-05



 n o d a l   p r i n t   o u t   f o r   t i m e  s t e p   45605                              ( at time 2.2799718E+01 )

 nodal point  x-disp     y-disp      z-disp      x-vel       y-vel       z-vel      x-accl      y-accl      z-accl      x-coor      y-coor      z-coor
    22626 -3.68720E-02 2.32331E+01 1.93093E+01-2.13503E-02 1.79264E+00 9.87722E-01-9.71671E-03 1.01516E-02-7.19416E-02 4.62250E+00-4.95775E+00-2.56725E+01



 n o d a l   p r i n t   o u t   f o r   t i m e  s t e p   45605                              ( at time 2.2799718E+01 )

 nodal point  x-rot      y-rot       z-rot       x-rot vel   y-rot vel   z-rot vel   x-rot acc   y-rot acc   z-rot acc
    22626 -2.27751E-01 6.68549E-04-2.06526E-03-1.89497E-02 3.89660E-05-1.19131E-04 2.67277E-04 1.68418E-04-9.97290E-05



 n o d a l   p r i n t   o u t   f o r   t i m e  s t e p   45805                              ( at time 2.2899708E+01 )

 nodal point  x-disp     y-disp      z-disp      x-vel       y-vel       z-vel      x-accl      y-accl      z-accl      x-coor      y-coor      z-coor
    22626 -3.89843E-02 2.34125E+01 1.94077E+01-2.05096E-02 1.79579E+00 9.81312E-01 8.40826E-03 3.15296E-02-6.41018E-02 4.62039E+00-4.77836E+00-2.55740E+01



 n o d a l   p r i n t   o u t   f o r   t i m e  s t e p   45805                              ( at time 2.2899708E+01 )

 nodal point  x-rot      y-rot       z-rot       x-rot vel   y-rot vel   z-rot vel   x-rot acc   y-rot acc   z-rot acc
    22626 -2.29645E-01 6.73476E-04-2.07645E-03-1.89386E-02 5.72984E-05-1.04994E-04 1.11529E-04 1.83345E-04 1.41382E-04



 n o d a l   p r i n t   o u t   f o r   t i m e  s t e p   46005                              ( at time 2.2999698E+01 )

 nodal point  x-disp     y-disp      z-disp      x-vel       y-vel       z-vel      x-accl      y-accl      z-accl      x-coor      y-coor      z-coor
    22626 -4.10317E-02 2.35920E+01 1.95055E+01-2.12671E-02 1.79636E+00 9.74453E-01-7.57549E-03 5.74403E-03-6.85999E-02 4.61834E+00-4.59879E+00-2.54763E+01



 n o d a l   p r i n t   o u t   f o r   t i m e  s t e p   46005                              ( at time 2.2999698E+01 )

 nodal point  x-rot      y-rot       z-rot       x-rot vel   y-rot vel   z-rot vel   x-rot acc   y-rot acc   z-rot acc
    22626 -2.31538E-01 6.78787E-04-2.08639E-03-1.89226E-02 5.03979E-05-9.89267E-05 1.59848E-04-6.90112E-05 6.06816E-05



 n o d a l   p r i n t   o u t   f o r   t i m e  s t e p   46205                              ( at time 2.3099688E+01 )

 nodal point  x-disp     y-disp      z-disp      x-vel       y-vel       z-vel      x-accl      y-accl      z-accl      x-coor      y-coor      z-coor
    22626 -4.31692E-02 2.37717E+01 1.96026E+01-2.19374E-02 1.79715E+00 9.69350E-01-6.70381E-03 7.83172E-03-5.10314E-02 4.61621E+00-4.41913E+00-2.53791E+01



 n o d a l   p r i n t   o u t   f o r   t i m e  s t e p   46205                              ( at time 2.3099688E+01 )

 nodal point  x-rot      y-rot       z-rot       x-rot vel   y-rot vel   z-rot vel   x-rot acc   y-rot acc   z-rot acc
    22626 -2.33428E-01 6.84133E-04-2.09713E-03-1.88906E-02 5.97002E-05-1.11540E-04 3.19833E-04 9.30333E-05-1.26143E-04



 n o d a l   p r i n t   o u t   f o r   t i m e  s t e p   46405                              ( at time 2.3199678E+01 )

 nodal point  x-disp     y-disp      z-disp      x-vel       y-vel       z-vel      x-accl      y-accl      z-accl      x-coor      y-coor      z-coor
    22626 -4.54087E-02 2.39515E+01 1.96994E+01-2.18309E-02 1.79821E+00 9.65644E-01 1.06445E-03 1.06607E-02-3.70697E-02 4.61397E+00-4.23934E+00-2.52823E+01



 n o d a l   p r i n t   o u t   f o r   t i m e  s t e p   46405                              ( at time 2.3199678E+01 )

 nodal point  x-rot      y-rot       z-rot       x-rot vel   y-rot vel   z-rot vel   x-rot acc   y-rot acc   z-rot acc
    22626 -2.35316E-01 6.90994E-04-2.10760E-03-1.88761E-02 7.07014E-05-1.02451E-04 1.45076E-04 1.10022E-04 9.08901E-05



 n o d a l   p r i n t   o u t   f o r   t i m e  s t e p   46605                              ( at time 2.3299668E+01 )

 nodal point  x-disp     y-disp      z-disp      x-vel       y-vel       z-vel      x-accl      y-accl      z-accl      x-coor      y-coor      z-coor
    22626 -4.75773E-02 2.41314E+01 1.97957E+01-2.19717E-02 1.79934E+00 9.61611E-01-1.40789E-03 1.13094E-02-4.03336E-02 4.61180E+00-4.05947E+00-2.51860E+01



 n o d a l   p r i n t   o u t   f o r   t i m e  s t e p   46605                              ( at time 2.3299668E+01 )

 nodal point  x-rot      y-rot       z-rot       x-rot vel   y-rot vel   z-rot vel   x-rot acc   y-rot acc   z-rot acc
    22626 -2.37202E-01 6.98342E-04-2.11753E-03-1.88355E-02 7.77926E-05-9.46745E-05 4.05915E-04 7.09190E-05 7.77771E-05



 n o d a l   p r i n t   o u t   f o r   t i m e  s t e p   46805                              ( at time 2.3399658E+01 )

 nodal point  x-disp     y-disp      z-disp      x-vel       y-vel       z-vel      x-accl      y-accl      z-accl      x-coor      y-coor      z-coor
    22626 -4.97773E-02 2.43113E+01 1.98917E+01-2.23419E-02 1.79956E+00 9.58670E-01-3.70246E-03 2.18054E-03-2.94158E-02 4.60960E+00-3.87956E+00-2.50900E+01



 n o d a l   p r i n t   o u t   f o r   t i m e  s t e p   46805                              ( at time 2.3399658E+01 )

 nodal point  x-rot      y-rot       z-rot       x-rot vel   y-rot vel   z-rot vel   x-rot acc   y-rot acc   z-rot acc
    22626 -2.39084E-01 7.06662E-04-2.12762E-03-1.88115E-02 8.15150E-05-1.01058E-04 2.40005E-04 3.72280E-05-6.38364E-05



 n o d a l   p r i n t   o u t   f o r   t i m e  s t e p   47005                              ( at time 2.3499648E+01 )

 nodal point  x-disp     y-disp      z-disp      x-vel       y-vel       z-vel      x-accl      y-accl      z-accl      x-coor      y-coor      z-coor
    22626 -5.20570E-02 2.44912E+01 1.99874E+01-2.26648E-02 1.79985E+00 9.56853E-01-3.22867E-03 2.87798E-03-1.81680E-02 4.60732E+00-3.69963E+00-2.49943E+01



 n o d a l   p r i n t   o u t   f o r   t i m e  s t e p   47005                              ( at time 2.3499648E+01 )

 nodal point  x-rot      y-rot       z-rot       x-rot vel   y-rot vel   z-rot vel   x-rot acc   y-rot acc   z-rot acc
    22626 -2.40964E-01 7.13889E-04-2.13812E-03-1.87840E-02 7.75351E-05-1.09510E-04 2.75846E-04-3.98028E-05-8.45294E-05



 n o d a l   p r i n t   o u t   f o r   t i m e  s t e p   47205                              ( at time 2.3599638E+01 )

 nodal point  x-disp     y-disp      z-disp      x-vel       y-vel       z-vel      x-accl      y-accl      z-accl      x-coor      y-coor      z-coor
    22626 -5.43289E-02 2.46712E+01 2.00830E+01-2.23137E-02 1.79969E+00 9.54741E-01 3.51147E-03-1.64289E-03-2.11220E-02 4.60505E+00-3.51966E+00-2.48987E+01



 n o d a l   p r i n t   o u t   f o r   t i m e  s t e p   47205                              ( at time 2.3599638E+01 )

 nodal point  x-rot      y-rot       z-rot       x-rot vel   y-rot vel   z-rot vel   x-rot acc   y-rot acc   z-rot acc
    22626 -2.42840E-01 7.22479E-04-2.14850E-03-1.87482E-02 9.10780E-05-1.02044E-04 3.57481E-04 1.35444E-04 7.46696E-05



 n o d a l   p r i n t   o u t   f o r   t i m e  s t e p   47405                              ( at time 2.3699628E+01 )

 nodal point  x-disp     y-disp      z-disp      x-vel       y-vel       z-vel      x-accl      y-accl      z-accl      x-coor      y-coor      z-coor
    22626 -5.65488E-02 2.48511E+01 2.01784E+01-2.26893E-02 1.79932E+00 9.53761E-01-3.75641E-03-3.69344E-03-9.80586E-03 4.60283E+00-3.33973E+00-2.48033E+01



 n o d a l   p r i n t   o u t   f o r   t i m e  s t e p   47405                              ( at time 2.3699628E+01 )

 nodal point  x-rot      y-rot       z-rot       x-rot vel   y-rot vel   z-rot vel   x-rot acc   y-rot acc   z-rot acc
    22626 -2.44713E-01 7.31712E-04-2.15877E-03-1.87178E-02 8.73153E-05-9.90340E-05 3.03769E-04-3.76312E-05 3.00991E-05



 n o d a l   p r i n t   o u t   f o r   t i m e  s t e p   47605                              ( at time 2.3799618E+01 )

 nodal point  x-disp     y-disp      z-disp      x-vel       y-vel       z-vel      x-accl      y-accl      z-accl      x-coor      y-coor      z-coor
    22626 -5.88527E-02 2.50310E+01 2.02738E+01-2.34702E-02 1.79907E+00 9.53970E-01-7.80985E-03-2.50248E-03 2.10010E-03 4.60052E+00-3.15982E+00-2.47079E+01



 n o d a l   p r i n t   o u t   f o r   t i m e  s t e p   47605                              ( at time 2.3799618E+01 )

 nodal point  x-rot      y-rot       z-rot       x-rot vel   y-rot vel   z-rot vel   x-rot acc   y-rot acc   z-rot acc
    22626 -2.46583E-01 7.40062E-04-2.16910E-03-1.86742E-02 8.23170E-05-1.07876E-04 4.36429E-04-4.99885E-05-8.84318E-05



 n o d a l   p r i n t   o u t   f o r   t i m e  s t e p   47805                              ( at time 2.3899608E+01 )

 nodal point  x-disp     y-disp      z-disp      x-vel       y-vel       z-vel      x-accl      y-accl      z-accl      x-coor      y-coor      z-coor
    22626 -6.12090E-02 2.52108E+01 2.03692E+01-2.34480E-02 1.79786E+00 9.54015E-01 2.22066E-04-1.20758E-02 4.44095E-04 4.59817E+00-2.98001E+00-2.46125E+01



 n o d a l   p r i n t   o u t   f o r   t i m e  s t e p   47805                              ( at time 2.3899608E+01 )

 nodal point  x-rot      y-rot       z-rot       x-rot vel   y-rot vel   z-rot vel   x-rot acc   y-rot acc   z-rot acc
    22626 -2.48448E-01 7.48693E-04-2.18027E-03-1.86364E-02 9.67941E-05-1.09042E-04 3.78263E-04 1.44785E-04-1.16594E-05



 n o d a l   p r i n t   o u t   f o r   t i m e  s t e p   48005                              ( at time 2.3999598E+01 )

 nodal point  x-disp     y-disp      z-disp      x-vel       y-vel       z-vel      x-accl      y-accl      z-accl      x-coor      y-coor      z-coor
    22626 -6.34880E-02 2.53905E+01 2.04646E+01-2.26447E-02 1.79634E+00 9.54470E-01 8.03308E-03-1.51401E-02 4.55549E-03 4.59589E+00-2.80034E+00-2.45171E+01



 n o d a l   p r i n t   o u t   f o r   t i m e  s t e p   48005                              ( at time 2.3999598E+01 )

 nodal point  x-rot      y-rot       z-rot       x-rot vel   y-rot vel   z-rot vel   x-rot acc   y-rot acc   z-rot acc
    22626 -2.50310E-01 7.58943E-04-2.19084E-03-1.85986E-02 1.02860E-04-1.02098E-04 3.77991E-04 6.06649E-05 6.94454E-05



 n o d a l   p r i n t   o u t   f o r   t i m e  s t e p   48205                              ( at time 2.4099588E+01 )

 nodal point  x-disp     y-disp      z-disp      x-vel       y-vel       z-vel      x-accl      y-accl      z-accl      x-coor      y-coor      z-coor
    22626 -6.57921E-02 2.55701E+01 2.05601E+01-2.34833E-02 1.79523E+00 9.56513E-01-8.38600E-03-1.11757E-02 2.04296E-02 4.59358E+00-2.62075E+00-2.44216E+01



 n o d a l   p r i n t   o u t   f o r   t i m e  s t e p   48205                              ( at time 2.4099588E+01 )

 nodal point  x-rot      y-rot       z-rot       x-rot vel   y-rot vel   z-rot vel   x-rot acc   y-rot acc   z-rot acc
    22626 -2.52168E-01 7.68186E-04-2.20140E-03-1.85587E-02 7.67929E-05-1.16250E-04 3.98400E-04-2.60694E-04-1.41529E-04



 n o d a l   p r i n t   o u t   f o r   t i m e  s t e p   48405                              ( at time 2.4199578E+01 )

 nodal point  x-disp     y-disp      z-disp      x-vel       y-vel       z-vel      x-accl      y-accl      z-accl      x-coor      y-coor      z-coor
    22626 -6.81539E-02 2.57495E+01 2.06559E+01-2.33331E-02 1.79302E+00 9.58051E-01 1.50157E-03-2.21170E-02 1.53803E-02 4.59122E+00-2.44133E+00-2.43258E+01



 n o d a l   p r i n t   o u t   f o r   t i m e  s t e p   48405                              ( at time 2.4199578E+01 )

 nodal point  x-rot      y-rot       z-rot       x-rot vel   y-rot vel   z-rot vel   x-rot acc   y-rot acc   z-rot acc
    22626 -2.54022E-01 7.75845E-04-2.21295E-03-1.85204E-02 8.88647E-05-1.14740E-04 3.83188E-04 1.20732E-04 1.51044E-05



 n o d a l   p r i n t   o u t   f o r   t i m e  s t e p   48605                              ( at time 2.4299568E+01 )

 nodal point  x-disp     y-disp      z-disp      x-vel       y-vel       z-vel      x-accl      y-accl      z-accl      x-coor      y-coor      z-coor
    22626 -7.04583E-02 2.59287E+01 2.07518E+01-2.28870E-02 1.79161E+00 9.61272E-01 4.46163E-03-1.40072E-02 3.22157E-02 4.58892E+00-2.26210E+00-2.42299E+01



 n o d a l   p r i n t   o u t   f o r   t i m e  s t e p   48605                              ( at time 2.4299568E+01 )

 nodal point  x-rot      y-rot       z-rot       x-rot vel   y-rot vel   z-rot vel   x-rot acc   y-rot acc   z-rot acc
    22626 -2.55871E-01 7.85682E-04-2.22449E-03-1.84709E-02 1.00644E-04-1.11245E-04 4.95788E-04 1.17804E-04 3.49454E-05



 n o d a l   p r i n t   o u t   f o r   t i m e  s t e p   48805                              ( at time 2.4399558E+01 )

 nodal point  x-disp     y-disp      z-disp      x-vel       y-vel       z-vel      x-accl      y-accl      z-accl      x-coor      y-coor      z-coor
    22626 -7.27483E-02 2.61078E+01 2.08481E+01-2.31935E-02 1.78992E+00 9.65110E-01-3.06530E-03-1.69877E-02 3.83847E-02 4.58663E+00-2.08303E+00-2.41336E+01



 n o d a l   p r i n t   o u t   f o r   t i m e  s t e p   48805                              ( at time 2.4399558E+01 )

 nodal point  x-rot      y-rot       z-rot       x-rot vel   y-rot vel   z-rot vel   x-rot acc   y-rot acc   z-rot acc
    22626 -2.57717E-01 7.94750E-04-2.23569E-03-1.84317E-02 8.07431E-05-1.16001E-04 3.91098E-04-1.99028E-04-4.75563E-05



 n o d a l   p r i n t   o u t   f o r   t i m e  s t e p   49006                              ( at time 2.4500048E+01 )

 nodal point  x-disp     y-disp      z-disp      x-vel       y-vel       z-vel      x-accl      y-accl      z-accl      x-coor      y-coor      z-coor
    22626 -7.51166E-02 2.62875E+01 2.09452E+01-2.36906E-02 1.78722E+00 9.67864E-01-4.94650E-03-2.68281E-02 2.74064E-02 4.58426E+00-1.90332E+00-2.40365E+01



 n o d a l   p r i n t   o u t   f o r   t i m e  s t e p   49006                              ( at time 2.4500048E+01 )

 nodal point  x-rot      y-rot       z-rot       x-rot vel   y-rot vel   z-rot vel   x-rot acc   y-rot acc   z-rot acc
    22626 -2.59567E-01 8.03273E-04-2.24741E-03-1.83798E-02 8.47462E-05-1.19854E-04 5.16854E-04 3.98363E-05-3.83436E-05



 n o d a l   p r i n t   o u t   f o r   t i m e  s t e p   49206                              ( at time 2.4600038E+01 )

 nodal point  x-disp     y-disp      z-disp      x-vel       y-vel       z-vel      x-accl      y-accl      z-accl      x-coor      y-coor      z-coor
    22626 -7.74604E-02 2.64661E+01 2.10422E+01-2.31116E-02 1.78521E+00 9.72851E-01 5.78991E-03-2.00815E-02 4.98650E-02 4.58191E+00-1.72473E+00-2.39395E+01



 n o d a l   p r i n t   o u t   f o r   t i m e  s t e p   49206                              ( at time 2.4600038E+01 )

 nodal point  x-rot      y-rot       z-rot       x-rot vel   y-rot vel   z-rot vel   x-rot acc   y-rot acc   z-rot acc
    22626 -2.61403E-01 8.12100E-04-2.25947E-03-1.83530E-02 9.77675E-05-1.16120E-04 2.67668E-04 1.30225E-04 3.73396E-05



 n o d a l   p r i n t   o u t   f o r   t i m e  s t e p   49406                              ( at time 2.4700028E+01 )

 nodal point  x-disp     y-disp      z-disp      x-vel       y-vel       z-vel      x-accl      y-accl      z-accl      x-coor      y-coor      z-coor
    22626 -7.97491E-02 2.66444E+01 2.11397E+01-2.29314E-02 1.78207E+00 9.76817E-01 1.80261E-03-3.14092E-02 3.96647E-02 4.57963E+00-1.54640E+00-2.38420E+01



 n o d a l   p r i n t   o u t   f o r   t i m e  s t e p   49406                              ( at time 2.4700028E+01 )

 nodal point  x-rot      y-rot       z-rot       x-rot vel   y-rot vel   z-rot vel   x-rot acc   y-rot acc   z-rot acc
    22626 -2.63235E-01 8.22164E-04-2.27125E-03-1.83041E-02 1.05189E-04-1.14550E-04 4.89092E-04 7.42201E-05 1.57038E-05



 n o d a l   p r i n t   o u t   f o r   t i m e  s t e p   49606                              ( at time 2.4800018E+01 )

 nodal point  x-disp     y-disp      z-disp      x-vel       y-vel       z-vel      x-accl      y-accl      z-accl      x-coor      y-coor      z-coor
    22626 -8.20938E-02 2.68225E+01 2.12376E+01-2.38407E-02 1.77878E+00 9.81703E-01-9.09406E-03-3.28964E-02 4.88725E-02 4.57728E+00-1.36837E+00-2.37441E+01



 n o d a l   p r i n t   o u t   f o r   t i m e  s t e p   49606                              ( at time 2.4800018E+01 )

 nodal point  x-rot      y-rot       z-rot       x-rot vel   y-rot vel   z-rot vel   x-rot acc   y-rot acc   z-rot acc
    22626 -2.65062E-01 8.32093E-04-2.28310E-03-1.82466E-02 9.21286E-05-1.24766E-04 5.75387E-04-1.30613E-04-1.02168E-04



 n o d a l   p r i n t   o u t   f o r   t i m e  s t e p   49806                              ( at time 2.4900008E+01 )

 nodal point  x-disp     y-disp      z-disp      x-vel       y-vel       z-vel      x-accl      y-accl      z-accl      x-coor      y-coor      z-coor
    22626 -8.45117E-02 2.70002E+01 2.13360E+01-2.39224E-02 1.77607E+00 9.86754E-01-8.16562E-04-2.71279E-02 5.05140E-02 4.57486E+00-1.19063E+00-2.36457E+01



 n o d a l   p r i n t   o u t   f o r   t i m e  s t e p   49806                              ( at time 2.4900008E+01 )

 nodal point  x-rot      y-rot       z-rot       x-rot vel   y-rot vel   z-rot vel   x-rot acc   y-rot acc   z-rot acc
    22626 -2.66884E-01 8.42085E-04-2.29564E-03-1.82025E-02 1.04778E-04-1.25787E-04 4.41198E-04 1.26513E-04-1.02172E-05



 n o d a l   p r i n t   o u t   f o r   t i m e  s t e p   50006                              ( at time 2.4999998E+01 )

 nodal point  x-disp     y-disp      z-disp      x-vel       y-vel       z-vel      x-accl      y-accl      z-accl      x-coor      y-coor      z-coor
    22626 -8.68680E-02 2.71777E+01 2.14350E+01-2.36788E-02 1.77310E+00 9.91821E-01 2.43625E-03-2.96691E-02 5.06751E-02 4.57251E+00-1.01318E+00-2.35468E+01



 n o d a l   p r i n t   o u t   f o r   t i m e  s t e p   50006                              ( at time 2.4999998E+01 )

 nodal point  x-rot      y-rot       z-rot       x-rot vel   y-rot vel   z-rot vel   x-rot acc   y-rot acc   z-rot acc
    22626 -2.68702E-01 8.53699E-04-2.30782E-03-1.81491E-02 1.20263E-04-1.16634E-04 5.34386E-04 1.54857E-04 9.15399E-05
