 LSTC 50th% Full_FE H-III Dummy (Beta Version, February 17, 2019)        
                    ls-dyna smp s R16 R16.0_619_d222963 date 03/18/2025

{BEGIN LEGEND}
 Entity #        Title
        1     Upper_Neck_Force_INJURY                                              
{END LEGEND}



 line#1  section#     time        x-force     y-force     z-force    magnitude
 line#2  resultant  moments       x-moment    y-moment    z-moment   magnitude
 line#3  centroids                x           y           z            area  
           1    0.00000E+00     0.0000E+00  0.0000E+00  0.0000E+00  0.0000E+00
ac ID =   33377                 0.0000E+00  0.0000E+00  0.0000E+00  0.0000E+00
                               -3.7437E-01  1.0501E+01 -4.6940E+01  0.0000E+00

           1    1.00490E-01     1.3614E-04 -4.9878E-03  2.5982E-01  2.5987E-01
ac ID =   33377                 4.2551E-01 -1.2521E+00 -2.7102E-02  1.3227E+00
                               -3.7387E-01  1.0590E+01 -4.6886E+01  2.5147E+03

           1    2.00480E-01    -4.4431E-02  6.3808E-04  4.4127E-01  4.4350E-01
ac ID =   33377                 3.1113E-01 -1.5943E+00  2.1488E-02  1.6245E+00
                               -3.7386E-01  1.0591E+01 -4.6888E+01  2.5147E+03

           1    3.00470E-01     1.4658E-02 -3.3109E-03  2.1753E-01  2.1804E-01
ac ID =   33377                 2.0505E-02 -3.4190E-01  6.0307E-02  3.4778E-01
                               -3.7382E-01  1.0591E+01 -4.6889E+01  2.5147E+03

           1    4.00460E-01     2.8157E-03  1.0830E-02  8.8638E-02  8.9342E-02
ac ID =   33377                -4.9618E-01 -9.4902E-01  1.3971E-03  1.0709E+00
                               -3.7383E-01  1.0592E+01 -4.6890E+01  2.5147E+03

           1    5.00450E-01    -4.0140E-02  4.3988E-03  1.6211E-01  1.6707E-01
ac ID =   33377                -3.9731E-01 -1.5057E+00 -1.1485E-01  1.5615E+00
                               -3.7385E-01  1.0594E+01 -4.6893E+01  2.5147E+03

           1    6.00440E-01    -1.1462E-02  3.9595E-03  3.4373E-01  3.4394E-01
ac ID =   33377                 9.7435E-02 -1.3377E+00 -3.6915E-02  1.3418E+00
                               -3.7385E-01  1.0595E+01 -4.6897E+01  2.5147E+03

           1    7.00430E-01     2.8773E-03 -5.4301E-03  2.9506E-01  2.9513E-01
ac ID =   33377                 1.2152E-01 -5.1126E-01  9.0467E-02  5.3323E-01
                               -3.7389E-01  1.0597E+01 -4.6901E+01  2.5147E+03

           1    8.00420E-01    -3.0376E-02 -1.1220E-03  1.0209E-01  1.0652E-01
ac ID =   33377                 7.8944E-02 -1.0386E+00  4.4873E-02  1.0425E+00
                               -3.7394E-01  1.0599E+01 -4.6905E+01  2.5147E+03

           1    9.00410E-01    -3.8584E-02  7.4442E-04  6.2633E-02  7.3567E-02
ac ID =   33377                 8.5281E-02 -1.0658E+00 -8.9723E-03  1.0693E+00
                               -3.7397E-01  1.0601E+01 -4.6909E+01  2.5147E+03

           1    1.00040E+00     1.4526E-02 -3.0979E-03  2.2250E-01  2.2299E-01
ac ID =   33377                 3.3256E-01 -3.0616E-01 -6.7826E-02  4.5709E-01
                               -3.7397E-01  1.0604E+01 -4.6915E+01  2.5147E+03

           1    1.10039E+00     2.0842E-03 -2.1617E-03  2.7433E-01  2.7434E-01
ac ID =   33377                 3.2004E-01 -8.7522E-01 -5.7248E-02  9.3366E-01
                               -3.7396E-01  1.0607E+01 -4.6921E+01  2.5147E+03

           1    1.20038E+00    -3.1553E-02  1.0773E-03  1.3156E-01  1.3530E-01
ac ID =   33377                -1.9175E-01 -1.1515E+00 -6.5709E-03  1.1674E+00
                               -3.7395E-01  1.0609E+01 -4.6927E+01  2.5147E+03

           1    1.30037E+00    -9.9034E-03  6.6650E-03  7.7259E-02  7.8176E-02
ac ID =   33377                -3.4827E-01 -8.9584E-01 -1.9158E-02  9.6135E-01
                               -3.7394E-01  1.0612E+01 -4.6933E+01  2.5147E+03

           1    1.40036E+00     9.6804E-03  6.3064E-03  1.7944E-01  1.7981E-01
ac ID =   33377                -3.7763E-01 -8.2037E-01  4.8079E-02  9.0439E-01
                               -3.7389E-01  1.0616E+01 -4.6940E+01  2.5147E+03

           1    1.50035E+00    -2.5662E-02  3.7893E-03  3.3239E-01  3.3340E-01
ac ID =   33377                -9.1238E-02 -1.5747E+00 -9.4036E-02  1.5801E+00
                               -3.7383E-01  1.0620E+01 -4.6948E+01  2.5147E+03

           1    1.60034E+00    -1.7279E-02  9.2578E-04  2.2829E-01  2.2894E-01
ac ID =   33377                -1.5445E-01 -1.4000E+00 -1.0696E-01  1.4126E+00
                               -3.7378E-01  1.0623E+01 -4.6956E+01  2.5147E+03

           1    1.70033E+00    -1.0445E-03  3.7128E-03  6.4750E-02  6.4865E-02
ac ID =   33377                -2.6049E-01 -6.0242E-01  9.3346E-02  6.6293E-01
                               -3.7369E-01  1.0627E+01 -4.6963E+01  2.5147E+03

           1    1.80032E+00    -1.5936E-02 -1.5415E-04  7.8175E-02  7.9783E-02
ac ID =   33377                 2.8231E-02 -1.0845E+00  6.5440E-02  1.0868E+00
                               -3.7356E-01  1.0631E+01 -4.6972E+01  2.5147E+03

           1    1.90031E+00    -6.0958E-03  3.4559E-04  1.8569E-01  1.8579E-01
ac ID =   33377                 1.9637E-01 -7.1304E-01 -2.0569E-01  7.6766E-01
                               -3.7340E-01  1.0636E+01 -4.6981E+01  2.5147E+03

           1    2.00030E+00     1.0738E-04  2.9139E-03  1.5777E-01  1.5780E-01
ac ID =   33377                -1.4575E-02 -4.7013E-01 -2.6385E-01  5.3930E-01
                               -3.7321E-01  1.0641E+01 -4.6991E+01  2.5147E+03

           1    2.10029E+00    -2.0217E-02  2.5867E-03  5.7160E-03  2.1168E-02
ac ID =   33377                -2.1520E-01 -5.6124E-01 -1.2085E-02  6.0121E-01
                               -3.7300E-01  1.0646E+01 -4.7000E+01  2.5147E+03

           1    2.20028E+00    -8.1121E-03 -1.1509E-03 -3.3400E-03  8.8480E-03
ac ID =   33377                -1.9154E-01 -6.7855E-01  1.3466E-01  7.1780E-01
                               -3.7274E-01  1.0651E+01 -4.7010E+01  2.5147E+03

           1    2.30027E+00     7.9271E-03  1.6718E-03  1.2967E-01  1.2992E-01
ac ID =   33377                -1.6771E-01 -8.1263E-01 -9.8738E-02  8.3561E-01
                               -3.7253E-01  1.0657E+01 -4.7020E+01  2.5147E+03

           1    2.40026E+00    -1.0707E-02  3.6506E-03  1.6352E-01  1.6391E-01
ac ID =   33377                -1.6872E-01 -1.0431E+00 -8.2382E-02  1.0598E+00
                               -3.7235E-01  1.0662E+01 -4.7031E+01  2.5147E+03

           1    2.50025E+00     5.9866E-03  3.5061E-03  2.3472E-03  7.3240E-03
ac ID =   33377                -3.0244E-01 -3.3618E-01 -1.1204E-03  4.5220E-01
                               -3.7220E-01  1.0668E+01 -4.7042E+01  2.5147E+03

           1    2.60024E+00     1.7619E-02 -1.0026E-02 -8.9124E-02  9.1401E-02
ac ID =   33377                -3.7492E-02  3.8371E-01  9.4794E-02  3.9702E-01
                               -3.7206E-01  1.0675E+01 -4.7052E+01  2.5147E+03

           1    2.70023E+00     1.1889E-02  2.5666E-03 -3.3867E-02  3.5985E-02
ac ID =   33377                -1.4242E-01  3.7384E-01  2.3425E-01  4.6358E-01
                               -3.7193E-01  1.0682E+01 -4.7064E+01  2.5147E+03

           1    2.80022E+00     2.7366E-02  1.2905E-02  2.5992E-02  3.9887E-02
ac ID =   33377                 4.3115E-02  5.1725E-01  1.7857E-01  5.4890E-01
                               -3.7175E-01  1.0689E+01 -4.7075E+01  2.5147E+03

           1    2.90021E+00     4.0069E-02 -3.9016E-03 -3.9386E-02  5.6320E-02
ac ID =   33377                 2.1818E-01  1.0903E+00 -4.8053E-01  1.2113E+00
                               -3.7154E-01  1.0697E+01 -4.7087E+01  2.5147E+03

           1    3.00020E+00     2.4594E-02  1.7675E-02 -1.2254E-01  1.2622E-01
ac ID =   33377                -4.7290E-01  1.0224E+00 -3.0161E-01  1.1661E+00
                               -3.7134E-01  1.0705E+01 -4.7098E+01  2.5147E+03

           1    3.10019E+00     2.8079E-02  1.6815E-02 -7.4039E-02  8.0950E-02
ac ID =   33377                -5.6668E-01  6.6903E-01  2.4981E-01  9.1167E-01
                               -3.7090E-01  1.0714E+01 -4.7110E+01  2.5147E+03

           1    3.20018E+00     4.9121E-02 -3.0402E-03 -1.0587E-02  5.0340E-02
ac ID =   33377                 1.9971E-03  1.0875E+00 -1.6033E-01  1.0993E+00
                               -3.7038E-01  1.0724E+01 -4.7123E+01  2.5147E+03

           1    3.30017E+00     4.3077E-02  1.6777E-02 -6.2262E-02  7.7548E-02
ac ID =   33377                -6.7048E-01  9.9122E-01 -7.2772E-02  1.1989E+00
                               -3.6980E-01  1.0734E+01 -4.7136E+01  2.5147E+03

           1    3.40016E+00     2.6707E-02 -1.8336E-02 -1.7140E-01  1.7443E-01
ac ID =   33377                -1.5796E-01  1.0792E+00  1.9533E-02  1.0908E+00
                               -3.6922E-01  1.0745E+01 -4.7148E+01  2.5147E+03

           1    3.50015E+00     6.3938E-02  1.0457E-02 -2.3638E-01  2.4510E-01
ac ID =   33377                -2.5227E-01  2.0916E+00  2.0835E-01  2.1171E+00
                               -3.6884E-01  1.0757E+01 -4.7162E+01  2.5147E+03

           1    3.60014E+00     5.2096E-02  1.1016E-02 -1.6029E-01  1.6890E-01
ac ID =   33377                -2.6496E-01  2.2873E+00  6.2568E-01  2.3861E+00
                               -3.6832E-01  1.0770E+01 -4.7176E+01  2.5147E+03

           1    3.70013E+00     5.3179E-02 -1.8836E-02 -1.9706E-01  2.0497E-01
ac ID =   33377                 5.3601E-01  2.5814E+00 -3.9737E-01  2.6662E+00
                               -3.6778E-01  1.0783E+01 -4.7190E+01  2.5147E+03

           1    3.80012E+00     7.5439E-02  2.3376E-03 -2.6366E-01  2.7425E-01
ac ID =   33377                -7.7349E-03  2.9505E+00 -4.0295E-02  2.9508E+00
                               -3.6733E-01  1.0797E+01 -4.7204E+01  2.5147E+03

           1    3.90011E+00     6.2643E-02  6.2104E-03 -3.3351E-01  3.3940E-01
ac ID =   33377                -2.3923E-01  2.7484E+00  1.3811E-01  2.7622E+00
                               -3.6682E-01  1.0812E+01 -4.7218E+01  2.5147E+03

           1    4.00010E+00     6.8678E-02  3.1590E-03 -3.2133E-01  3.2860E-01
ac ID =   33377                -2.6188E-01  2.8706E+00 -3.8192E-01  2.9077E+00
                               -3.6635E-01  1.0829E+01 -4.7233E+01  2.5147E+03

           1    4.10009E+00     7.9799E-02  2.2728E-02 -3.0741E-01  3.1841E-01
ac ID =   33377                -8.1278E-01  3.0592E+00  1.6339E-01  3.1696E+00
                               -3.6586E-01  1.0846E+01 -4.7248E+01  2.5147E+03

           1    4.20008E+00     6.4302E-02 -1.5112E-02 -3.5722E-01  3.6328E-01
ac ID =   33377                -1.0439E-01  2.4853E+00  3.0754E-01  2.5064E+00
                               -3.6536E-01  1.0865E+01 -4.7264E+01  2.5147E+03

           1    4.30007E+00     8.7311E-02  2.7102E-02 -4.8851E-01  4.9699E-01
ac ID =   33377                -7.7917E-01  3.4742E+00 -3.1421E-01  3.5744E+00
                               -3.6503E-01  1.0885E+01 -4.7279E+01  2.5147E+03

           1    4.40006E+00     9.4920E-02  1.4523E-02 -4.5499E-01  4.6501E-01
ac ID =   33377                -3.1120E-01  4.0763E+00 -3.6057E-01  4.1040E+00
                               -3.6455E-01  1.0906E+01 -4.7295E+01  2.5147E+03

           1    4.50005E+00     8.7032E-02 -2.5998E-02 -4.1933E-01  4.2906E-01
ac ID =   33377                 3.2782E-01  3.5059E+00 -2.9150E-03  3.5212E+00
                               -3.6404E-01  1.0929E+01 -4.7312E+01  2.5147E+03

           1    4.60004E+00     1.0047E-01  6.1630E-03 -4.7962E-01  4.9007E-01
ac ID =   33377                 6.9244E-02  4.1908E+00  2.8470E-01  4.2011E+00
                               -3.6361E-01  1.0954E+01 -4.7328E+01  2.5147E+03

           1    4.70003E+00     1.0627E-01  1.6944E-02 -5.6645E-01  5.7658E-01
ac ID =   33377                -4.0800E-01  4.0627E+00  2.8952E-02  4.0832E+00
                               -3.6313E-01  1.0979E+01 -4.7345E+01  2.5147E+03

           1    4.80002E+00     9.9296E-02 -5.7764E-03 -6.0471E-01  6.1284E-01
ac ID =   33377                 2.5088E-01  4.3142E+00 -1.7838E-02  4.3215E+00
                               -3.6258E-01  1.1007E+01 -4.7362E+01  2.5147E+03

           1    4.90001E+00     1.0874E-01 -1.3310E-04 -5.8485E-01  5.9487E-01
ac ID =   33377                -5.3614E-01  4.2803E+00  1.6481E-01  4.3169E+00
                               -3.6200E-01  1.1036E+01 -4.7379E+01  2.5147E+03

           1    5.00000E+00     1.0541E-01  1.8902E-02 -5.9062E-01  6.0025E-01
ac ID =   33377                -5.7668E-01  4.5885E+00 -8.5879E-02  4.6254E+00
                               -3.6152E-01  1.1066E+01 -4.7396E+01  2.5147E+03

           1    5.10049E+00     1.1444E-01  9.3689E-03 -6.8879E-01  6.9829E-01
ac ID =   33377                -6.8348E-01  4.5100E+00  1.8121E-01  4.5651E+00
                               -3.6098E-01  1.1099E+01 -4.7414E+01  2.5147E+03

           1    5.20048E+00     1.0771E-01  2.9282E-03 -7.2486E-01  7.3282E-01
ac ID =   33377                -3.6764E-01  5.0616E+00  9.3987E-02  5.0758E+00
                               -3.6040E-01  1.1133E+01 -4.7431E+01  2.5147E+03

           1    5.30047E+00     1.2853E-01  7.2948E-03 -7.3781E-01  7.4895E-01
ac ID =   33377                -5.3603E-01  5.0937E+00 -5.0061E-01  5.1463E+00
                               -3.5986E-01  1.1169E+01 -4.7449E+01  2.5147E+03

           1    5.40046E+00     1.3213E-01  4.8510E-03 -7.6419E-01  7.7555E-01
ac ID =   33377                -1.9371E-01  5.3645E+00 -2.5912E-01  5.3743E+00
                               -3.5936E-01  1.1206E+01 -4.7467E+01  2.5147E+03

           1    5.50045E+00     1.2875E-01 -6.1455E-03 -8.4349E-01  8.5329E-01
ac ID =   33377                 1.6373E-01  5.3769E+00  1.1282E-01  5.3806E+00
                               -3.5873E-01  1.1246E+01 -4.7485E+01  2.5147E+03

           1    5.60044E+00     1.3073E-01 -1.0839E-03 -9.2725E-01  9.3642E-01
ac ID =   33377                -3.0347E-01  5.6887E+00  6.7612E-03  5.6968E+00
                               -3.5815E-01  1.1287E+01 -4.7502E+01  2.5147E+03

           1    5.70043E+00     1.3424E-01  2.6871E-02 -9.7132E-01  9.8092E-01
ac ID =   33377                -7.0705E-01  5.9607E+00 -2.3849E-01  6.0073E+00
                               -3.5757E-01  1.1329E+01 -4.7520E+01  2.5147E+03

           1    5.80042E+00     1.3520E-01 -8.3470E-03 -9.5172E-01  9.6131E-01
ac ID =   33377                -7.3604E-02  5.6148E+00 -4.9780E-01  5.6373E+00
                               -3.5688E-01  1.1374E+01 -4.7537E+01  2.5147E+03

           1    5.90041E+00     1.4335E-01  1.8377E-02 -9.8464E-01  9.9519E-01
ac ID =   33377                -7.6373E-01  6.2001E+00 -2.5994E-01  6.2524E+00
                               -3.5622E-01  1.1420E+01 -4.7554E+01  2.5147E+03

           1    6.00040E+00     1.4997E-01  2.2501E-02 -1.0603E+00  1.0711E+00
ac ID =   33377                -1.2309E+00  6.2278E+00 -4.6514E-02  6.3485E+00
                               -3.5560E-01  1.1467E+01 -4.7571E+01  2.5147E+03

           1    6.10039E+00     1.4963E-01  2.4415E-03 -1.0854E+00  1.0957E+00
ac ID =   33377                -3.6751E-01  6.3193E+00 -6.8885E-02  6.3303E+00
                               -3.5486E-01  1.1517E+01 -4.7587E+01  2.5147E+03

           1    6.20038E+00     1.4669E-01 -1.2713E-02 -1.0887E+00  1.0986E+00
ac ID =   33377                -2.8482E-01  6.2342E+00 -1.2151E-01  6.2419E+00
                               -3.5412E-01  1.1568E+01 -4.7603E+01  2.5147E+03

           1    6.30037E+00     1.5910E-01  2.8065E-02 -1.1240E+00  1.1356E+00
ac ID =   33377                -9.9026E-01  6.3284E+00 -3.5844E-01  6.4154E+00
                               -3.5342E-01  1.1621E+01 -4.7619E+01  2.5147E+03

           1    6.40036E+00     1.5778E-01  1.5509E-03 -1.2255E+00  1.2356E+00
ac ID =   33377                -2.2234E-01  7.0550E+00 -3.5863E-01  7.0676E+00
                               -3.5263E-01  1.1675E+01 -4.7634E+01  2.5147E+03

           1    6.50035E+00     1.7017E-01 -2.3610E-03 -1.2929E+00  1.3040E+00
ac ID =   33377                -3.9376E-01  7.4880E+00 -3.5195E-01  7.5066E+00
                               -3.5177E-01  1.1731E+01 -4.7648E+01  2.5147E+03

           1    6.60034E+00     1.5829E-01  1.5992E-02 -1.3083E+00  1.3179E+00
ac ID =   33377                -9.1706E-01  7.7025E+00  2.4118E-03  7.7569E+00
                               -3.5088E-01  1.1789E+01 -4.7662E+01  2.5147E+03

           1    6.70033E+00     1.9118E-01  7.0375E-03 -1.3246E+00  1.3384E+00
ac ID =   33377                -6.0705E-01  8.1884E+00 -8.1244E-02  8.2112E+00
                               -3.5007E-01  1.1849E+01 -4.7675E+01  2.5147E+03

           1    6.80032E+00     1.7907E-01  1.4148E-02 -1.3610E+00  1.3728E+00
ac ID =   33377                -9.9983E-01  8.2552E+00 -2.3460E-01  8.3189E+00
                               -3.4916E-01  1.1910E+01 -4.7688E+01  2.5147E+03

           1    6.90031E+00     1.8660E-01  2.0466E-07 -1.4555E+00  1.4674E+00
ac ID =   33377                -9.0398E-01  8.3618E+00 -2.2194E-01  8.4135E+00
                               -3.4823E-01  1.1972E+01 -4.7699E+01  2.5147E+03

           1    7.00030E+00     2.0164E-01  1.3619E-02 -1.4698E+00  1.4836E+00
ac ID =   33377                -8.4709E-01  8.6982E+00 -2.0529E-01  8.7417E+00
                               -3.4739E-01  1.2037E+01 -4.7711E+01  2.5147E+03

           1    7.10029E+00     1.8872E-01  3.3666E-03 -1.4974E+00  1.5092E+00
ac ID =   33377                -5.5141E-01  8.6343E+00 -8.6525E-02  8.6523E+00
                               -3.4650E-01  1.2103E+01 -4.7721E+01  2.5147E+03

           1    7.20028E+00     2.0101E-01  8.3692E-03 -1.5925E+00  1.6051E+00
ac ID =   33377                -7.6010E-01  9.1982E+00 -2.4972E-01  9.2329E+00
                               -3.4558E-01  1.2171E+01 -4.7730E+01  2.5147E+03

           1    7.30027E+00     2.0107E-01  7.5065E-04 -1.6674E+00  1.6794E+00
ac ID =   33377                -6.4759E-01  9.5159E+00 -5.0741E-01  9.5514E+00
                               -3.4469E-01  1.2240E+01 -4.7738E+01  2.5147E+03

           1    7.40026E+00     2.3062E-01  9.0864E-03 -1.7163E+00  1.7318E+00
ac ID =   33377                -6.0263E-01  1.0431E+01 -4.0469E-01  1.0456E+01
                               -3.4380E-01  1.2312E+01 -4.7746E+01  2.5147E+03

           1    7.50025E+00     2.2515E-01 -3.6988E-03 -1.7215E+00  1.7362E+00
ac ID =   33377                -7.2733E-01  1.0618E+01 -9.9723E-02  1.0643E+01
                               -3.4281E-01  1.2384E+01 -4.7752E+01  2.5147E+03

           1    7.60024E+00     2.4381E-01  1.6059E-02 -1.7447E+00  1.7618E+00
ac ID =   33377                -1.0059E+00  1.1042E+01  1.9584E-01  1.1089E+01
                               -3.4187E-01  1.2459E+01 -4.7757E+01  2.5147E+03

           1    7.70023E+00     2.3527E-01  1.9314E-03 -1.7972E+00  1.8126E+00
ac ID =   33377                -7.1581E-01  1.1113E+01  1.6086E-02  1.1136E+01
                               -3.4093E-01  1.2535E+01 -4.7761E+01  2.5147E+03

           1    7.80022E+00     2.4385E-01  1.4478E-02 -1.8433E+00  1.8594E+00
ac ID =   33377                -1.2300E+00  1.1220E+01 -5.8142E-02  1.1287E+01
                               -3.3992E-01  1.2612E+01 -4.7764E+01  2.5147E+03

           1    7.90021E+00     1.9761E-01 -4.4908E-03 -1.7690E+00  1.7800E+00
ac ID =   33377                -5.1846E-01  1.0982E+01 -1.8647E-01  1.0996E+01
                               -3.3896E-01  1.2691E+01 -4.7766E+01  2.5147E+03

           1    8.00020E+00     2.8194E-01 -7.2265E-03 -1.8391E+00  1.8606E+00
ac ID =   33377                -4.0245E-01  1.1549E+01 -4.9195E-01  1.1566E+01
                               -3.3811E-01  1.2771E+01 -4.7766E+01  2.5147E+03

           1    8.10019E+00     2.2851E-01  1.1502E-02 -1.9519E+00  1.9652E+00
ac ID =   33377                -1.2911E+00  1.2025E+01  1.5847E-01  1.2095E+01
                               -3.3727E-01  1.2852E+01 -4.7764E+01  2.5147E+03

           1    8.20018E+00     2.3060E-01 -8.3465E-03 -2.0268E+00  2.0399E+00
ac ID =   33377                -1.8697E-01  1.2579E+01 -2.8932E-01  1.2584E+01
                               -3.3648E-01  1.2934E+01 -4.7761E+01  2.5147E+03

           1    8.30017E+00     2.7577E-01  9.5284E-04 -2.0117E+00  2.0305E+00
ac ID =   33377                -4.5843E-01  1.3076E+01 -5.5587E-02  1.3084E+01
                               -3.3567E-01  1.3018E+01 -4.7757E+01  2.5147E+03

           1    8.40016E+00     3.0466E-01  5.7534E-03 -1.9622E+00  1.9858E+00
ac ID =   33377                -1.1934E+00  1.2929E+01  9.5021E-02  1.2984E+01
                               -3.3482E-01  1.3103E+01 -4.7751E+01  2.5147E+03

           1    8.50015E+00     2.7796E-01  2.4481E-02 -2.0849E+00  2.1035E+00
ac ID =   33377                -9.8735E-01  1.3938E+01 -1.0229E+00  1.4010E+01
                               -3.3412E-01  1.3189E+01 -4.7743E+01  2.5147E+03

           1    8.60014E+00     2.4568E-01 -1.2152E-02 -2.1729E+00  2.1867E+00
ac ID =   33377                -8.6448E-01  1.3637E+01 -3.9609E-01  1.3671E+01
                               -3.3323E-01  1.3276E+01 -4.7733E+01  2.5147E+03

           1    8.70013E+00     2.9994E-01  1.5089E-02 -2.1567E+00  2.1775E+00
ac ID =   33377                -1.2396E+00  1.3776E+01  5.8058E-01  1.3844E+01
                               -3.3243E-01  1.3365E+01 -4.7722E+01  2.5147E+03

           1    8.80012E+00     2.6579E-01  2.2646E-02 -2.1405E+00  2.1571E+00
ac ID =   33377                -1.3149E+00  1.3670E+01  1.4097E-01  1.3734E+01
                               -3.3169E-01  1.3455E+01 -4.7710E+01  2.5147E+03

           1    8.90011E+00     3.0130E-01  7.2700E-03 -2.2042E+00  2.2247E+00
ac ID =   33377                -5.1219E-01  1.4052E+01 -7.9160E-01  1.4084E+01
                               -3.3083E-01  1.3546E+01 -4.7695E+01  2.5147E+03

           1    9.00010E+00     2.8130E-01 -2.1815E-02 -2.3079E+00  2.3251E+00
ac ID =   33377                -7.1594E-01  1.4125E+01 -1.1524E+00  1.4190E+01
                               -3.2988E-01  1.3638E+01 -4.7678E+01  2.5147E+03

           1    9.10009E+00     3.2298E-01  4.5671E-02 -2.2850E+00  2.3082E+00
ac ID =   33377                -1.5275E+00  1.4554E+01 -5.2673E-01  1.4644E+01
                               -3.2908E-01  1.3732E+01 -4.7660E+01  2.5147E+03

           1    9.20008E+00     3.0331E-01 -5.1311E-03 -2.2762E+00  2.2963E+00
ac ID =   33377                -6.8407E-01  1.4738E+01  1.0939E-01  1.4754E+01
                               -3.2812E-01  1.3827E+01 -4.7640E+01  2.5147E+03

           1    9.30007E+00     2.8697E-01 -4.9567E-03 -2.2829E+00  2.3009E+00
ac ID =   33377                -5.3655E-01  1.4026E+01  5.6695E-02  1.4036E+01
                               -3.2710E-01  1.3923E+01 -4.7618E+01  2.5147E+03

           1    9.40006E+00     3.2244E-01  2.7734E-02 -2.3603E+00  2.3823E+00
ac ID =   33377                -2.0914E+00  1.4508E+01 -7.1237E-02  1.4658E+01
                               -3.2616E-01  1.4019E+01 -4.7593E+01  2.5147E+03

           1    9.50005E+00     3.1819E-01  2.3469E-02 -2.4013E+00  2.4224E+00
ac ID =   33377                -1.3672E+00  1.5065E+01 -2.8025E-01  1.5130E+01
                               -3.2532E-01  1.4118E+01 -4.7567E+01  2.5147E+03

           1    9.60004E+00     3.1095E-01 -7.8500E-03 -2.3631E+00  2.3835E+00
ac ID =   33377                -1.0249E+00  1.4723E+01 -2.5511E-01  1.4761E+01
                               -3.2424E-01  1.4217E+01 -4.7538E+01  2.5147E+03

           1    9.70003E+00     3.1459E-01  4.3751E-03 -2.3695E+00  2.3903E+00
ac ID =   33377                -9.5675E-01  1.5399E+01 -7.5906E-02  1.5429E+01
                               -3.2331E-01  1.4318E+01 -4.7508E+01  2.5147E+03

           1    9.80002E+00     3.6224E-01  2.9413E-02 -2.4116E+00  2.4389E+00
ac ID =   33377                -1.6276E+00  1.5822E+01  6.0394E-02  1.5906E+01
                               -3.2248E-01  1.4420E+01 -4.7476E+01  2.5147E+03

           1    9.90001E+00     3.2887E-01 -1.2719E-02 -2.4641E+00  2.4860E+00
ac ID =   33377                -5.5505E-01  1.5906E+01 -3.5211E-01  1.5919E+01
                               -3.2155E-01  1.4524E+01 -4.7442E+01  2.5147E+03

           1    1.00005E+01     3.2836E-01 -7.2627E-03 -2.4328E+00  2.4549E+00
ac ID =   33377                -6.9743E-01  1.5505E+01 -2.2466E-01  1.5522E+01
                               -3.2058E-01  1.4629E+01 -4.7406E+01  2.5147E+03

           1    1.01005E+01     3.6329E-01  2.2955E-02 -2.4312E+00  2.4583E+00
ac ID =   33377                -1.5468E+00  1.6302E+01 -3.9979E-01  1.6381E+01
                               -3.1977E-01  1.4735E+01 -4.7369E+01  2.5147E+03

           1    1.02005E+01     3.3025E-01  4.1504E-04 -2.4941E+00  2.5158E+00
ac ID =   33377                -8.4451E-01  1.6099E+01 -5.1788E-01  1.6130E+01
                               -3.1893E-01  1.4842E+01 -4.7329E+01  2.5147E+03

           1    1.03005E+01     3.3965E-01 -9.6299E-03 -2.5510E+00  2.5735E+00
ac ID =   33377                -1.0578E+00  1.6077E+01 -1.5580E-02  1.6112E+01
                               -3.1803E-01  1.4951E+01 -4.7287E+01  2.5147E+03

           1    1.04005E+01     3.6476E-01  2.2244E-02 -2.5134E+00  2.5398E+00
ac ID =   33377                -1.4510E+00  1.6392E+01  8.4911E-02  1.6456E+01
                               -3.1735E-01  1.5061E+01 -4.7244E+01  2.5147E+03

           1    1.05004E+01     3.7020E-01  3.8452E-03 -2.4497E+00  2.4775E+00
ac ID =   33377                -1.2848E+00  1.6181E+01 -3.4016E-02  1.6232E+01
                               -3.1659E-01  1.5172E+01 -4.7198E+01  2.5147E+03

           1    1.06004E+01     3.0735E-01 -1.7432E-02 -2.4614E+00  2.4806E+00
ac ID =   33377                -4.0683E-01  1.5907E+01 -2.5208E-01  1.5914E+01
                               -3.1591E-01  1.5284E+01 -4.7150E+01  2.5147E+03

           1    1.07004E+01     3.5196E-01 -6.5518E-03 -2.5090E+00  2.5336E+00
ac ID =   33377                -7.3458E-01  1.6047E+01 -3.1656E-01  1.6067E+01
                               -3.1527E-01  1.5398E+01 -4.7100E+01  2.5147E+03

           1    1.08004E+01     3.7145E-01  1.2586E-02 -2.4816E+00  2.5093E+00
ac ID =   33377                -9.9310E-01  1.6074E+01 -4.1010E-01  1.6110E+01
                               -3.1478E-01  1.5512E+01 -4.7047E+01  2.5147E+03

           1    1.09004E+01     3.3150E-01 -6.5156E-03 -2.4485E+00  2.4708E+00
ac ID =   33377                -6.3789E-01  1.5434E+01 -3.4929E-01  1.5452E+01
                               -3.1424E-01  1.5628E+01 -4.6993E+01  2.5147E+03

           1    1.10004E+01     3.4103E-01 -1.3429E-02 -2.4541E+00  2.4778E+00
ac ID =   33377                -7.7121E-01  1.5722E+01 -1.0446E-01  1.5741E+01
                               -3.1370E-01  1.5744E+01 -4.6936E+01  2.5147E+03

           1    1.11004E+01     3.6459E-01 -2.1825E-03 -2.4599E+00  2.4868E+00
ac ID =   33377                -1.0194E+00  1.6132E+01 -2.1455E-01  1.6165E+01
                               -3.1328E-01  1.5861E+01 -4.6877E+01  2.5147E+03

           1    1.12004E+01     3.5545E-01  2.8790E-02 -2.4549E+00  2.4807E+00
ac ID =   33377                -1.2114E+00  1.6355E+01 -1.3208E-02  1.6400E+01
                               -3.1298E-01  1.5980E+01 -4.6816E+01  2.5147E+03

           1    1.13004E+01     3.3325E-01 -2.8267E-02 -2.3988E+00  2.4220E+00
ac ID =   33377                -8.0934E-01  1.5585E+01  1.5990E-01  1.5607E+01
                               -3.1248E-01  1.6099E+01 -4.6752E+01  2.5147E+03

           1    1.14004E+01     3.6491E-01 -3.8962E-03 -2.3442E+00  2.3724E+00
ac ID =   33377                -5.2933E-01  1.5906E+01 -1.8786E-01  1.5916E+01
                               -3.1222E-01  1.6219E+01 -4.6687E+01  2.5147E+03

           1    1.15003E+01     3.6638E-01  7.8950E-03 -2.3655E+00  2.3937E+00
ac ID =   33377                -9.5174E-01  1.6007E+01 -4.0782E-01  1.6040E+01
                               -3.1194E-01  1.6340E+01 -4.6619E+01  2.5147E+03

           1    1.16003E+01     3.3063E-01  7.7567E-03 -2.3957E+00  2.4184E+00
ac ID =   33377                -3.3556E-01  1.5389E+01 -3.3491E-01  1.5396E+01
                               -3.1173E-01  1.6463E+01 -4.6549E+01  2.5147E+03

           1    1.17003E+01     3.4835E-01 -2.2125E-02 -2.3572E+00  2.3829E+00
ac ID =   33377                -1.6761E-01  1.5316E+01  9.7340E-02  1.5318E+01
                               -3.1144E-01  1.6586E+01 -4.6477E+01  2.5147E+03

           1    1.18003E+01     3.7094E-01  7.9915E-03 -2.2925E+00  2.3223E+00
ac ID =   33377                -7.7194E-01  1.5678E+01  1.6574E-02  1.5697E+01
                               -3.1125E-01  1.6710E+01 -4.6403E+01  2.5147E+03

           1    1.19003E+01     3.6661E-01  9.5662E-03 -2.3138E+00  2.3427E+00
ac ID =   33377                -8.2029E-01  1.5363E+01 -3.2866E-01  1.5389E+01
                               -3.1109E-01  1.6834E+01 -4.6326E+01  2.5147E+03

           1    1.20003E+01     3.3886E-01  3.0141E-03 -2.3151E+00  2.3398E+00
ac ID =   33377                -3.4972E-01  1.5293E+01 -4.9734E-01  1.5305E+01
                               -3.1088E-01  1.6960E+01 -4.6247E+01  2.5147E+03

           1    1.21003E+01     3.6597E-01 -1.0023E-02 -2.2780E+00  2.3072E+00
ac ID =   33377                -6.9378E-01  1.5537E+01 -4.5689E-01  1.5559E+01
                               -3.1064E-01  1.7086E+01 -4.6167E+01  2.5147E+03

           1    1.22003E+01     3.5463E-01  1.6687E-02 -2.1971E+00  2.2256E+00
ac ID =   33377                -1.0956E+00  1.4939E+01 -2.0257E-01  1.4981E+01
                               -3.1054E-01  1.7213E+01 -4.6084E+01  2.5147E+03

           1    1.23003E+01     3.4701E-01 -9.2026E-04 -2.1462E+00  2.1741E+00
ac ID =   33377                -1.1005E-02  1.4318E+01  2.7070E-01  1.4321E+01
                               -3.1039E-01  1.7340E+01 -4.5999E+01  2.5147E+03

           1    1.24003E+01     3.5928E-01 -1.5576E-02 -2.1343E+00  2.1644E+00
ac ID =   33377                -1.3566E-01  1.4340E+01  2.7548E-01  1.4343E+01
                               -3.1014E-01  1.7468E+01 -4.5912E+01  2.5147E+03

           1    1.25002E+01     3.4441E-01  9.4274E-03 -2.1329E+00  2.1605E+00
ac ID =   33377                -5.7684E-01  1.4252E+01 -4.5336E-01  1.4271E+01
                               -3.1003E-01  1.7597E+01 -4.5822E+01  2.5147E+03

           1    1.26002E+01     3.4695E-01 -1.2016E-02 -2.0521E+00  2.0812E+00
ac ID =   33377                 1.0825E-01  1.3901E+01 -6.3276E-01  1.3916E+01
                               -3.0989E-01  1.7726E+01 -4.5732E+01  2.5147E+03

           1    1.27002E+01     3.4989E-01 -4.1182E-03 -1.9909E+00  2.0214E+00
ac ID =   33377                -3.1009E-01  1.4113E+01  4.6727E-01  1.4124E+01
                               -3.0970E-01  1.7856E+01 -4.5639E+01  2.5147E+03

           1    1.28002E+01     3.5240E-01 -2.1079E-03 -1.9793E+00  2.0105E+00
ac ID =   33377                -4.0610E-01  1.3782E+01  7.5811E-01  1.3809E+01
                               -3.0962E-01  1.7986E+01 -4.5544E+01  2.5147E+03

           1    1.29002E+01     3.3860E-01  1.2797E-02 -1.9426E+00  1.9719E+00
ac ID =   33377                -5.1353E-01  1.3391E+01  2.6093E-01  1.3403E+01
                               -3.0962E-01  1.8117E+01 -4.5447E+01  2.5147E+03

           1    1.30002E+01     3.4296E-01 -1.4269E-02 -1.8705E+00  1.9017E+00
ac ID =   33377                -4.3292E-01  1.2922E+01 -5.0704E-01  1.2939E+01
                               -3.0949E-01  1.8248E+01 -4.5349E+01  2.5147E+03

           1    1.31002E+01     3.3206E-01 -3.3582E-03 -1.8063E+00  1.8365E+00
ac ID =   33377                -4.5501E-01  1.1978E+01 -6.8246E-01  1.2006E+01
                               -3.0953E-01  1.8380E+01 -4.5248E+01  2.5147E+03

           1    1.32002E+01     3.4003E-01  1.1151E-02 -1.7867E+00  1.8188E+00
ac ID =   33377                -3.1152E-01  1.2338E+01  1.0748E-01  1.2342E+01
                               -3.0966E-01  1.8512E+01 -4.5146E+01  2.5147E+03

           1    1.33002E+01     3.0990E-01 -4.7755E-03 -1.7673E+00  1.7942E+00
ac ID =   33377                -2.9864E-01  1.1313E+01  4.2430E-01  1.1325E+01
                               -3.0967E-01  1.8645E+01 -4.5043E+01  2.5147E+03

           1    1.34002E+01     3.1431E-01  1.6215E-03 -1.7145E+00  1.7431E+00
ac ID =   33377                -3.3453E-01  1.1068E+01  5.2982E-02  1.1073E+01
                               -3.0973E-01  1.8778E+01 -4.4938E+01  2.5147E+03

           1    1.35001E+01     3.2404E-01 -1.1516E-02 -1.6409E+00  1.6726E+00
ac ID =   33377                -3.6842E-02  1.0667E+01 -6.8539E-01  1.0689E+01
                               -3.0982E-01  1.8912E+01 -4.4831E+01  2.5147E+03

           1    1.36001E+01     3.0637E-01  9.8606E-03 -1.6278E+00  1.6564E+00
ac ID =   33377                -3.0498E-01  1.0318E+01 -8.5120E-01  1.0358E+01
                               -3.0991E-01  1.9046E+01 -4.4723E+01  2.5147E+03

           1    1.37001E+01     2.7706E-01 -2.2641E-03 -1.5789E+00  1.6030E+00
ac ID =   33377                -4.7775E-01  9.3886E+00  3.9267E-03  9.4008E+00
                               -3.0993E-01  1.9181E+01 -4.4613E+01  2.5147E+03

           1    1.38001E+01     2.9630E-01 -1.1252E-03 -1.5175E+00  1.5461E+00
ac ID =   33377                -2.2527E-01  9.0191E+00  3.7705E-01  9.0298E+00
                               -3.1010E-01  1.9315E+01 -4.4501E+01  2.5147E+03

           1    1.39001E+01     2.8598E-01 -1.9722E-03 -1.4507E+00  1.4786E+00
ac ID =   33377                -5.0036E-01  8.5793E+00 -1.9485E-01  8.5961E+00
                               -3.1024E-01  1.9450E+01 -4.4388E+01  2.5147E+03

           1    1.40001E+01     2.5987E-01  1.9392E-02 -1.3633E+00  1.3880E+00
ac ID =   33377                -7.9700E-01  6.9790E+00 -3.6863E-01  7.0340E+00
                               -3.1035E-01  1.9585E+01 -4.4274E+01  2.5147E+03

           1    1.41001E+01     2.6570E-01 -9.8968E-03 -1.3437E+00  1.3698E+00
ac ID =   33377                -1.2212E-01  7.4806E+00 -3.9377E-01  7.4920E+00
                               -3.1056E-01  1.9721E+01 -4.4158E+01  2.5147E+03

           1    1.42001E+01     2.6658E-01  2.0494E-03 -1.2918E+00  1.3190E+00
ac ID =   33377                -4.4759E-01  6.9672E+00 -3.1900E-02  6.9816E+00
                               -3.1079E-01  1.9857E+01 -4.4041E+01  2.5147E+03

           1    1.43001E+01     2.3260E-01  7.9715E-03 -1.2146E+00  1.2367E+00
ac ID =   33377                -6.8555E-01  6.1324E+00  2.2062E-01  6.1746E+00
                               -3.1095E-01  1.9993E+01 -4.3923E+01  2.5147E+03

           1    1.44001E+01     2.4676E-01  1.2531E-02 -1.1266E+00  1.1534E+00
ac ID =   33377                -6.9830E-01  6.1183E+00 -1.2062E-02  6.1580E+00
                               -3.1120E-01  2.0129E+01 -4.3803E+01  2.5147E+03

           1    1.45000E+01     2.3125E-01 -2.0106E-03 -1.0730E+00  1.0976E+00
ac ID =   33377                 4.9565E-02  5.3126E+00 -3.2362E-01  5.3227E+00
                               -3.1147E-01  2.0265E+01 -4.3682E+01  2.5147E+03

           1    1.46000E+01     2.1938E-01 -1.0032E-04 -1.0691E+00  1.0913E+00
ac ID =   33377                -6.5780E-01  5.2913E+00 -1.2010E-01  5.3334E+00
                               -3.1165E-01  2.0401E+01 -4.3560E+01  2.5147E+03

           1    1.47000E+01     2.1059E-01  2.4356E-02 -9.8409E-01  1.0067E+00
ac ID =   33377                -7.7503E-01  4.3622E+00 -1.2559E-02  4.4305E+00
                               -3.1198E-01  2.0538E+01 -4.3438E+01  2.5147E+03

           1    1.48005E+01     2.0837E-01 -5.4165E-03 -9.1551E-01  9.3894E-01
ac ID =   33377                -1.6990E-01  4.2711E+00  1.1583E-01  4.2761E+00
                               -3.1224E-01  2.0675E+01 -4.3313E+01  2.5147E+03

           1    1.49005E+01     2.2438E-01  1.2313E-02 -8.8497E-01  9.1305E-01
ac ID =   33377                -4.5934E-01  4.0305E+00  1.9027E-01  4.0611E+00
                               -3.1250E-01  2.0812E+01 -4.3189E+01  2.5147E+03

           1    1.50005E+01     1.8647E-01  6.4754E-03 -8.3482E-01  8.5542E-01
ac ID =   33377                -5.1827E-01  3.0572E+00 -2.7908E-03  3.1009E+00
                               -3.1273E-01  2.0949E+01 -4.3063E+01  2.5147E+03

           1    1.51005E+01     1.8537E-01 -6.2789E-04 -7.7826E-01  8.0003E-01
ac ID =   33377                -8.6691E-02  3.2036E+00 -4.2602E-01  3.2330E+00
                               -3.1304E-01  2.1086E+01 -4.2937E+01  2.5147E+03

           1    1.52005E+01     1.8770E-01  1.1184E-02 -6.9815E-01  7.2303E-01
ac ID =   33377                -1.0765E-01  3.2404E+00 -4.0825E-01  3.2678E+00
                               -3.1331E-01  2.1223E+01 -4.2810E+01  2.5147E+03

           1    1.53005E+01     1.8012E-01 -8.0493E-03 -6.4874E-01  6.7333E-01
ac ID =   33377                -2.4800E-01  3.4890E+00  3.0469E-02  3.4979E+00
                               -3.1345E-01  2.1361E+01 -4.2682E+01  2.5147E+03

           1    1.54005E+01     1.9741E-01  6.1995E-03 -6.1989E-01  6.5059E-01
ac ID =   33377                -5.9858E-02  3.8321E+00  7.9208E-02  3.8334E+00
                               -3.1376E-01  2.1498E+01 -4.2554E+01  2.5147E+03

           1    1.55004E+01     1.8358E-01  8.3529E-03 -5.5692E-01  5.8646E-01
ac ID =   33377                -2.3278E-01  4.0380E+00 -2.2356E-01  4.0509E+00
                               -3.1399E-01  2.1635E+01 -4.2426E+01  2.5147E+03

           1    1.56004E+01     1.9879E-01  3.0041E-03 -4.9716E-01  5.3544E-01
ac ID =   33377                -2.3307E-01  4.4948E+00 -6.0213E-01  4.5410E+00
                               -3.1417E-01  2.1773E+01 -4.2297E+01  2.5147E+03

           1    1.57004E+01     1.6843E-01  3.2697E-03 -4.4012E-01  4.7126E-01
ac ID =   33377                -1.9060E-01  3.9573E+00 -9.9275E-03  3.9619E+00
                               -3.1443E-01  2.1911E+01 -4.2169E+01  2.5147E+03

           1    1.58004E+01     1.8674E-01 -5.4802E-03 -3.9118E-01  4.3350E-01
ac ID =   33377                -4.4371E-02  5.0886E+00  2.2684E-01  5.0939E+00
                               -3.1466E-01  2.2048E+01 -4.2040E+01  2.5147E+03

           1    1.59004E+01     1.8806E-01  1.6412E-02 -3.3666E-01  3.8597E-01
ac ID =   33377                 1.6099E-01  5.2741E+00  4.5551E-02  5.2767E+00
                               -3.1492E-01  2.2186E+01 -4.1911E+01  2.5147E+03

           1    1.60004E+01     1.6179E-01 -1.2102E-03 -2.5365E-01  3.0086E-01
ac ID =   33377                -2.1845E-02  4.7509E+00  2.4225E-02  4.7510E+00
                               -3.1503E-01  2.2324E+01 -4.1782E+01  2.5147E+03

           1    1.61004E+01     1.7524E-01 -1.5337E-02 -1.9248E-01  2.6076E-01
ac ID =   33377                 6.7158E-01  5.0591E+00 -4.5587E-01  5.1238E+00
                               -3.1528E-01  2.2462E+01 -4.1653E+01  2.5147E+03

           1    1.62004E+01     1.7011E-01  1.3456E-02 -1.5397E-01  2.2984E-01
ac ID =   33377                -1.3174E-01  4.6541E+00 -2.3501E-01  4.6618E+00
                               -3.1547E-01  2.2599E+01 -4.1525E+01  2.5147E+03

           1    1.63004E+01     1.8222E-01  4.7357E-03 -9.7125E-02  2.0654E-01
ac ID =   33377                 5.8164E-02  5.3586E+00 -1.1252E-02  5.3589E+00
                               -3.1556E-01  2.2737E+01 -4.1397E+01  2.5147E+03

           1    1.64004E+01     1.7045E-01 -1.4342E-02 -5.4158E-02  1.7942E-01
ac ID =   33377                 6.7781E-01  5.0704E+00 -1.4219E-01  5.1175E+00
                               -3.1567E-01  2.2875E+01 -4.1270E+01  2.5147E+03

           1    1.65003E+01     1.6234E-01  3.4885E-02  1.8999E-03  1.6605E-01
ac ID =   33377                -6.2734E-01  4.8705E+00 -2.3846E-01  4.9166E+00
                               -3.1577E-01  2.3013E+01 -4.1143E+01  2.5147E+03

           1    1.66003E+01     1.7774E-01  1.1622E-02  3.6122E-02  1.8175E-01
ac ID =   33377                -5.4633E-02  4.5826E+00 -4.2580E-01  4.6026E+00
                               -3.1571E-01  2.3151E+01 -4.1017E+01  2.5147E+03

           1    1.67003E+01     1.3491E-01 -1.7688E-02  6.1670E-02  1.4938E-01
ac ID =   33377                 2.6695E-01  3.6158E+00 -3.2377E-01  3.6401E+00
                               -3.1554E-01  2.3289E+01 -4.0891E+01  2.5147E+03

           1    1.68003E+01     1.4209E-01  1.4532E-02  1.5537E-01  2.1105E-01
ac ID =   33377                -7.0749E-03  3.4644E+00 -2.6458E-01  3.4745E+00
                               -3.1549E-01  2.3427E+01 -4.0767E+01  2.5147E+03

           1    1.69003E+01     1.5050E-01  3.2054E-02  1.6883E-01  2.2843E-01
ac ID =   33377                -6.9570E-01  3.2816E+00 -5.7553E-02  3.3551E+00
                               -3.1534E-01  2.3565E+01 -4.0643E+01  2.5147E+03

           1    1.70003E+01     1.3039E-01 -1.0811E-02  2.4070E-01  2.7396E-01
ac ID =   33377                 4.1602E-01  3.6128E+00 -1.0322E-01  3.6381E+00
                               -3.1494E-01  2.3704E+01 -4.0520E+01  2.5147E+03

           1    1.71003E+01     1.7116E-01 -2.9004E-02  2.4514E-01  3.0039E-01
ac ID =   33377                 1.0738E+00  3.4624E+00 -2.4879E-01  3.6336E+00
                               -3.1469E-01  2.3842E+01 -4.0399E+01  2.5147E+03

           1    1.72003E+01     6.0043E-02  3.9159E-02  2.8417E-01  2.9308E-01
ac ID =   33377                -7.5566E-01  1.6185E+00 -6.0251E-02  1.7872E+00
                               -3.1451E-01  2.3981E+01 -4.0278E+01  2.5147E+03

           1    1.73003E+01     1.7338E-01 -1.2116E-02  3.5247E-01  3.9300E-01
ac ID =   33377                 5.4264E-01  2.7597E+00 -4.5855E-01  2.8497E+00
                               -3.1418E-01  2.4120E+01 -4.0159E+01  2.5147E+03

           1    1.74003E+01     7.1969E-02 -2.9783E-03  3.8193E-01  3.8866E-01
ac ID =   33377                 3.5139E-01  9.0300E-01 -3.4243E-01  1.0277E+00
                               -3.1386E-01  2.4260E+01 -4.0041E+01  2.5147E+03

           1    1.75002E+01     8.9746E-02  1.2349E-02  3.8820E-01  3.9863E-01
ac ID =   33377                -1.7784E-01  1.0818E+00  1.3962E-01  1.1052E+00
                               -3.1357E-01  2.4399E+01 -3.9924E+01  2.5147E+03

           1    1.76002E+01     1.2073E-01  1.3310E-02  4.5391E-01  4.6988E-01
ac ID =   33377                -1.3906E-01  1.4299E+00  3.0133E-01  1.4679E+00
                               -3.1327E-01  2.4539E+01 -3.9809E+01  2.5147E+03

           1    1.77002E+01     7.4857E-02 -1.4433E-02  4.8683E-01  4.9277E-01
ac ID =   33377                 3.7502E-01  2.0839E-01 -3.0504E-01  5.2642E-01
                               -3.1295E-01  2.4679E+01 -3.9696E+01  2.5147E+03

           1    1.78002E+01     1.0715E-01  6.1918E-03  5.2567E-01  5.3652E-01
ac ID =   33377                -1.8970E-01  7.1473E-01 -6.4888E-01  9.8380E-01
                               -3.1270E-01  2.4820E+01 -3.9583E+01  2.5147E+03

           1    1.79002E+01     4.2285E-02  3.7804E-02  5.4475E-01  5.4770E-01
ac ID =   33377                -7.6263E-01 -1.0190E+00 -2.4307E-01  1.2958E+00
                               -3.1240E-01  2.4961E+01 -3.9473E+01  2.5147E+03

           1    1.80002E+01     1.0648E-01 -1.5408E-02  5.8077E-01  5.9066E-01
ac ID =   33377                 6.0183E-01 -1.4852E-01 -6.0832E-02  6.2286E-01
                               -3.1199E-01  2.5102E+01 -3.9363E+01  2.5147E+03

           1    1.81002E+01     7.1249E-02  2.1469E-03  6.0100E-01  6.0521E-01
ac ID =   33377                -1.2255E-01 -6.9816E-01 -1.4646E-01  7.2381E-01
                               -3.1155E-01  2.5244E+01 -3.9256E+01  2.5147E+03

           1    1.82002E+01     3.2107E-02  2.1110E-02  6.4344E-01  6.4459E-01
ac ID =   33377                -7.7612E-01 -2.1682E+00 -2.8541E-01  2.3206E+00
                               -3.1119E-01  2.5386E+01 -3.9150E+01  2.5147E+03

           1    1.83002E+01     9.2906E-02 -4.6788E-03  6.6010E-01  6.6663E-01
ac ID =   33377                 2.5789E-01 -1.1405E+00 -5.0874E-01  1.2752E+00
                               -3.1080E-01  2.5528E+01 -3.9046E+01  2.5147E+03

           1    1.84002E+01     4.5479E-02  7.0646E-04  6.6808E-01  6.6962E-01
ac ID =   33377                -4.8842E-02 -2.3437E+00 -1.5355E-01  2.3493E+00
                               -3.1034E-01  2.5671E+01 -3.8943E+01  2.5147E+03

           1    1.85001E+01     3.9855E-02  2.1079E-02  7.2592E-01  7.2732E-01
ac ID =   33377                -5.8642E-01 -2.8937E+00  2.8227E-01  2.9660E+00
                               -3.0992E-01  2.5815E+01 -3.8842E+01  2.5147E+03

           1    1.86001E+01     5.6084E-02 -5.4648E-03  7.2128E-01  7.2348E-01
ac ID =   33377                 1.5501E-01 -2.8286E+00 -1.0524E-01  2.8348E+00
                               -3.0954E-01  2.5958E+01 -3.8744E+01  2.5147E+03

           1    1.87001E+01     5.9542E-02 -1.7464E-03  7.4352E-01  7.4590E-01
ac ID =   33377                 8.8894E-03 -3.3155E+00 -2.2063E-01  3.3228E+00
                               -3.0911E-01  2.6102E+01 -3.8647E+01  2.5147E+03

           1    1.88001E+01     1.9194E-02 -5.0433E-04  7.7952E-01  7.7976E-01
ac ID =   33377                -1.5842E-01 -4.5364E+00 -3.1963E-01  4.5504E+00
                               -3.0873E-01  2.6247E+01 -3.8552E+01  2.5147E+03

           1    1.89001E+01     3.7437E-02  3.0115E-02  7.8896E-01  7.9042E-01
ac ID =   33377                -7.1717E-01 -4.4748E+00 -2.0952E-01  4.5367E+00
                               -3.0848E-01  2.6392E+01 -3.8458E+01  2.5147E+03

           1    1.90001E+01     4.5811E-02 -2.4401E-02  7.9608E-01  7.9777E-01
ac ID =   33377                 3.3382E-01 -3.9894E+00 -3.6925E-01  4.0204E+00
                               -3.0813E-01  2.6538E+01 -3.8367E+01  2.5147E+03

           1    1.91001E+01    -3.7876E-03  8.5245E-03  8.2895E-01  8.2900E-01
ac ID =   33377                -6.7992E-01 -5.8289E+00 -8.7574E-02  5.8691E+00
                               -3.0784E-01  2.6684E+01 -3.8278E+01  2.5147E+03

           1    1.92001E+01     4.7543E-02  6.7192E-03  8.2290E-01  8.2430E-01
ac ID =   33377                -1.5723E-01 -4.4603E+00 -1.9361E-01  4.4673E+00
                               -3.0770E-01  2.6830E+01 -3.8191E+01  2.5147E+03

           1    1.93001E+01     3.2435E-02  1.2932E-02  8.4586E-01  8.4658E-01
ac ID =   33377                -3.9690E-01 -5.3036E+00 -4.6405E-02  5.3187E+00
                               -3.0756E-01  2.6978E+01 -3.8106E+01  2.5147E+03

           1    1.94001E+01    -8.9218E-03  1.2401E-02  8.5364E-01  8.5378E-01
ac ID =   33377                -3.3110E-01 -6.4045E+00 -1.6667E-01  6.4152E+00
                               -3.0735E-01  2.7125E+01 -3.8023E+01  2.5147E+03

           1    1.95000E+01     4.4220E-02 -1.2143E-02  8.3075E-01  8.3201E-01
ac ID =   33377                -3.9457E-01 -5.1984E+00 -3.4970E-01  5.2251E+00
                               -3.0718E-01  2.7274E+01 -3.7942E+01  2.5147E+03

           1    1.96000E+01     1.5761E-02  2.7665E-03  8.6184E-01  8.6199E-01
ac ID =   33377                -1.1644E-01 -6.2213E+00 -1.8335E-01  6.2251E+00
                               -3.0723E-01  2.7422E+01 -3.7863E+01  2.5147E+03

           1    1.97005E+01     1.4723E-02  1.4145E-02  8.4714E-01  8.4738E-01
ac ID =   33377                -5.7897E-01 -6.3100E+00 -5.9207E-02  6.3368E+00
                               -3.0726E-01  2.7573E+01 -3.7785E+01  2.5147E+03

           1    1.98005E+01     2.8734E-02 -6.4297E-03  8.2496E-01  8.2548E-01
ac ID =   33377                 1.1559E-01 -5.7176E+00 -4.1262E-01  5.7336E+00
                               -3.0736E-01  2.7722E+01 -3.7710E+01  2.5147E+03

           1    1.99005E+01     1.5735E-02 -1.5618E-02  8.5970E-01  8.5999E-01
ac ID =   33377                 3.4097E-02 -6.6198E+00 -4.3927E-01  6.6345E+00
                               -3.0757E-01  2.7873E+01 -3.7637E+01  2.5147E+03

           1    2.00005E+01    -1.4434E-03  1.1419E-02  8.5726E-01  8.5733E-01
ac ID =   33377                -2.4115E-01 -6.9322E+00 -4.2024E-01  6.9491E+00
                               -3.0790E-01  2.8024E+01 -3.7566E+01  2.5147E+03

           1    2.01005E+01     4.1174E-02  3.8692E-03  8.2131E-01  8.2235E-01
ac ID =   33377                -3.4780E-01 -6.5834E+00  3.2617E-02  6.5927E+00
                               -3.0820E-01  2.8175E+01 -3.7497E+01  2.5147E+03

           1    2.02005E+01     1.6147E-02 -1.8625E-02  8.6297E-01  8.6332E-01
ac ID =   33377                 5.2208E-01 -6.8657E+00 -7.9362E-03  6.8855E+00
                               -3.0865E-01  2.8327E+01 -3.7429E+01  2.5147E+03

           1    2.03005E+01     6.1571E-03  1.5858E-02  8.3315E-01  8.3333E-01
ac ID =   33377                -5.7204E-01 -7.4424E+00 -1.3209E-02  7.4643E+00
                               -3.0918E-01  2.8480E+01 -3.7364E+01  2.5147E+03

           1    2.04005E+01     1.5691E-02  6.1954E-03  8.0927E-01  8.0944E-01
ac ID =   33377                -4.5773E-01 -7.2383E+00 -3.5392E-01  7.2614E+00
                               -3.0976E-01  2.8632E+01 -3.7301E+01  2.5147E+03

           1    2.05004E+01     3.9837E-02 -1.1876E-02  8.3087E-01  8.3191E-01
ac ID =   33377                 1.1740E-01 -7.5181E+00 -2.0840E-01  7.5219E+00
                               -3.1035E-01  2.8786E+01 -3.7239E+01  2.5147E+03

           1    2.06004E+01     5.4750E-04  3.1144E-03  8.2039E-01  8.2040E-01
ac ID =   33377                -2.1188E-01 -8.0508E+00 -3.2378E-02  8.0536E+00
                               -3.1101E-01  2.8940E+01 -3.7180E+01  2.5147E+03

           1    2.07004E+01     1.9074E-02  2.1802E-02  7.9281E-01  7.9334E-01
ac ID =   33377                -5.6433E-01 -7.7273E+00 -1.2533E-01  7.7489E+00
                               -3.1173E-01  2.9094E+01 -3.7122E+01  2.5147E+03

           1    2.08004E+01     4.2291E-02  2.0482E-03  8.1162E-01  8.1272E-01
ac ID =   33377                -1.1318E-01 -7.4332E+00 -2.0551E-01  7.4369E+00
                               -3.1232E-01  2.9249E+01 -3.7066E+01  2.5147E+03

           1    2.09004E+01     1.3310E-02 -1.7344E-02  7.9303E-01  7.9333E-01
ac ID =   33377                 2.6804E-01 -7.9324E+00 -2.2103E-01  7.9400E+00
                               -3.1292E-01  2.9404E+01 -3.7012E+01  2.5147E+03

           1    2.10004E+01     1.9145E-02  2.7011E-02  7.8634E-01  7.8703E-01
ac ID =   33377                -8.6288E-01 -8.0185E+00  2.6109E-02  8.0649E+00
                               -3.1356E-01  2.9560E+01 -3.6960E+01  2.5147E+03

           1    2.11004E+01     4.3333E-02 -2.8365E-04  7.6453E-01  7.6576E-01
ac ID =   33377                -5.3237E-02 -7.8226E+00 -1.5329E-01  7.8243E+00
                               -3.1414E-01  2.9716E+01 -3.6910E+01  2.5147E+03

           1    2.12004E+01     3.3561E-02 -2.1193E-02  7.4011E-01  7.4117E-01
ac ID =   33377                 1.7323E-01 -7.7760E+00 -1.4163E-01  7.7792E+00
                               -3.1468E-01  2.9872E+01 -3.6862E+01  2.5147E+03

           1    2.13004E+01     3.1895E-02  1.9748E-02  7.1151E-01  7.1250E-01
ac ID =   33377                -6.4950E-01 -8.0419E+00 -2.2169E-01  8.0712E+00
                               -3.1538E-01  3.0029E+01 -3.6815E+01  2.5147E+03

           1    2.14004E+01     5.1003E-02  2.3034E-02  6.8729E-01  6.8956E-01
ac ID =   33377                -5.8886E-01 -7.8945E+00 -1.6107E-01  7.9181E+00
                               -3.1600E-01  3.0186E+01 -3.6770E+01  2.5147E+03

           1    2.15003E+01     5.9688E-02 -2.3108E-02  6.6322E-01  6.6630E-01
ac ID =   33377                 2.8855E-01 -7.7044E+00 -2.6520E-01  7.7144E+00
                               -3.1653E-01  3.0343E+01 -3.6727E+01  2.5147E+03

           1    2.16003E+01     2.9229E-02 -2.2852E-03  6.2908E-01  6.2976E-01
ac ID =   33377                -1.6440E-01 -8.5487E+00 -2.9984E-01  8.5555E+00
                               -3.1720E-01  3.0500E+01 -3.6685E+01  2.5147E+03

           1    2.17003E+01     5.6554E-02  1.7747E-02  6.1099E-01  6.1386E-01
ac ID =   33377                -8.2533E-01 -8.2853E+00 -1.4935E-01  8.3276E+00
                               -3.1790E-01  3.0658E+01 -3.6645E+01  2.5147E+03

           1    2.18003E+01     6.8596E-02 -1.0302E-02  5.8853E-01  5.9260E-01
ac ID =   33377                 1.1056E-01 -8.2572E+00 -1.0879E-01  8.2587E+00
                               -3.1860E-01  3.0816E+01 -3.6606E+01  2.5147E+03

           1    2.19003E+01     4.7232E-02 -2.1232E-02  5.6030E-01  5.6269E-01
ac ID =   33377                 1.5811E-01 -8.9409E+00 -1.8237E-02  8.9423E+00
                               -3.1940E-01  3.0975E+01 -3.6569E+01  2.5147E+03

           1    2.20003E+01     4.8592E-02  1.0808E-02  5.3983E-01  5.4212E-01
ac ID =   33377                -4.4269E-01 -9.1608E+00 -1.9122E-01  9.1735E+00
                               -3.2035E-01  3.1133E+01 -3.6533E+01  2.5147E+03

           1    2.21003E+01     6.6582E-02  3.4367E-03  5.0748E-01  5.1184E-01
ac ID =   33377                -3.4554E-01 -9.1922E+00 -4.0991E-01  9.2079E+00
                               -3.2136E-01  3.1291E+01 -3.6498E+01  2.5147E+03

           1    2.22003E+01     5.9203E-02 -2.4333E-02  4.7437E-01  4.7867E-01
ac ID =   33377                 3.3821E-01 -9.4390E+00 -3.1054E-01  9.4502E+00
                               -3.2244E-01  3.1450E+01 -3.6464E+01  2.5147E+03

           1    2.23003E+01     4.3096E-02 -4.0939E-03  4.6206E-01  4.6409E-01
ac ID =   33377                -1.5549E-01 -1.0251E+01 -1.6678E-01  1.0253E+01
                               -3.2368E-01  3.1609E+01 -3.6432E+01  2.5147E+03

           1    2.24003E+01     7.0373E-02  1.5491E-02  4.3916E-01  4.4503E-01
ac ID =   33377                -7.3634E-01 -9.9106E+00 -3.5777E-01  9.9444E+00
                               -3.2503E-01  3.1768E+01 -3.6400E+01  2.5147E+03

           1    2.25002E+01     5.5137E-02 -1.5406E-02  3.9918E-01  4.0327E-01
ac ID =   33377                 1.2904E-01 -1.0555E+01 -3.9026E-01  1.0563E+01
                               -3.2641E-01  3.1927E+01 -3.6369E+01  2.5147E+03

           1    2.26002E+01     3.3979E-02 -2.2038E-02  3.8234E-01  3.8448E-01
ac ID =   33377                 1.4243E-01 -1.1459E+01 -1.7250E-01  1.1461E+01
                               -3.2790E-01  3.2086E+01 -3.6340E+01  2.5147E+03

           1    2.27002E+01     8.0558E-02  9.8019E-03  3.4798E-01  3.5732E-01
ac ID =   33377                -5.9004E-01 -1.0849E+01 -2.4216E-01  1.0868E+01
                               -3.2956E-01  3.2245E+01 -3.6311E+01  2.5147E+03

           1    2.28002E+01     5.3283E-02  1.0111E-02  3.1766E-01  3.2226E-01
ac ID =   33377                -4.0747E-01 -1.1875E+01 -2.9623E-01  1.1886E+01
                               -3.3129E-01  3.2404E+01 -3.6282E+01  2.5147E+03

           1    2.29002E+01     5.4963E-02 -2.1230E-02  2.8784E-01  2.9381E-01
ac ID =   33377                 1.5229E-01 -1.1847E+01 -2.8119E-01  1.1851E+01
                               -3.3295E-01  3.2563E+01 -3.6254E+01  2.5147E+03

           1    2.30002E+01     6.2865E-02 -2.4117E-03  2.6181E-01  2.6927E-01
ac ID =   33377                -4.4013E-01 -1.1924E+01 -3.5843E-01  1.1938E+01
                               -3.3473E-01  3.2723E+01 -3.6227E+01  2.5147E+03

           1    2.31002E+01     5.3930E-02  1.9794E-02  2.1835E-01  2.2578E-01
ac ID =   33377                -7.0790E-01 -1.2496E+01 -2.5252E-01  1.2518E+01
                               -3.3659E-01  3.2882E+01 -3.6200E+01  2.5147E+03

           1    2.32002E+01     6.8108E-02 -1.9272E-02  1.9614E-01  2.0852E-01
ac ID =   33377                 2.3385E-02 -1.2362E+01 -3.3019E-01  1.2366E+01
                               -3.3840E-01  3.3041E+01 -3.6174E+01  2.5147E+03

           1    2.33002E+01     8.2175E-02 -3.6027E-03  1.7578E-01  1.9408E-01
ac ID =   33377                -1.4325E-01 -1.2392E+01 -3.7736E-01  1.2399E+01
                               -3.4033E-01  3.3200E+01 -3.6148E+01  2.5147E+03

           1    2.34002E+01     7.1829E-02  1.2259E-02  1.2760E-01  1.4694E-01
ac ID =   33377                -6.9990E-01 -1.2493E+01 -3.0824E-01  1.2516E+01
                               -3.4228E-01  3.3360E+01 -3.6122E+01  2.5147E+03

           1    2.35001E+01     7.5927E-02  5.3881E-04  9.5355E-02  1.2189E-01
ac ID =   33377                -2.4743E-01 -1.2710E+01 -2.2115E-01  1.2715E+01
                               -3.4423E-01  3.3519E+01 -3.6096E+01  2.5147E+03

           1    2.36001E+01     9.4114E-02 -1.6595E-02  7.6214E-02  1.2224E-01
ac ID =   33377                 8.8291E-02 -1.2532E+01 -1.8091E-01  1.2533E+01
                               -3.4616E-01  3.3678E+01 -3.6070E+01  2.5147E+03

           1    2.37001E+01     8.7421E-02  7.5423E-03  4.0969E-02  9.6839E-02
ac ID =   33377                -5.1360E-01 -1.2722E+01 -2.5965E-01  1.2735E+01
                               -3.4815E-01  3.3837E+01 -3.6044E+01  2.5147E+03

           1    2.38001E+01     8.5840E-02  1.0555E-02  1.7243E-02  8.8189E-02
ac ID =   33377                -5.2972E-01 -1.2694E+01 -4.0525E-01  1.2711E+01
                               -3.5018E-01  3.3996E+01 -3.6018E+01  2.5147E+03

           1    2.39001E+01     1.0624E-01 -7.6066E-03 -1.4826E-02  1.0754E-01
ac ID =   33377                -4.5532E-02 -1.2281E+01 -3.4487E-01  1.2286E+01
                               -3.5218E-01  3.4154E+01 -3.5992E+01  2.5147E+03

           1    2.40001E+01     9.2931E-02 -1.9189E-03 -3.1075E-02  9.8008E-02
ac ID =   33377                -1.7624E-01 -1.2454E+01 -2.9313E-01  1.2459E+01
                               -3.5419E-01  3.4313E+01 -3.5965E+01  2.5147E+03

           1    2.41001E+01     1.0749E-01  2.0564E-02 -6.4356E-02  1.2696E-01
ac ID =   33377                -7.5322E-01 -1.2372E+01 -2.5775E-01  1.2397E+01
                               -3.5625E-01  3.4471E+01 -3.5939E+01  2.5147E+03

           1    2.42001E+01     1.1808E-01  8.0303E-03 -8.7751E-02  1.4733E-01
ac ID =   33377                -3.5835E-01 -1.2149E+01 -1.6607E-01  1.2156E+01
                               -3.5825E-01  3.4629E+01 -3.5912E+01  2.5147E+03

           1    2.43001E+01     1.1839E-01 -1.7508E-02 -1.0952E-01  1.6223E-01
ac ID =   33377                 1.2144E-01 -1.2404E+01 -2.2035E-01  1.2407E+01
                               -3.6019E-01  3.4787E+01 -3.5884E+01  2.5147E+03

           1    2.44001E+01     1.2074E-01  1.2498E-02 -1.4029E-01  1.8551E-01
ac ID =   33377                -5.9700E-01 -1.2095E+01 -2.9107E-01  1.2113E+01
                               -3.6223E-01  3.4944E+01 -3.5856E+01  2.5147E+03

           1    2.45005E+01     1.3229E-01  1.5216E-02 -1.7031E-01  2.1619E-01
ac ID =   33377                -4.7963E-01 -1.1979E+01 -2.6984E-01  1.1992E+01
                               -3.6427E-01  3.5102E+01 -3.5827E+01  2.5147E+03

           1    2.46005E+01     1.2782E-01 -1.4149E-02 -1.9676E-01  2.3506E-01
ac ID =   33377                 1.2263E-01 -1.1967E+01 -2.8750E-01  1.1971E+01
                               -3.6622E-01  3.5259E+01 -3.5798E+01  2.5147E+03

           1    2.47005E+01     1.3788E-01 -7.6416E-03 -2.0590E-01  2.4792E-01
ac ID =   33377                 3.3941E-04 -1.1884E+01 -2.5066E-01  1.1886E+01
                               -3.6821E-01  3.5416E+01 -3.5768E+01  2.5147E+03

           1    2.48005E+01     1.3496E-01  1.0611E-02 -2.1608E-01  2.5498E-01
ac ID =   33377                -4.5480E-01 -1.1986E+01 -1.9400E-01  1.1996E+01
                               -3.7026E-01  3.5572E+01 -3.5738E+01  2.5147E+03

           1    2.49005E+01     1.5285E-01 -3.2090E-03 -2.4360E-01  2.8760E-01
ac ID =   33377                -2.8926E-02 -1.1735E+01 -3.3906E-01  1.1740E+01
                               -3.7231E-01  3.5728E+01 -3.5707E+01  2.5147E+03

