 LSTC 50th% Full_FE H-III Dummy (Beta Version, February 17, 2019)        
                    ls-dyna smp s R16 R16.0_619_d222963 date 03/18/2025

{BEGIN LEGEND}
 Entity #        Title
    22626                                                                                     
{END LEGEND}




 n o d a l   p r i n t   o u t   f o r   t i m e  s t e p       1                              ( at time 0.0000000E+00 )

 nodal point  x-disp     y-disp      z-disp      x-vel       y-vel       z-vel      x-accl      y-accl      z-accl      x-coor      y-coor      z-coor
    22626  0.00000E+00 0.00000E+00 0.00000E+00 0.00000E+00 0.00000E+00 0.00000E+00 0.00000E+00 0.00000E+00 0.00000E+00 4.65938E+00-2.81908E+01-4.49817E+01



 n o d a l   p r i n t   o u t   f o r   t i m e  s t e p       1                              ( at time 0.0000000E+00 )

 nodal point  x-rot      y-rot       z-rot       x-rot vel   y-rot vel   z-rot vel   x-rot acc   y-rot acc   z-rot acc
    22626  0.00000E+00 0.00000E+00 0.00000E+00 0.00000E+00 0.00000E+00 0.00000E+00 0.00000E+00 0.00000E+00 0.00000E+00



 n o d a l   p r i n t   o u t   f o r   t i m e  s t e p     201                              ( at time 9.9989993E-02 )

 nodal point  x-disp     y-disp      z-disp      x-vel       y-vel       z-vel      x-accl      y-accl      z-accl      x-coor      y-coor      z-coor
    22626  2.73574E-07 1.73669E-06-5.34278E-05 4.19751E-05 2.55596E-04-1.46819E-03 4.19793E-04 2.55621E-03-1.46834E-02 4.65938E+00-2.81908E+01-4.49818E+01



 n o d a l   p r i n t   o u t   f o r   t i m e  s t e p     201                              ( at time 9.9989993E-02 )

 nodal point  x-rot      y-rot       z-rot       x-rot vel   y-rot vel   z-rot vel   x-rot acc   y-rot acc   z-rot acc
    22626 -5.98981E-08-8.38469E-09-5.45922E-09-5.86954E-06-9.69953E-07-9.27112E-07-5.87013E-05-9.70050E-06-9.27205E-06



 n o d a l   p r i n t   o u t   f o r   t i m e  s t e p     401                              ( at time 1.9997999E-01 )

 nodal point  x-disp     y-disp      z-disp      x-vel       y-vel       z-vel      x-accl      y-accl      z-accl      x-coor      y-coor      z-coor
    22626  1.73020E-05 3.61735E-04-6.67575E-04 3.03201E-05 7.81098E-03-1.21542E-02-1.16561E-04 7.55614E-02-1.06871E-01 4.65939E+00-2.81905E+01-4.49824E+01



 n o d a l   p r i n t   o u t   f o r   t i m e  s t e p     401                              ( at time 1.9997999E-01 )

 nodal point  x-rot      y-rot       z-rot       x-rot vel   y-rot vel   z-rot vel   x-rot acc   y-rot acc   z-rot acc
    22626 -2.81966E-06-3.37103E-07-3.34441E-07-3.94234E-05-1.76055E-06-2.28854E-06-3.35572E-04-7.90680E-06-1.36156E-05



 n o d a l   p r i n t   o u t   f o r   t i m e  s t e p     601                              ( at time 2.9996998E-01 )

 nodal point  x-disp     y-disp      z-disp      x-vel       y-vel       z-vel      x-accl      y-accl      z-accl      x-coor      y-coor      z-coor
    22626  2.73569E-05 1.24010E-03-2.33843E-03 4.20807E-04 8.45031E-03-1.92574E-02 3.90526E-03 6.39398E-03-7.10395E-02 4.65940E+00-2.81896E+01-4.49841E+01



 n o d a l   p r i n t   o u t   f o r   t i m e  s t e p     601                              ( at time 2.9996998E-01 )

 nodal point  x-rot      y-rot       z-rot       x-rot vel   y-rot vel   z-rot vel   x-rot acc   y-rot acc   z-rot acc
    22626 -5.38429E-06-3.90334E-07-6.42412E-07-1.54678E-05-5.50625E-06-6.71088E-06 2.39580E-04-3.74607E-05-4.42279E-05



 n o d a l   p r i n t   o u t   f o r   t i m e  s t e p     801                              ( at time 3.9995997E-01 )

 nodal point  x-disp     y-disp      z-disp      x-vel       y-vel       z-vel      x-accl      y-accl      z-accl      x-coor      y-coor      z-coor
    22626  2.60362E-05 2.16243E-03-4.28287E-03-3.15298E-04 1.07401E-02-2.10853E-02-7.36178E-03 2.28997E-02-1.82804E-02 4.65940E+00-2.81887E+01-4.49860E+01



 n o d a l   p r i n t   o u t   f o r   t i m e  s t e p     801                              ( at time 3.9995997E-01 )

 nodal point  x-rot      y-rot       z-rot       x-rot vel   y-rot vel   z-rot vel   x-rot acc   y-rot acc   z-rot acc
    22626 -7.61674E-06-1.25009E-06-9.81287E-07-4.48870E-05-6.19924E-06-1.48249E-06-2.94221E-04-6.93062E-06 5.22892E-05



 n o d a l   p r i n t   o u t   f o r   t i m e  s t e p    1001                              ( at time 4.9994997E-01 )

 nodal point  x-disp     y-disp      z-disp      x-vel       y-vel       z-vel      x-accl      y-accl      z-accl      x-coor      y-coor      z-coor
    22626  3.71171E-06 3.43652E-03-6.74478E-03-2.40329E-04 1.41503E-02-2.87074E-02 7.49765E-04 3.41061E-02-7.62291E-02 4.65938E+00-2.81874E+01-4.49885E+01



 n o d a l   p r i n t   o u t   f o r   t i m e  s t e p    1001                              ( at time 4.9994997E-01 )

 nodal point  x-rot      y-rot       z-rot       x-rot vel   y-rot vel   z-rot vel   x-rot acc   y-rot acc   z-rot acc
    22626 -1.35613E-05-1.16573E-06-9.49500E-07-8.41522E-05 3.15704E-06 4.11394E-06-3.92692E-04 9.35722E-05 5.59699E-05



 n o d a l   p r i n t   o u t   f o r   t i m e  s t e p    1201                              ( at time 5.9993996E-01 )

 nodal point  x-disp     y-disp      z-disp      x-vel       y-vel       z-vel      x-accl      y-accl      z-accl      x-coor      y-coor      z-coor
    22626 -8.89708E-07 5.01223E-03-9.71619E-03 4.49950E-05 1.66991E-02-3.09901E-02 2.85352E-03 2.54907E-02-2.28293E-02 4.65937E+00-2.81858E+01-4.49914E+01



 n o d a l   p r i n t   o u t   f o r   t i m e  s t e p    1201                              ( at time 5.9993996E-01 )

 nodal point  x-rot      y-rot       z-rot       x-rot vel   y-rot vel   z-rot vel   x-rot acc   y-rot acc   z-rot acc
    22626 -2.02874E-05-8.86682E-07-9.57997E-07-5.90394E-05 3.86833E-06-1.98056E-06 2.51154E-04 7.11358E-06-6.09511E-05



 n o d a l   p r i n t   o u t   f o r   t i m e  s t e p    1401                              ( at time 6.9992995E-01 )

 nodal point  x-disp     y-disp      z-disp      x-vel       y-vel       z-vel      x-accl      y-accl      z-accl      x-coor      y-coor      z-coor
    22626 -5.09817E-05 6.85043E-03-1.31710E-02-4.85994E-04 1.96579E-02-3.89657E-02-5.31042E-03 2.95908E-02-7.97633E-02 4.65932E+00-2.81840E+01-4.49949E+01



 n o d a l   p r i n t   o u t   f o r   t i m e  s t e p    1401                              ( at time 6.9992995E-01 )

 nodal point  x-rot      y-rot       z-rot       x-rot vel   y-rot vel   z-rot vel   x-rot acc   y-rot acc   z-rot acc
    22626 -2.62095E-05-9.01286E-07-6.32347E-07-7.09705E-05 3.09031E-07 3.80062E-06-1.19323E-04-3.55966E-05 5.78175E-05



 n o d a l   p r i n t   o u t   f o r   t i m e  s t e p    1601                              ( at time 7.9991994E-01 )

 nodal point  x-disp     y-disp      z-disp      x-vel       y-vel       z-vel      x-accl      y-accl      z-accl      x-coor      y-coor      z-coor
    22626 -8.02710E-05 8.98677E-03-1.74643E-02-5.00427E-04 2.21626E-02-4.51241E-02-1.44351E-04 2.50495E-02-6.15909E-02 4.65929E+00-2.81818E+01-4.49992E+01



 n o d a l   p r i n t   o u t   f o r   t i m e  s t e p    1601                              ( at time 7.9991994E-01 )

 nodal point  x-rot      y-rot       z-rot       x-rot vel   y-rot vel   z-rot vel   x-rot acc   y-rot acc   z-rot acc
    22626 -3.43991E-05-8.78169E-07-5.14779E-07-9.20701E-05-4.80662E-06 1.60806E-06-2.11017E-04-5.11616E-05-2.19278E-05



 n o d a l   p r i n t   o u t   f o r   t i m e  s t e p    1801                              ( at time 8.9990994E-01 )

 nodal point  x-disp     y-disp      z-disp      x-vel       y-vel       z-vel      x-accl      y-accl      z-accl      x-coor      y-coor      z-coor
    22626 -1.16891E-04 1.12542E-02-2.19906E-02-2.87725E-04 2.40501E-02-4.55873E-02 2.12724E-03 1.88767E-02-4.63231E-03 4.65926E+00-2.81796E+01-4.50037E+01



 n o d a l   p r i n t   o u t   f o r   t i m e  s t e p    1801                              ( at time 8.9990994E-01 )

 nodal point  x-rot      y-rot       z-rot       x-rot vel   y-rot vel   z-rot vel   x-rot acc   y-rot acc   z-rot acc
    22626 -4.28172E-05-9.57997E-07-5.01460E-07-8.23768E-05 1.93301E-06-6.56661E-07 9.69430E-05 6.74031E-05-2.26494E-05



 n o d a l   p r i n t   o u t   f o r   t i m e  s t e p    2001                              ( at time 9.9989993E-01 )

 nodal point  x-disp     y-disp      z-disp      x-vel       y-vel       z-vel      x-accl      y-accl      z-accl      x-coor      y-coor      z-coor
    22626 -1.52035E-04 1.37912E-02-2.67304E-02-3.35055E-05 2.64953E-02-5.00344E-02 2.54245E-03 2.44543E-02-4.44755E-02 4.65922E+00-2.81770E+01-4.50084E+01



 n o d a l   p r i n t   o u t   f o r   t i m e  s t e p    2001                              ( at time 9.9989993E-01 )

 nodal point  x-rot      y-rot       z-rot       x-rot vel   y-rot vel   z-rot vel   x-rot acc   y-rot acc   z-rot acc
    22626 -5.18499E-05-9.08484E-07-4.37705E-07-1.06166E-04 1.26308E-06-3.05715E-06-2.37913E-04-6.70005E-06-2.40073E-05



 n o d a l   p r i n t   o u t   f o r   t i m e  s t e p    2201                              ( at time 1.0998899E+00 )

 nodal point  x-disp     y-disp      z-disp      x-vel       y-vel       z-vel      x-accl      y-accl      z-accl      x-coor      y-coor      z-coor
    22626 -1.59795E-04 1.65322E-02-3.20559E-02-3.44873E-04 2.88818E-02-5.60848E-02-3.11399E-03 2.38677E-02-6.05097E-02 4.65921E+00-2.81743E+01-4.50138E+01



 n o d a l   p r i n t   o u t   f o r   t i m e  s t e p    2201                              ( at time 1.0998899E+00 )

 nodal point  x-rot      y-rot       z-rot       x-rot vel   y-rot vel   z-rot vel   x-rot acc   y-rot acc   z-rot acc
    22626 -6.29475E-05-1.00472E-06-7.49661E-07-1.03706E-04-7.65453E-06-2.01969E-06 2.45967E-05-8.91850E-05 1.03757E-05



 n o d a l   p r i n t   o u t   f o r   t i m e  s t e p    2401                              ( at time 1.1998799E+00 )

 nodal point  x-disp     y-disp      z-disp      x-vel       y-vel       z-vel      x-accl      y-accl      z-accl      x-coor      y-coor      z-coor
    22626 -1.89775E-04 1.94752E-02-3.79327E-02-1.94217E-04 3.02262E-02-6.12081E-02 1.50671E-03 1.34456E-02-5.12385E-02 4.65919E+00-2.81714E+01-4.50197E+01



 n o d a l   p r i n t   o u t   f o r   t i m e  s t e p    2401                              ( at time 1.1998799E+00 )

 nodal point  x-rot      y-rot       z-rot       x-rot vel   y-rot vel   z-rot vel   x-rot acc   y-rot acc   z-rot acc
    22626 -7.29520E-05-1.61530E-06-9.90340E-07-1.01295E-04-7.21074E-06-3.08820E-06 2.41159E-05 4.43832E-06-1.06861E-05



 n o d a l   p r i n t   o u t   f o r   t i m e  s t e p    2601                              ( at time 1.2998699E+00 )

 nodal point  x-disp     y-disp      z-disp      x-vel       y-vel       z-vel      x-accl      y-accl      z-accl      x-coor      y-coor      z-coor
    22626 -2.23850E-04 2.26249E-02-4.42079E-02-2.47705E-04 3.26024E-02-6.40521E-02-5.34933E-04 2.37644E-02-2.84420E-02 4.65915E+00-2.81682E+01-4.50259E+01



 n o d a l   p r i n t   o u t   f o r   t i m e  s t e p    2601                              ( at time 1.2998699E+00 )

 nodal point  x-rot      y-rot       z-rot       x-rot vel   y-rot vel   z-rot vel   x-rot acc   y-rot acc   z-rot acc
    22626 -8.39941E-05-2.17132E-06-1.24585E-06-1.29365E-04-7.65942E-09-1.37162E-06-2.80728E-04 7.20380E-05 1.71675E-05



 n o d a l   p r i n t   o u t   f o r   t i m e  s t e p    2801                              ( at time 1.3998599E+00 )

 nodal point  x-disp     y-disp      z-disp      x-vel       y-vel       z-vel      x-accl      y-accl      z-accl      x-coor      y-coor      z-coor
    22626 -2.51464E-04 2.59924E-02-5.07122E-02-4.52154E-04 3.45143E-02-6.66705E-02-2.04470E-03 1.91209E-02-2.61869E-02 4.65912E+00-2.81648E+01-4.50324E+01



 n o d a l   p r i n t   o u t   f o r   t i m e  s t e p    2801                              ( at time 1.3998599E+00 )

 nodal point  x-rot      y-rot       z-rot       x-rot vel   y-rot vel   z-rot vel   x-rot acc   y-rot acc   z-rot acc
    22626 -9.73995E-05-2.01166E-06-1.34488E-06-1.36769E-04-2.49351E-07 1.78692E-06-7.40502E-05-2.41715E-06 3.15885E-05



 n o d a l   p r i n t   o u t   f o r   t i m e  s t e p    3001                              ( at time 1.4998499E+00 )

 nodal point  x-disp     y-disp      z-disp      x-vel       y-vel       z-vel      x-accl      y-accl      z-accl      x-coor      y-coor      z-coor
    22626 -2.96333E-04 2.95911E-02-5.77243E-02-4.50218E-04 3.72818E-02-7.39874E-02 1.93635E-05 2.76779E-02-7.31766E-02 4.65908E+00-2.81612E+01-4.50394E+01



 n o d a l   p r i n t   o u t   f o r   t i m e  s t e p    3001                              ( at time 1.4998499E+00 )

 nodal point  x-rot      y-rot       z-rot       x-rot vel   y-rot vel   z-rot vel   x-rot acc   y-rot acc   z-rot acc
    22626 -1.10707E-04-2.03148E-06-1.27019E-06-1.28573E-04-1.00413E-06-1.72529E-06 8.19668E-05-7.54856E-06-3.51256E-05



 n o d a l   p r i n t   o u t   f o r   t i m e  s t e p    3201                              ( at time 1.5998399E+00 )

 nodal point  x-disp     y-disp      z-disp      x-vel       y-vel       z-vel      x-accl      y-accl      z-accl      x-coor      y-coor      z-coor
    22626 -3.60092E-04 3.34891E-02-6.54465E-02-5.85028E-04 4.05385E-02-7.97095E-02-1.34824E-03 3.25698E-02-5.72263E-02 4.65901E+00-2.81573E+01-4.50472E+01



 n o d a l   p r i n t   o u t   f o r   t i m e  s t e p    3201                              ( at time 1.5998399E+00 )

 nodal point  x-rot      y-rot       z-rot       x-rot vel   y-rot vel   z-rot vel   x-rot acc   y-rot acc   z-rot acc
    22626 -1.23312E-04-2.14908E-06-1.09682E-06-1.34894E-04-2.90673E-06 3.10694E-06-6.32126E-05-1.90279E-05 4.83271E-05



 n o d a l   p r i n t   o u t   f o r   t i m e  s t e p    3401                              ( at time 1.6998299E+00 )

 nodal point  x-disp     y-disp      z-disp      x-vel       y-vel       z-vel      x-accl      y-accl      z-accl      x-coor      y-coor      z-coor
    22626 -4.21739E-04 3.76416E-02-7.35823E-02-7.25404E-04 4.22407E-02-8.25954E-02-1.40390E-03 1.70234E-02-2.88621E-02 4.65895E+00-2.81532E+01-4.50553E+01



 n o d a l   p r i n t   o u t   f o r   t i m e  s t e p    3401                              ( at time 1.6998299E+00 )

 nodal point  x-rot      y-rot       z-rot       x-rot vel   y-rot vel   z-rot vel   x-rot acc   y-rot acc   z-rot acc
    22626 -1.37612E-04-2.15229E-06-9.08423E-07-1.47654E-04 1.59432E-06 4.03078E-06-1.27612E-04 4.50150E-05 9.23933E-06



 n o d a l   p r i n t   o u t   f o r   t i m e  s t e p    3601                              ( at time 1.7998199E+00 )

 nodal point  x-disp     y-disp      z-disp      x-vel       y-vel       z-vel      x-accl      y-accl      z-accl      x-coor      y-coor      z-coor
    22626 -4.84850E-04 4.19001E-02-8.19598E-02-5.06211E-04 4.32853E-02-8.48724E-02 2.19215E-03 1.04475E-02-2.27725E-02 4.65889E+00-2.81489E+01-4.50637E+01



 n o d a l   p r i n t   o u t   f o r   t i m e  s t e p    3601                              ( at time 1.7998199E+00 )

 nodal point  x-rot      y-rot       z-rot       x-rot vel   y-rot vel   z-rot vel   x-rot acc   y-rot acc   z-rot acc
    22626 -1.52822E-04-2.06442E-06-7.77159E-07-1.49756E-04 1.58332E-06-1.45971E-06-2.10250E-05-1.09960E-07-5.49104E-05



 n o d a l   p r i n t   o u t   f o r   t i m e  s t e p    3801                              ( at time 1.8998099E+00 )

 nodal point  x-disp     y-disp      z-disp      x-vel       y-vel       z-vel      x-accl      y-accl      z-accl      x-coor      y-coor      z-coor
    22626 -5.44146E-04 4.63775E-02-9.06359E-02-5.19956E-04 4.60714E-02-8.88744E-02-1.37458E-04 2.78632E-02-4.00240E-02 4.65883E+00-2.81445E+01-4.50724E+01



 n o d a l   p r i n t   o u t   f o r   t i m e  s t e p    3801                              ( at time 1.8998099E+00 )

 nodal point  x-rot      y-rot       z-rot       x-rot vel   y-rot vel   z-rot vel   x-rot acc   y-rot acc   z-rot acc
    22626 -1.67677E-04-1.85541E-06-6.47440E-07-1.49963E-04-1.61997E-06-5.10624E-07-2.07182E-06-3.20362E-05 9.49177E-06



 n o d a l   p r i n t   o u t   f o r   t i m e  s t e p    4001                              ( at time 1.9997999E+00 )

 nodal point  x-disp     y-disp      z-disp      x-vel       y-vel       z-vel      x-accl      y-accl      z-accl      x-coor      y-coor      z-coor
    22626 -5.94939E-04 5.10272E-02-9.97454E-02-5.47766E-04 4.71640E-02-9.31120E-02-2.78134E-04 1.09280E-02-4.23805E-02 4.65878E+00-2.81398E+01-4.50815E+01



 n o d a l   p r i n t   o u t   f o r   t i m e  s t e p    4001                              ( at time 1.9997999E+00 )

 nodal point  x-rot      y-rot       z-rot       x-rot vel   y-rot vel   z-rot vel   x-rot acc   y-rot acc   z-rot acc
    22626 -1.82768E-04-2.09111E-06-6.97970E-07-1.56051E-04-4.70419E-06-2.20378E-07-6.08833E-05-3.08452E-05 2.90275E-06



 n o d a l   p r i n t   o u t   f o r   t i m e  s t e p    4201                              ( at time 2.0997899E+00 )

 nodal point  x-disp     y-disp      z-disp      x-vel       y-vel       z-vel      x-accl      y-accl      z-accl      x-coor      y-coor      z-coor
    22626 -6.49014E-04 5.57836E-02-1.09162E-01-5.62647E-04 4.81956E-02-9.53045E-02-1.48819E-04 1.03164E-02-2.19263E-02 4.65873E+00-2.81350E+01-4.50909E+01



 n o d a l   p r i n t   o u t   f o r   t i m e  s t e p    4201                              ( at time 2.0997899E+00 )

 nodal point  x-rot      y-rot       z-rot       x-rot vel   y-rot vel   z-rot vel   x-rot acc   y-rot acc   z-rot acc
    22626 -1.97947E-04-2.48135E-06-8.62490E-07-1.49995E-04-1.42393E-06 2.06034E-06 6.05611E-05 3.28059E-05 2.28095E-05



 n o d a l   p r i n t   o u t   f o r   t i m e  s t e p    4401                              ( at time 2.1997798E+00 )

 nodal point  x-disp     y-disp      z-disp      x-vel       y-vel       z-vel      x-accl      y-accl      z-accl      x-coor      y-coor      z-coor
    22626 -7.07769E-04 6.06674E-02-1.18761E-01-4.95864E-04 4.91685E-02-9.67351E-02 6.67893E-04 9.73003E-03-1.43076E-02 4.65867E+00-2.81302E+01-4.51005E+01



 n o d a l   p r i n t   o u t   f o r   t i m e  s t e p    4401                              ( at time 2.1997798E+00 )

 nodal point  x-rot      y-rot       z-rot       x-rot vel   y-rot vel   z-rot vel   x-rot acc   y-rot acc   z-rot acc
    22626 -2.13319E-04-2.58978E-06-8.59196E-07-1.59237E-04-1.62097E-06-9.76798E-07-9.24258E-05-1.97061E-06-3.03744E-05



 n o d a l   p r i n t   o u t   f o r   t i m e  s t e p    4601                              ( at time 2.2997698E+00 )

 nodal point  x-disp     y-disp      z-disp      x-vel       y-vel       z-vel      x-accl      y-accl      z-accl      x-coor      y-coor      z-coor
    22626 -7.62903E-04 6.56143E-02-1.28510E-01-6.47938E-04 5.01819E-02-9.87391E-02-1.52089E-03 1.01352E-02-2.00426E-02 4.65861E+00-2.81252E+01-4.51102E+01



 n o d a l   p r i n t   o u t   f o r   t i m e  s t e p    4601                              ( at time 2.2997698E+00 )

 nodal point  x-rot      y-rot       z-rot       x-rot vel   y-rot vel   z-rot vel   x-rot acc   y-rot acc   z-rot acc
    22626 -2.29837E-04-2.52201E-06-8.67123E-07-1.61331E-04 9.25523E-07-9.65963E-07-2.09395E-05 2.54674E-05 1.08362E-07



 n o d a l   p r i n t   o u t   f o r   t i m e  s t e p    4801                              ( at time 2.3997598E+00 )

 nodal point  x-disp     y-disp      z-disp      x-vel       y-vel       z-vel      x-accl      y-accl      z-accl      x-coor      y-coor      z-coor
    22626 -8.37332E-04 7.07390E-02-1.38609E-01-7.68485E-04 5.20285E-02-1.03267E-01-1.20559E-03 1.84677E-02-4.52783E-02 4.65854E+00-2.81201E+01-4.51203E+01



 n o d a l   p r i n t   o u t   f o r   t i m e  s t e p    4801                              ( at time 2.3997598E+00 )

 nodal point  x-rot      y-rot       z-rot       x-rot vel   y-rot vel   z-rot vel   x-rot acc   y-rot acc   z-rot acc
    22626 -2.45591E-04-2.51435E-06-5.95174E-07-1.55373E-04-1.05478E-07 4.16180E-06 5.95846E-05-1.03111E-05 5.12828E-05



 n o d a l   p r i n t   o u t   f o r   t i m e  s t e p    5001                              ( at time 2.4997498E+00 )

 nodal point  x-disp     y-disp      z-disp      x-vel       y-vel       z-vel      x-accl      y-accl      z-accl      x-coor      y-coor      z-coor
    22626 -9.18557E-04 7.60402E-02-1.49107E-01-9.20930E-04 5.34323E-02-1.05951E-01-1.52460E-03 1.40398E-02-2.68522E-02 4.65846E+00-2.81148E+01-4.51308E+01



 n o d a l   p r i n t   o u t   f o r   t i m e  s t e p    5001                              ( at time 2.4997498E+00 )

 nodal point  x-rot      y-rot       z-rot       x-rot vel   y-rot vel   z-rot vel   x-rot acc   y-rot acc   z-rot acc
    22626 -2.61161E-04-2.39374E-06-3.32924E-07-1.54741E-04 1.77771E-06 4.38266E-06 6.32168E-06 1.88337E-05 2.20883E-06



 n o d a l   p r i n t   o u t   f o r   t i m e  s t e p    5201                              ( at time 2.5997398E+00 )

 nodal point  x-disp     y-disp      z-disp      x-vel       y-vel       z-vel      x-accl      y-accl      z-accl      x-coor      y-coor      z-coor
    22626 -1.00934E-03 8.13921E-02-1.59710E-01-9.92459E-04 5.34925E-02-1.06032E-01-7.15367E-04 6.01993E-04-8.00795E-04 4.65837E+00-2.81094E+01-4.51414E+01



 n o d a l   p r i n t   o u t   f o r   t i m e  s t e p    5201                              ( at time 2.5997398E+00 )

 nodal point  x-rot      y-rot       z-rot       x-rot vel   y-rot vel   z-rot vel   x-rot acc   y-rot acc   z-rot acc
    22626 -2.76671E-04-2.06635E-06 5.91873E-08-1.51726E-04 5.17497E-06 4.93330E-06 3.01569E-05 3.39761E-05 5.50690E-06



 n o d a l   p r i n t   o u t   f o r   t i m e  s t e p    5401                              ( at time 2.6997298E+00 )

 nodal point  x-disp     y-disp      z-disp      x-vel       y-vel       z-vel      x-accl      y-accl      z-accl      x-coor      y-coor      z-coor
    22626 -1.10744E-03 8.67282E-02-1.70314E-01-8.14303E-04 5.35622E-02-1.06232E-01 1.78174E-03 6.96735E-04-2.00090E-03 4.65827E+00-2.81041E+01-4.51520E+01



 n o d a l   p r i n t   o u t   f o r   t i m e  s t e p    5401                              ( at time 2.6997298E+00 )

 nodal point  x-rot      y-rot       z-rot       x-rot vel   y-rot vel   z-rot vel   x-rot acc   y-rot acc   z-rot acc
    22626 -2.92384E-04-1.62851E-06 5.84645E-07-1.63138E-04 5.42679E-06 3.58010E-06-1.14138E-04 2.51840E-06-1.35333E-05



 n o d a l   p r i n t   o u t   f o r   t i m e  s t e p    5601                              ( at time 2.7997198E+00 )

 nodal point  x-disp     y-disp      z-disp      x-vel       y-vel       z-vel      x-accl      y-accl      z-accl      x-coor      y-coor      z-coor
    22626 -1.19448E-03 9.21214E-02-1.80983E-01-8.83733E-04 5.42816E-02-1.07478E-01-6.94374E-04 7.19482E-03-1.24606E-02 4.65818E+00-2.80987E+01-4.51627E+01



 n o d a l   p r i n t   o u t   f o r   t i m e  s t e p    5601                              ( at time 2.7997198E+00 )

 nodal point  x-rot      y-rot       z-rot       x-rot vel   y-rot vel   z-rot vel   x-rot acc   y-rot acc   z-rot acc
    22626 -3.07870E-04-1.11678E-06 1.00086E-06-1.44446E-04 3.09765E-06 4.34598E-06 1.86936E-04-2.32937E-05 7.65962E-06



 n o d a l   p r i n t   o u t   f o r   t i m e  s t e p    5801                              ( at time 2.8997098E+00 )

 nodal point  x-disp     y-disp      z-disp      x-vel       y-vel       z-vel      x-accl      y-accl      z-accl      x-coor      y-coor      z-coor
    22626 -1.27570E-03 9.75421E-02-1.91832E-01-7.40908E-04 5.41934E-02-1.09474E-01 1.42839E-03-8.82499E-04-1.99660E-02 4.65810E+00-2.80933E+01-4.51736E+01



 n o d a l   p r i n t   o u t   f o r   t i m e  s t e p    5801                              ( at time 2.8997098E+00 )

 nodal point  x-rot      y-rot       z-rot       x-rot vel   y-rot vel   z-rot vel   x-rot acc   y-rot acc   z-rot acc
    22626 -3.21822E-04-9.23537E-07 1.29981E-06-1.39957E-04 5.78997E-07 3.64876E-06 4.49021E-05-2.51891E-05-6.97295E-06



 n o d a l   p r i n t   o u t   f o r   t i m e  s t e p    6001                              ( at time 2.9996998E+00 )

 nodal point  x-disp     y-disp      z-disp      x-vel       y-vel       z-vel      x-accl      y-accl      z-accl      x-coor      y-coor      z-coor
    22626 -1.35924E-03 1.02933E-01-2.02795E-01-7.27806E-04 5.35803E-02-1.09338E-01 1.31031E-04-6.13135E-03 1.36441E-03 4.65802E+00-2.80879E+01-4.51845E+01



 n o d a l   p r i n t   o u t   f o r   t i m e  s t e p    6001                              ( at time 2.9996998E+00 )

 nodal point  x-rot      y-rot       z-rot       x-rot vel   y-rot vel   z-rot vel   x-rot acc   y-rot acc   z-rot acc
    22626 -3.36600E-04-8.84535E-07 1.48343E-06-1.50115E-04 4.05936E-07 2.48081E-06-1.01593E-04-1.73079E-06-1.16806E-05



 n o d a l   p r i n t   o u t   f o r   t i m e  s t e p    6201                              ( at time 3.0996898E+00 )

 nodal point  x-disp     y-disp      z-disp      x-vel       y-vel       z-vel      x-accl      y-accl      z-accl      x-coor      y-coor      z-coor
    22626 -1.42812E-03 1.08282E-01-2.13684E-01-7.48481E-04 5.35988E-02-1.08917E-01-2.06765E-04 1.85501E-04 4.20427E-03 4.65795E+00-2.80825E+01-4.51954E+01



 n o d a l   p r i n t   o u t   f o r   t i m e  s t e p    6201                              ( at time 3.0996898E+00 )

 nodal point  x-rot      y-rot       z-rot       x-rot vel   y-rot vel   z-rot vel   x-rot acc   y-rot acc   z-rot acc
    22626 -3.51634E-04-8.10698E-07 1.74278E-06-1.49372E-04 9.57397E-08 4.45928E-06 7.43067E-06-3.10228E-06 1.97867E-05



 n o d a l   p r i n t   o u t   f o r   t i m e  s t e p    6401                              ( at time 3.1996798E+00 )

 nodal point  x-disp     y-disp      z-disp      x-vel       y-vel       z-vel      x-accl      y-accl      z-accl      x-coor      y-coor      z-coor
    22626 -1.49385E-03 1.13660E-01-2.24665E-01-6.48566E-04 5.39999E-02-1.10856E-01 9.99243E-04 4.01108E-03-1.93891E-02 4.65788E+00-2.80772E+01-4.52064E+01



 n o d a l   p r i n t   o u t   f o r   t i m e  s t e p    6401                              ( at time 3.1996798E+00 )

 nodal point  x-rot      y-rot       z-rot       x-rot vel   y-rot vel   z-rot vel   x-rot acc   y-rot acc   z-rot acc
    22626 -3.66476E-04-6.86458E-07 1.89166E-06-1.42064E-04 1.44260E-06 1.16637E-06 7.30911E-05 1.34700E-05-3.29323E-05



 n o d a l   p r i n t   o u t   f o r   t i m e  s t e p    6601                              ( at time 3.2996698E+00 )

 nodal point  x-disp     y-disp      z-disp      x-vel       y-vel       z-vel      x-accl      y-accl      z-accl      x-coor      y-coor      z-coor
    22626 -1.57201E-03 1.19081E-01-2.35856E-01-8.26277E-04 5.42978E-02-1.12737E-01-1.77729E-03 2.97956E-03-1.88086E-02 4.65780E+00-2.80717E+01-4.52176E+01



 n o d a l   p r i n t   o u t   f o r   t i m e  s t e p    6601                              ( at time 3.2996698E+00 )

 nodal point  x-rot      y-rot       z-rot       x-rot vel   y-rot vel   z-rot vel   x-rot acc   y-rot acc   z-rot acc
    22626 -3.80620E-04-5.14764E-07 2.15036E-06-1.38050E-04 2.41069E-06 2.74188E-06 4.01362E-05 9.68183E-06 1.57567E-05



 n o d a l   p r i n t   o u t   f o r   t i m e  s t e p    6801                              ( at time 3.3996598E+00 )

 nodal point  x-disp     y-disp      z-disp      x-vel       y-vel       z-vel      x-accl      y-accl      z-accl      x-coor      y-coor      z-coor
    22626 -1.65948E-03 1.24510E-01-2.47149E-01-9.67687E-04 5.40618E-02-1.13026E-01-1.41423E-03-2.36084E-03-2.89625E-03 4.65772E+00-2.80663E+01-4.52289E+01



 n o d a l   p r i n t   o u t   f o r   t i m e  s t e p    6801                              ( at time 3.3996598E+00 )

 nodal point  x-rot      y-rot       z-rot       x-rot vel   y-rot vel   z-rot vel   x-rot acc   y-rot acc   z-rot acc
    22626 -3.94343E-04-3.68247E-07 2.50183E-06-1.37070E-04 3.66706E-06 6.19431E-06 9.80648E-06 1.25650E-05 3.45277E-05



 n o d a l   p r i n t   o u t   f o r   t i m e  s t e p    7001                              ( at time 3.4996498E+00 )

 nodal point  x-disp     y-disp      z-disp      x-vel       y-vel       z-vel      x-accl      y-accl      z-accl      x-coor      y-coor      z-coor
    22626 -1.75282E-03 1.29863E-01-2.58388E-01-9.60015E-04 5.31362E-02-1.11695E-01 7.67272E-05-9.25690E-03 1.33121E-02 4.65762E+00-2.80610E+01-4.52401E+01



 n o d a l   p r i n t   o u t   f o r   t i m e  s t e p    7001                              ( at time 3.4996498E+00 )

 nodal point  x-rot      y-rot       z-rot       x-rot vel   y-rot vel   z-rot vel   x-rot acc   y-rot acc   z-rot acc
    22626 -4.08259E-04-3.13066E-08 2.95209E-06-1.37240E-04 4.52674E-06 4.14629E-06-1.70740E-06 8.59763E-06-2.04823E-05



 n o d a l   p r i n t   o u t   f o r   t i m e  s t e p    7201                              ( at time 3.5996397E+00 )

 nodal point  x-disp     y-disp      z-disp      x-vel       y-vel       z-vel      x-accl      y-accl      z-accl      x-coor      y-coor      z-coor
    22626 -1.84497E-03 1.35143E-01-2.69489E-01-8.00383E-04 5.23034E-02-1.10758E-01 1.59648E-03-8.32817E-03 9.37400E-03 4.65753E+00-2.80557E+01-4.52512E+01



 n o d a l   p r i n t   o u t   f o r   t i m e  s t e p    7201                              ( at time 3.5996397E+00 )

 nodal point  x-rot      y-rot       z-rot       x-rot vel   y-rot vel   z-rot vel   x-rot acc   y-rot acc   z-rot acc
    22626 -4.21693E-04 6.03207E-07 3.50985E-06-1.35552E-04 6.15160E-06 3.49888E-06 1.68843E-05 1.62503E-05-6.47475E-06



 n o d a l   p r i n t   o u t   f o r   t i m e  s t e p    7401                              ( at time 3.6996297E+00 )

 nodal point  x-disp     y-disp      z-disp      x-vel       y-vel       z-vel      x-accl      y-accl      z-accl      x-coor      y-coor      z-coor
    22626 -1.92960E-03 1.40342E-01-2.80565E-01-8.05634E-04 5.17063E-02-1.10868E-01-5.25155E-05-5.97193E-03-1.10749E-03 4.65745E+00-2.80505E+01-4.52623E+01



 n o d a l   p r i n t   o u t   f o r   t i m e  s t e p    7401                              ( at time 3.6996297E+00 )

 nodal point  x-rot      y-rot       z-rot       x-rot vel   y-rot vel   z-rot vel   x-rot acc   y-rot acc   z-rot acc
    22626 -4.34931E-04 1.08251E-06 3.91710E-06-1.29086E-04 2.72241E-06 3.57876E-06 6.46684E-05-3.42953E-05 7.98872E-07



 n o d a l   p r i n t   o u t   f o r   t i m e  s t e p    7601                              ( at time 3.7996197E+00 )

 nodal point  x-disp     y-disp      z-disp      x-vel       y-vel       z-vel      x-accl      y-accl      z-accl      x-coor      y-coor      z-coor
    22626 -2.01371E-03 1.45486E-01-2.91629E-01-8.46239E-04 5.12252E-02-1.10267E-01-4.06092E-04-4.81103E-03 6.01636E-03 4.65736E+00-2.80453E+01-4.52733E+01



 n o d a l   p r i n t   o u t   f o r   t i m e  s t e p    7601                              ( at time 3.7996197E+00 )

 nodal point  x-rot      y-rot       z-rot       x-rot vel   y-rot vel   z-rot vel   x-rot acc   y-rot acc   z-rot acc
    22626 -4.47581E-04 1.12708E-06 4.07900E-06-1.31884E-04-1.49626E-06 8.14100E-08-2.79790E-05-4.21909E-05-3.49770E-05



 n o d a l   p r i n t   o u t   f o r   t i m e  s t e p    7801                              ( at time 3.8996097E+00 )

 nodal point  x-disp     y-disp      z-disp      x-vel       y-vel       z-vel      x-accl      y-accl      z-accl      x-coor      y-coor      z-coor
    22626 -2.09057E-03 1.50578E-01-3.02575E-01-7.24506E-04 5.06130E-02-1.08587E-01 1.21744E-03-6.12278E-03 1.67977E-02 4.65728E+00-2.80403E+01-4.52843E+01



 n o d a l   p r i n t   o u t   f o r   t i m e  s t e p    7801                              ( at time 3.8996097E+00 )

 nodal point  x-rot      y-rot       z-rot       x-rot vel   y-rot vel   z-rot vel   x-rot acc   y-rot acc   z-rot acc
    22626 -4.60863E-04 9.71726E-07 3.93287E-06-1.42236E-04-7.36897E-07-2.32233E-06-1.03531E-04 7.59438E-06-2.40398E-05



 n o d a l   p r i n t   o u t   f o r   t i m e  s t e p    8001                              ( at time 3.9995997E+00 )

 nodal point  x-disp     y-disp      z-disp      x-vel       y-vel       z-vel      x-accl      y-accl      z-accl      x-coor      y-coor      z-coor
    22626 -2.15124E-03 1.55643E-01-3.13315E-01-5.49291E-04 5.10239E-02-1.06504E-01 1.75233E-03 4.10889E-03 2.08334E-02 4.65722E+00-2.80352E+01-4.52950E+01



 n o d a l   p r i n t   o u t   f o r   t i m e  s t e p    8001                              ( at time 3.9995997E+00 )

 nodal point  x-rot      y-rot       z-rot       x-rot vel   y-rot vel   z-rot vel   x-rot acc   y-rot acc   z-rot acc
    22626 -4.74943E-04 8.00443E-07 3.53871E-06-1.41727E-04-1.49171E-06-3.59227E-06 5.08321E-06-7.54886E-06-1.27006E-05



 n o d a l   p r i n t   o u t   f o r   t i m e  s t e p    8201                              ( at time 4.0995897E+00 )

 nodal point  x-disp     y-disp      z-disp      x-vel       y-vel       z-vel      x-accl      y-accl      z-accl      x-coor      y-coor      z-coor
    22626 -2.21420E-03 1.60790E-01-3.23942E-01-6.98139E-04 5.19976E-02-1.06203E-01-1.48863E-03 9.73842E-03 3.01495E-03 4.65716E+00-2.80300E+01-4.53057E+01



 n o d a l   p r i n t   o u t   f o r   t i m e  s t e p    8201                              ( at time 4.0995897E+00 )

 nodal point  x-rot      y-rot       z-rot       x-rot vel   y-rot vel   z-rot vel   x-rot acc   y-rot acc   z-rot acc
    22626 -4.88338E-04 5.02888E-07 2.97987E-06-1.34851E-04-4.04599E-06-7.47902E-06 6.87755E-05-2.55454E-05-3.88713E-05



 n o d a l   p r i n t   o u t   f o r   t i m e  s t e p    8401                              ( at time 4.1995797E+00 )

 nodal point  x-disp     y-disp      z-disp      x-vel       y-vel       z-vel      x-accl      y-accl      z-accl      x-coor      y-coor      z-coor
    22626 -2.29591E-03 1.66082E-01-3.34539E-01-9.66960E-04 5.39719E-02-1.05513E-01-2.68847E-03 1.97445E-02 6.89621E-03 4.65708E+00-2.80247E+01-4.53163E+01



 n o d a l   p r i n t   o u t   f o r   t i m e  s t e p    8401                              ( at time 4.1995797E+00 )

 nodal point  x-rot      y-rot       z-rot       x-rot vel   y-rot vel   z-rot vel   x-rot acc   y-rot acc   z-rot acc
    22626 -5.02242E-04 2.09142E-08 1.93712E-06-1.44295E-04-3.26687E-06-1.09763E-05-9.44567E-05 7.79199E-06-3.49759E-05



 n o d a l   p r i n t   o u t   f o r   t i m e  s t e p    8601                              ( at time 4.2995697E+00 )

 nodal point  x-disp     y-disp      z-disp      x-vel       y-vel       z-vel      x-accl      y-accl      z-accl      x-coor      y-coor      z-coor
    22626 -2.39387E-03 1.71580E-01-3.45016E-01-9.23013E-04 5.61122E-02-1.03627E-01 4.39508E-04 2.14050E-02 1.88665E-02 4.65698E+00-2.80193E+01-4.53267E+01



 n o d a l   p r i n t   o u t   f o r   t i m e  s t e p    8601                              ( at time 4.2995697E+00 )

 nodal point  x-rot      y-rot       z-rot       x-rot vel   y-rot vel   z-rot vel   x-rot acc   y-rot acc   z-rot acc
    22626 -5.17447E-04-3.68144E-07 9.20050E-07-1.59280E-04-7.34733E-07-7.90657E-06-1.49858E-04 2.53239E-05 3.06999E-05



 n o d a l   p r i n t   o u t   f o r   t i m e  s t e p    8801                              ( at time 4.3995597E+00 )

 nodal point  x-disp     y-disp      z-disp      x-vel       y-vel       z-vel      x-accl      y-accl      z-accl      x-coor      y-coor      z-coor
    22626 -2.49193E-03 1.77281E-01-3.55225E-01-1.07155E-03 5.82788E-02-1.00666E-01-1.48557E-03 2.16687E-02 2.96120E-02 4.65688E+00-2.80135E+01-4.53369E+01



 n o d a l   p r i n t   o u t   f o r   t i m e  s t e p    8801                              ( at time 4.3995597E+00 )

 nodal point  x-rot      y-rot       z-rot       x-rot vel   y-rot vel   z-rot vel   x-rot acc   y-rot acc   z-rot acc
    22626 -5.34809E-04-5.08304E-07-1.73180E-07-1.86011E-04-4.09496E-06-1.50009E-05-2.67342E-04-3.36056E-05-7.09505E-05



 n o d a l   p r i n t   o u t   f o r   t i m e  s t e p    9001                              ( at time 4.4995497E+00 )

 nodal point  x-disp     y-disp      z-disp      x-vel       y-vel       z-vel      x-accl      y-accl      z-accl      x-coor      y-coor      z-coor
    22626 -2.61742E-03 1.83301E-01-3.65197E-01-1.43915E-03 6.22820E-02-9.91094E-02-3.67634E-03 4.00358E-02 1.55648E-02 4.65676E+00-2.80075E+01-4.53469E+01



 n o d a l   p r i n t   o u t   f o r   t i m e  s t e p    9001                              ( at time 4.4995497E+00 )

 nodal point  x-rot      y-rot       z-rot       x-rot vel   y-rot vel   z-rot vel   x-rot acc   y-rot acc   z-rot acc
    22626 -5.55617E-04-9.98491E-07-1.88721E-06-2.22917E-04-8.88402E-06-2.18694E-05-3.69097E-04-4.78952E-05-6.86914E-05



 n o d a l   p r i n t   o u t   f o r   t i m e  s t e p    9201                              ( at time 4.5995397E+00 )

 nodal point  x-disp     y-disp      z-disp      x-vel       y-vel       z-vel      x-accl      y-accl      z-accl      x-coor      y-coor      z-coor
    22626 -2.76752E-03 1.89808E-01-3.75061E-01-1.56066E-03 6.77895E-02-9.81656E-02-1.21522E-03 5.50807E-02 9.43972E-03 4.65661E+00-2.80010E+01-4.53568E+01



 n o d a l   p r i n t   o u t   f o r   t i m e  s t e p    9201                              ( at time 4.5995397E+00 )

 nodal point  x-rot      y-rot       z-rot       x-rot vel   y-rot vel   z-rot vel   x-rot acc   y-rot acc   z-rot acc
    22626 -5.79869E-04-1.97462E-06-4.46821E-06-2.61057E-04-1.41523E-05-3.29673E-05-3.81439E-04-5.26881E-05-1.10990E-04



 n o d a l   p r i n t   o u t   f o r   t i m e  s t e p    9401                              ( at time 4.6995297E+00 )

 nodal point  x-disp     y-disp      z-disp      x-vel       y-vel       z-vel      x-accl      y-accl      z-accl      x-coor      y-coor      z-coor
    22626 -2.95718E-03 1.96876E-01-3.84775E-01-2.21267E-03 7.38301E-02-9.62323E-02-6.52070E-03 6.04118E-02 1.93348E-02 4.65642E+00-2.79940E+01-4.53665E+01



 n o d a l   p r i n t   o u t   f o r   t i m e  s t e p    9401                              ( at time 4.6995297E+00 )

 nodal point  x-rot      y-rot       z-rot       x-rot vel   y-rot vel   z-rot vel   x-rot acc   y-rot acc   z-rot acc
    22626 -6.08853E-04-3.88075E-06-8.58107E-06-3.19593E-04-2.23802E-05-4.45878E-05-5.85413E-04-8.22871E-05-1.16217E-04



 n o d a l   p r i n t   o u t   f o r   t i m e  s t e p    9601                              ( at time 4.7995197E+00 )

 nodal point  x-disp     y-disp      z-disp      x-vel       y-vel       z-vel      x-accl      y-accl      z-accl      x-coor      y-coor      z-coor
    22626 -3.15398E-03 2.04608E-01-3.94278E-01-1.61541E-03 8.10006E-02-9.37373E-02 5.97316E-03 7.17124E-02 2.49526E-02 4.65622E+00-2.79862E+01-4.53760E+01



 n o d a l   p r i n t   o u t   f o r   t i m e  s t e p    9601                              ( at time 4.7995197E+00 )

 nodal point  x-rot      y-rot       z-rot       x-rot vel   y-rot vel   z-rot vel   x-rot acc   y-rot acc   z-rot acc
    22626 -6.44082E-04-6.02578E-06-1.26526E-05-3.82886E-04-1.66837E-05-3.70039E-05-6.32994E-04 5.69709E-05 7.58473E-05



 n o d a l   p r i n t   o u t   f o r   t i m e  s t e p    9801                              ( at time 4.8995097E+00 )

 nodal point  x-disp     y-disp      z-disp      x-vel       y-vel       z-vel      x-accl      y-accl      z-accl      x-coor      y-coor      z-coor
    22626 -3.30539E-03 2.13113E-01-4.03527E-01-1.73448E-03 8.94164E-02-9.13596E-02-1.19085E-03 8.41667E-02 2.37793E-02 4.65607E+00-2.79777E+01-4.53852E+01



 n o d a l   p r i n t   o u t   f o r   t i m e  s t e p    9801                              ( at time 4.8995097E+00 )

 nodal point  x-rot      y-rot       z-rot       x-rot vel   y-rot vel   z-rot vel   x-rot acc   y-rot acc   z-rot acc
    22626 -6.85529E-04-8.00744E-06-1.68469E-05-4.43678E-04-2.19695E-05-4.89004E-05-6.07980E-04-5.28642E-05-1.18977E-04



 n o d a l   p r i n t   o u t   f o r   t i m e  s t e p   10001                              ( at time 4.9994997E+00 )

 nodal point  x-disp     y-disp      z-disp      x-vel       y-vel       z-vel      x-accl      y-accl      z-accl      x-coor      y-coor      z-coor
    22626 -3.51003E-03 2.22526E-01-4.12612E-01-2.21059E-03 9.91528E-02-9.05842E-02-4.76151E-03 9.73732E-02 7.75449E-03 4.65587E+00-2.79683E+01-4.53943E+01



 n o d a l   p r i n t   o u t   f o r   t i m e  s t e p   10001                              ( at time 4.9994997E+00 )

 nodal point  x-rot      y-rot       z-rot       x-rot vel   y-rot vel   z-rot vel   x-rot acc   y-rot acc   z-rot acc
    22626 -7.33699E-04-1.03144E-05-2.16150E-05-5.19500E-04-2.33094E-05-4.46965E-05-7.58294E-04-1.33999E-05 4.20430E-05



 n o d a l   p r i n t   o u t   f o r   t i m e  s t e p   10202                              ( at time 5.0999896E+00 )

 nodal point  x-disp     y-disp      z-disp      x-vel       y-vel       z-vel      x-accl      y-accl      z-accl      x-coor      y-coor      z-coor
    22626 -3.70270E-03 2.33036E-01-4.21667E-01-1.71085E-03 1.09978E-01-8.93871E-02 4.97302E-03 1.07724E-01 1.19127E-02 4.65567E+00-2.79578E+01-4.54034E+01



 n o d a l   p r i n t   o u t   f o r   t i m e  s t e p   10202                              ( at time 5.0999896E+00 )

 nodal point  x-rot      y-rot       z-rot       x-rot vel   y-rot vel   z-rot vel   x-rot acc   y-rot acc   z-rot acc
    22626 -7.90323E-04-1.26547E-05-2.63121E-05-6.04872E-04-2.08992E-05-4.65597E-05-8.49561E-04 2.39849E-05-1.85417E-05



 n o d a l   p r i n t   o u t   f o r   t i m e  s t e p   10402                              ( at time 5.1999796E+00 )

 nodal point  x-disp     y-disp      z-disp      x-vel       y-vel       z-vel      x-accl      y-accl      z-accl      x-coor      y-coor      z-coor
    22626 -3.89603E-03 2.44614E-01-4.30520E-01-1.91515E-03 1.21895E-01-8.76138E-02-2.04320E-03 1.19186E-01 1.77352E-02 4.65548E+00-2.79462E+01-4.54122E+01



 n o d a l   p r i n t   o u t   f o r   t i m e  s t e p   10402                              ( at time 5.1999796E+00 )

 nodal point  x-rot      y-rot       z-rot       x-rot vel   y-rot vel   z-rot vel   x-rot acc   y-rot acc   z-rot acc
    22626 -8.55763E-04-1.44368E-05-3.05495E-05-7.02914E-04-1.54378E-05-4.25296E-05-9.80519E-04 5.46187E-05 4.03054E-05



 n o d a l   p r i n t   o u t   f o r   t i m e  s t e p   10602                              ( at time 5.2999696E+00 )

 nodal point  x-disp     y-disp      z-disp      x-vel       y-vel       z-vel      x-accl      y-accl      z-accl      x-coor      y-coor      z-coor
    22626 -4.09410E-03 2.57440E-01-4.39189E-01-2.19176E-03 1.34742E-01-8.57195E-02-2.76637E-03 1.28482E-01 1.89444E-02 4.65528E+00-2.79334E+01-4.54209E+01



 n o d a l   p r i n t   o u t   f o r   t i m e  s t e p   10602                              ( at time 5.2999696E+00 )

 nodal point  x-rot      y-rot       z-rot       x-rot vel   y-rot vel   z-rot vel   x-rot acc   y-rot acc   z-rot acc
    22626 -9.31153E-04-1.63225E-05-3.48497E-05-8.00697E-04-2.42144E-05-5.02467E-05-9.77932E-04-8.77751E-05-7.71786E-05



 n o d a l   p r i n t   o u t   f o r   t i m e  s t e p   10802                              ( at time 5.3999596E+00 )

 nodal point  x-disp     y-disp      z-disp      x-vel       y-vel       z-vel      x-accl      y-accl      z-accl      x-coor      y-coor      z-coor
    22626 -4.33230E-03 2.71616E-01-4.47707E-01-2.62838E-03 1.48873E-01-8.49470E-02-4.36661E-03 1.41319E-01 7.72636E-03 4.65504E+00-2.79192E+01-4.54294E+01



 n o d a l   p r i n t   o u t   f o r   t i m e  s t e p   10802                              ( at time 5.3999596E+00 )

 nodal point  x-rot      y-rot       z-rot       x-rot vel   y-rot vel   z-rot vel   x-rot acc   y-rot acc   z-rot acc
    22626 -1.01663E-03-1.85862E-05-4.03005E-05-9.07150E-04-2.16802E-05-5.33689E-05-1.06463E-03 2.53449E-05-3.12252E-05



 n o d a l   p r i n t   o u t   f o r   t i m e  s t e p   11002                              ( at time 5.4999496E+00 )

 nodal point  x-disp     y-disp      z-disp      x-vel       y-vel       z-vel      x-accl      y-accl      z-accl      x-coor      y-coor      z-coor
    22626 -4.54265E-03 2.87258E-01-4.56182E-01-1.48861E-03 1.64001E-01-8.46237E-02 1.13989E-02 1.51298E-01 3.23246E-03 4.65483E+00-2.79036E+01-4.54379E+01



 n o d a l   p r i n t   o u t   f o r   t i m e  s t e p   11002                              ( at time 5.4999496E+00 )

 nodal point  x-rot      y-rot       z-rot       x-rot vel   y-rot vel   z-rot vel   x-rot acc   y-rot acc   z-rot acc
    22626 -1.11277E-03-2.02608E-05-4.49056E-05-1.01598E-03-1.61901E-05-4.07271E-05-1.08845E-03 5.49063E-05 1.26430E-04



 n o d a l   p r i n t   o u t   f o r   t i m e  s t e p   11202                              ( at time 5.5999396E+00 )

 nodal point  x-disp     y-disp      z-disp      x-vel       y-vel       z-vel      x-accl      y-accl      z-accl      x-coor      y-coor      z-coor
    22626 -4.68210E-03 3.04436E-01-4.64518E-01-1.37798E-03 1.79376E-01-8.18166E-02 1.10641E-03 1.53769E-01 2.80748E-02 4.65469E+00-2.78864E+01-4.54462E+01



 n o d a l   p r i n t   o u t   f o r   t i m e  s t e p   11202                              ( at time 5.5999396E+00 )

 nodal point  x-rot      y-rot       z-rot       x-rot vel   y-rot vel   z-rot vel   x-rot acc   y-rot acc   z-rot acc
    22626 -1.22032E-03-2.20087E-05-4.87464E-05-1.13542E-03-1.76762E-05-4.24290E-05-1.19444E-03-1.48620E-05-1.70204E-05



 n o d a l   p r i n t   o u t   f o r   t i m e  s t e p   11402                              ( at time 5.6999296E+00 )

 nodal point  x-disp     y-disp      z-disp      x-vel       y-vel       z-vel      x-accl      y-accl      z-accl      x-coor      y-coor      z-coor
    22626 -4.85544E-03 3.23155E-01-4.72575E-01-2.06314E-03 1.95417E-01-7.93580E-02-6.85230E-03 1.60425E-01 2.45877E-02 4.65452E+00-2.78677E+01-4.54543E+01



 n o d a l   p r i n t   o u t   f o r   t i m e  s t e p   11402                              ( at time 5.6999296E+00 )

 nodal point  x-rot      y-rot       z-rot       x-rot vel   y-rot vel   z-rot vel   x-rot acc   y-rot acc   z-rot acc
    22626 -1.34009E-03-2.41064E-05-5.35964E-05-1.25728E-03-2.16005E-05-5.40452E-05-1.21880E-03-3.92468E-05-1.16173E-04



 n o d a l   p r i n t   o u t   f o r   t i m e  s t e p   11602                              ( at time 5.7999195E+00 )

 nodal point  x-disp     y-disp      z-disp      x-vel       y-vel       z-vel      x-accl      y-accl      z-accl      x-coor      y-coor      z-coor
    22626 -5.02550E-03 3.43539E-01-4.80412E-01-1.26218E-03 2.12338E-01-7.74418E-02 8.01042E-03 1.69223E-01 1.91639E-02 4.65435E+00-2.78473E+01-4.54621E+01



 n o d a l   p r i n t   o u t   f o r   t i m e  s t e p   11602                              ( at time 5.7999195E+00 )

 nodal point  x-rot      y-rot       z-rot       x-rot vel   y-rot vel   z-rot vel   x-rot acc   y-rot acc   z-rot acc
    22626 -1.47148E-03-2.59964E-05-5.85951E-05-1.36979E-03-1.36484E-05-3.99881E-05-1.12517E-03 7.95288E-05 1.40585E-04



 n o d a l   p r i n t   o u t   f o r   t i m e  s t e p   11802                              ( at time 5.8999095E+00 )

 nodal point  x-disp     y-disp      z-disp      x-vel       y-vel       z-vel      x-accl      y-accl      z-accl      x-coor      y-coor      z-coor
    22626 -5.09852E-03 3.65676E-01-4.88101E-01-1.45926E-04 2.30147E-01-7.62564E-02 1.11637E-02 1.78105E-01 1.18550E-02 4.65428E+00-2.78252E+01-4.54698E+01



 n o d a l   p r i n t   o u t   f o r   t i m e  s t e p   11802                              ( at time 5.8999095E+00 )

 nodal point  x-rot      y-rot       z-rot       x-rot vel   y-rot vel   z-rot vel   x-rot acc   y-rot acc   z-rot acc
    22626 -1.61536E-03-2.66997E-05-6.18966E-05-1.51262E-03-2.77976E-06-2.88852E-05-1.42844E-03 1.08698E-04 1.11040E-04



 n o d a l   p r i n t   o u t   f o r   t i m e  s t e p   12002                              ( at time 5.9998995E+00 )

 nodal point  x-disp     y-disp      z-disp      x-vel       y-vel       z-vel      x-accl      y-accl      z-accl      x-coor      y-coor      z-coor
    22626 -5.16347E-03 3.89586E-01-4.95622E-01-1.26926E-03 2.48552E-01-7.45251E-02-1.12345E-02 1.84073E-01 1.73150E-02 4.65421E+00-2.78012E+01-4.54773E+01



 n o d a l   p r i n t   o u t   f o r   t i m e  s t e p   12002                              ( at time 5.9998995E+00 )

 nodal point  x-rot      y-rot       z-rot       x-rot vel   y-rot vel   z-rot vel   x-rot acc   y-rot acc   z-rot acc
    22626 -1.77327E-03-2.80508E-05-6.59277E-05-1.65171E-03-2.50266E-05-4.75450E-05-1.39107E-03-2.22491E-04-1.86616E-04



 n o d a l   p r i n t   o u t   f o r   t i m e  s t e p   12202                              ( at time 6.0998895E+00 )

 nodal point  x-disp     y-disp      z-disp      x-vel       y-vel       z-vel      x-accl      y-accl      z-accl      x-coor      y-coor      z-coor
    22626 -5.35511E-03 4.15415E-01-5.02982E-01-1.83762E-03 2.67793E-01-7.27692E-02-5.68412E-03 1.92425E-01 1.75613E-02 4.65402E+00-2.77754E+01-4.54847E+01



 n o d a l   p r i n t   o u t   f o r   t i m e  s t e p   12202                              ( at time 6.0998895E+00 )

 nodal point  x-rot      y-rot       z-rot       x-rot vel   y-rot vel   z-rot vel   x-rot acc   y-rot acc   z-rot acc
    22626 -1.94492E-03-3.04267E-05-7.13839E-05-1.79071E-03-1.39170E-05-4.91513E-05-1.39009E-03 1.11107E-04-1.60647E-05



 n o d a l   p r i n t   o u t   f o r   t i m e  s t e p   12402                              ( at time 6.1998795E+00 )

 nodal point  x-disp     y-disp      z-disp      x-vel       y-vel       z-vel      x-accl      y-accl      z-accl      x-coor      y-coor      z-coor
    22626 -5.40649E-03 4.43203E-01-5.10136E-01 5.93575E-04 2.87860E-01-7.09793E-02 2.43144E-02 2.00697E-01 1.79003E-02 4.65397E+00-2.77476E+01-4.54919E+01



 n o d a l   p r i n t   o u t   f o r   t i m e  s t e p   12402                              ( at time 6.1998795E+00 )

 nodal point  x-rot      y-rot       z-rot       x-rot vel   y-rot vel   z-rot vel   x-rot acc   y-rot acc   z-rot acc
    22626 -2.13045E-03-3.01754E-05-7.51457E-05-1.92885E-03 1.44652E-05-1.42947E-05-1.38156E-03 2.83851E-04 3.48601E-04



 n o d a l   p r i n t   o u t   f o r   t i m e  s t e p   12602                              ( at time 6.2998695E+00 )

 nodal point  x-disp     y-disp      z-disp      x-vel       y-vel       z-vel      x-accl      y-accl      z-accl      x-coor      y-coor      z-coor
    22626 -5.34195E-03 4.73081E-01-5.17182E-01 3.55052E-04 3.08970E-01-7.00557E-02-2.38547E-03 2.11117E-01 9.23720E-03 4.65403E+00-2.77177E+01-4.54989E+01



 n o d a l   p r i n t   o u t   f o r   t i m e  s t e p   12602                              ( at time 6.2998695E+00 )

 nodal point  x-rot      y-rot       z-rot       x-rot vel   y-rot vel   z-rot vel   x-rot acc   y-rot acc   z-rot acc
    22626 -2.33071E-03-2.93604E-05-7.64775E-05-2.07544E-03-1.54336E-06-2.06982E-05-1.46607E-03-1.60102E-04-6.40412E-05



 n o d a l   p r i n t   o u t   f o r   t i m e  s t e p   12802                              ( at time 6.3998595E+00 )

 nodal point  x-disp     y-disp      z-disp      x-vel       y-vel       z-vel      x-accl      y-accl      z-accl      x-coor      y-coor      z-coor
    22626 -5.37738E-03 5.05000E-01-5.24056E-01-6.91668E-04 3.29474E-01-6.76414E-02-1.04683E-02 2.05059E-01 2.41455E-02 4.65400E+00-2.76858E+01-4.55058E+01



 n o d a l   p r i n t   o u t   f o r   t i m e  s t e p   12802                              ( at time 6.3998595E+00 )

 nodal point  x-rot      y-rot       z-rot       x-rot vel   y-rot vel   z-rot vel   x-rot acc   y-rot acc   z-rot acc
    22626 -2.54573E-03-3.04545E-05-8.00089E-05-2.22370E-03-4.31989E-06-4.18730E-05-1.48272E-03-2.77681E-05-2.11770E-04



 n o d a l   p r i n t   o u t   f o r   t i m e  s t e p   13002                              ( at time 6.4998495E+00 )

 nodal point  x-disp     y-disp      z-disp      x-vel       y-vel       z-vel      x-accl      y-accl      z-accl      x-coor      y-coor      z-coor
    22626 -5.39502E-03 5.39030E-01-5.30703E-01 2.72901E-04 3.50995E-01-6.52082E-02 9.64666E-03 2.15236E-01 2.43345E-02 4.65398E+00-2.76518E+01-4.55124E+01



 n o d a l   p r i n t   o u t   f o r   t i m e  s t e p   13002                              ( at time 6.4998495E+00 )

 nodal point  x-rot      y-rot       z-rot       x-rot vel   y-rot vel   z-rot vel   x-rot acc   y-rot acc   z-rot acc
    22626 -2.77627E-03-2.96929E-05-8.33989E-05-2.38749E-03 1.55026E-05-2.55104E-05-1.63813E-03 1.98244E-04 1.63643E-04



 n o d a l   p r i n t   o u t   f o r   t i m e  s t e p   13202                              ( at time 6.5998395E+00 )

 nodal point  x-disp     y-disp      z-disp      x-vel       y-vel       z-vel      x-accl      y-accl      z-accl      x-coor      y-coor      z-coor
    22626 -5.26410E-03 5.75188E-01-5.37005E-01 1.74420E-03 3.71841E-01-6.12925E-02 1.47144E-02 2.08477E-01 3.91601E-02 4.65411E+00-2.76156E+01-4.55187E+01



 n o d a l   p r i n t   o u t   f o r   t i m e  s t e p   13202                              ( at time 6.5998395E+00 )

 nodal point  x-rot      y-rot       z-rot       x-rot vel   y-rot vel   z-rot vel   x-rot acc   y-rot acc   z-rot acc
    22626 -3.02273E-03-2.85639E-05-8.48765E-05-2.54091E-03 7.52006E-06-1.73180E-05-1.53428E-03-7.98327E-05 8.19318E-05



 n o d a l   p r i n t   o u t   f o r   t i m e  s t e p   13402                              ( at time 6.6998295E+00 )

 nodal point  x-disp     y-disp      z-disp      x-vel       y-vel       z-vel      x-accl      y-accl      z-accl      x-coor      y-coor      z-coor
    22626 -5.09970E-03 6.13500E-01-5.42971E-01 1.41640E-03 3.93883E-01-5.91316E-02-3.27829E-03 2.20446E-01 2.16119E-02 4.65428E+00-2.75773E+01-4.55247E+01



 n o d a l   p r i n t   o u t   f o r   t i m e  s t e p   13402                              ( at time 6.6998295E+00 )

 nodal point  x-rot      y-rot       z-rot       x-rot vel   y-rot vel   z-rot vel   x-rot acc   y-rot acc   z-rot acc
    22626 -3.28414E-03-2.78390E-05-8.68012E-05-2.69427E-03 7.56429E-06-2.32921E-05-1.53377E-03 4.42418E-07-5.97470E-05



 n o d a l   p r i n t   o u t   f o r   t i m e  s t e p   13602                              ( at time 6.7998195E+00 )

 nodal point  x-disp     y-disp      z-disp      x-vel       y-vel       z-vel      x-accl      y-accl      z-accl      x-coor      y-coor      z-coor
    22626 -5.01520E-03 6.54059E-01-5.48738E-01 7.49769E-04 4.16493E-01-5.63155E-02-6.66703E-03 2.26124E-01 2.81639E-02 4.65436E+00-2.75368E+01-4.55305E+01



 n o d a l   p r i n t   o u t   f o r   t i m e  s t e p   13602                              ( at time 6.7998195E+00 )

 nodal point  x-rot      y-rot       z-rot       x-rot vel   y-rot vel   z-rot vel   x-rot acc   y-rot acc   z-rot acc
    22626 -3.56197E-03-2.69693E-05-8.98705E-05-2.86225E-03 5.18324E-06-3.51969E-05-1.68000E-03-2.38129E-05-1.19060E-04



 n o d a l   p r i n t   o u t   f o r   t i m e  s t e p   13802                              ( at time 6.8998095E+00 )

 nodal point  x-disp     y-disp      z-disp      x-vel       y-vel       z-vel      x-accl      y-accl      z-accl      x-coor      y-coor      z-coor
    22626 -4.87126E-03 6.96833E-01-5.54148E-01 2.06507E-03 4.38696E-01-5.23374E-02 1.31544E-02 2.22052E-01 3.97846E-02 4.65450E+00-2.74940E+01-4.55359E+01



 n o d a l   p r i n t   o u t   f o r   t i m e  s t e p   13802                              ( at time 6.8998095E+00 )

 nodal point  x-rot      y-rot       z-rot       x-rot vel   y-rot vel   z-rot vel   x-rot acc   y-rot acc   z-rot acc
    22626 -3.85667E-03-2.56664E-05-9.24698E-05-3.03316E-03 1.57850E-05-2.21336E-05-1.70921E-03 1.06028E-04 1.30647E-04



 n o d a l   p r i n t   o u t   f o r   t i m e  s t e p   14002                              ( at time 6.9997995E+00 )

 nodal point  x-disp     y-disp      z-disp      x-vel       y-vel       z-vel      x-accl      y-accl      z-accl      x-coor      y-coor      z-coor
    22626 -4.65332E-03 7.41871E-01-5.59155E-01 1.99091E-03 4.61910E-01-4.84428E-02-7.41655E-04 2.32162E-01 3.89503E-02 4.65472E+00-2.74490E+01-4.55409E+01



 n o d a l   p r i n t   o u t   f o r   t i m e  s t e p   14002                              ( at time 6.9997995E+00 )

 nodal point  x-rot      y-rot       z-rot       x-rot vel   y-rot vel   z-rot vel   x-rot acc   y-rot acc   z-rot acc
    22626 -4.16821E-03-2.41420E-05-9.47095E-05-3.19967E-03 9.24409E-06-2.85208E-05-1.66534E-03-6.54159E-05-6.38785E-05



 n o d a l   p r i n t   o u t   f o r   t i m e  s t e p   14202                              ( at time 7.0997895E+00 )

 nodal point  x-disp     y-disp      z-disp      x-vel       y-vel       z-vel      x-accl      y-accl      z-accl      x-coor      y-coor      z-coor
    22626 -4.47517E-03 7.89261E-01-5.63777E-01 1.20733E-03 4.85373E-01-4.44682E-02-7.83662E-03 2.34654E-01 3.97497E-02 4.65490E+00-2.74016E+01-4.55455E+01



 n o d a l   p r i n t   o u t   f o r   t i m e  s t e p   14202                              ( at time 7.0997895E+00 )

 nodal point  x-rot      y-rot       z-rot       x-rot vel   y-rot vel   z-rot vel   x-rot acc   y-rot acc   z-rot acc
    22626 -4.49579E-03-2.31896E-05-9.78728E-05-3.35477E-03 1.67100E-05-3.92598E-05-1.55115E-03 7.46662E-05-1.07401E-04



 n o d a l   p r i n t   o u t   f o r   t i m e  s t e p   14402                              ( at time 7.1997794E+00 )

 nodal point  x-disp     y-disp      z-disp      x-vel       y-vel       z-vel      x-accl      y-accl      z-accl      x-coor      y-coor      z-coor
    22626 -4.33444E-03 8.38911E-01-5.67961E-01 2.20180E-03 5.07773E-01-3.91458E-02 9.94571E-03 2.24024E-01 5.32293E-02 4.65504E+00-2.73519E+01-4.55497E+01



 n o d a l   p r i n t   o u t   f o r   t i m e  s t e p   14402                              ( at time 7.1997794E+00 )

 nodal point  x-rot      y-rot       z-rot       x-rot vel   y-rot vel   z-rot vel   x-rot acc   y-rot acc   z-rot acc
    22626 -4.84026E-03-2.12314E-05-1.01823E-04-3.52639E-03 2.63801E-05-4.09772E-05-1.71638E-03 9.67108E-05-1.71753E-05



 n o d a l   p r i n t   o u t   f o r   t i m e  s t e p   14602                              ( at time 7.2997694E+00 )

 nodal point  x-disp     y-disp      z-disp      x-vel       y-vel       z-vel      x-accl      y-accl      z-accl      x-coor      y-coor      z-coor
    22626 -4.05455E-03 8.90849E-01-5.71592E-01 2.74626E-03 5.31698E-01-3.28081E-02 5.44518E-03 2.39274E-01 6.33831E-02 4.65532E+00-2.73000E+01-4.55533E+01



 n o d a l   p r i n t   o u t   f o r   t i m e  s t e p   14602                              ( at time 7.2997694E+00 )

 nodal point  x-rot      y-rot       z-rot       x-rot vel   y-rot vel   z-rot vel   x-rot acc   y-rot acc   z-rot acc
    22626 -5.20319E-03-1.91676E-05-1.04945E-04-3.70498E-03 1.73822E-05-2.97777E-05-1.78604E-03-8.99878E-05 1.12006E-04



 n o d a l   p r i n t   o u t   f o r   t i m e  s t e p   14802                              ( at time 7.3997594E+00 )

 nodal point  x-disp     y-disp      z-disp      x-vel       y-vel       z-vel      x-accl      y-accl      z-accl      x-coor      y-coor      z-coor
    22626 -3.79855E-03 9.45122E-01-5.74565E-01 2.23226E-03 5.53650E-01-2.59863E-02-5.14056E-03 2.19543E-01 6.82253E-02 4.65558E+00-2.72457E+01-4.55563E+01



 n o d a l   p r i n t   o u t   f o r   t i m e  s t e p   14802                              ( at time 7.3997594E+00 )

 nodal point  x-rot      y-rot       z-rot       x-rot vel   y-rot vel   z-rot vel   x-rot acc   y-rot acc   z-rot acc
    22626 -5.58322E-03-1.76398E-05-1.08934E-04-3.87580E-03 1.03985E-05-5.20798E-05-1.70841E-03-6.98438E-05-2.23044E-04



 n o d a l   p r i n t   o u t   f o r   t i m e  s t e p   15002                              ( at time 7.4997494E+00 )

 nodal point  x-disp     y-disp      z-disp      x-vel       y-vel       z-vel      x-accl      y-accl      z-accl      x-coor      y-coor      z-coor
    22626 -3.53917E-03 1.00161E+00-5.76790E-01 3.08075E-03 5.76539E-01-1.86575E-02 8.48575E-03 2.28911E-01 7.32945E-02 4.65584E+00-2.71892E+01-4.55585E+01



 n o d a l   p r i n t   o u t   f o r   t i m e  s t e p   15002                              ( at time 7.4997494E+00 )

 nodal point  x-rot      y-rot       z-rot       x-rot vel   y-rot vel   z-rot vel   x-rot acc   y-rot acc   z-rot acc
    22626 -5.98036E-03-1.63985E-05-1.14317E-04-4.06313E-03 2.04173E-05-4.80905E-05-1.87340E-03 1.00197E-04 3.98974E-05



 n o d a l   p r i n t   o u t   f o r   t i m e  s t e p   15202                              ( at time 7.5997394E+00 )

 nodal point  x-disp     y-disp      z-disp      x-vel       y-vel       z-vel      x-accl      y-accl      z-accl      x-coor      y-coor      z-coor
    22626 -3.22915E-03 1.06048E+00-5.78301E-01 3.60554E-03 6.00242E-01-1.13280E-02 5.24847E-03 2.37048E-01 7.33028E-02 4.65615E+00-2.71304E+01-4.55600E+01



 n o d a l   p r i n t   o u t   f o r   t i m e  s t e p   15202                              ( at time 7.5997394E+00 )

 nodal point  x-rot      y-rot       z-rot       x-rot vel   y-rot vel   z-rot vel   x-rot acc   y-rot acc   z-rot acc
    22626 -6.39634E-03-1.38383E-05-1.19626E-04-4.25404E-03 1.83053E-05-5.66127E-05-1.90933E-03-2.11216E-05-8.52304E-05



 n o d a l   p r i n t   o u t   f o r   t i m e  s t e p   15402                              ( at time 7.6997294E+00 )

 nodal point  x-disp     y-disp      z-disp      x-vel       y-vel       z-vel      x-accl      y-accl      z-accl      x-coor      y-coor      z-coor
    22626 -2.85234E-03 1.12167E+00-5.79044E-01 3.52319E-03 6.23939E-01-3.41174E-03-8.23670E-04 2.37000E-01 7.91705E-02 4.65652E+00-2.70692E+01-4.55608E+01



 n o d a l   p r i n t   o u t   f o r   t i m e  s t e p   15402                              ( at time 7.6997294E+00 )

 nodal point  x-rot      y-rot       z-rot       x-rot vel   y-rot vel   z-rot vel   x-rot acc   y-rot acc   z-rot acc
    22626 -6.83130E-03-1.34214E-05-1.26276E-04-4.44295E-03-4.94468E-06-6.24747E-05-1.88925E-03-2.32524E-04-5.86265E-05



 n o d a l   p r i n t   o u t   f o r   t i m e  s t e p   15602                              ( at time 7.7997194E+00 )

 nodal point  x-disp     y-disp      z-disp      x-vel       y-vel       z-vel      x-accl      y-accl      z-accl      x-coor      y-coor      z-coor
    22626 -2.50401E-03 1.18521E+00-5.78976E-01 3.67506E-03 6.47181E-01 5.20793E-03 1.51895E-03 2.32440E-01 8.62054E-02 4.65687E+00-2.70056E+01-4.55607E+01



 n o d a l   p r i n t   o u t   f o r   t i m e  s t e p   15602                              ( at time 7.7997194E+00 )

 nodal point  x-rot      y-rot       z-rot       x-rot vel   y-rot vel   z-rot vel   x-rot acc   y-rot acc   z-rot acc
    22626 -7.28519E-03-1.30520E-05-1.32948E-04-4.63256E-03 1.45088E-05-7.44843E-05-1.89632E-03 1.94554E-04-1.20108E-04



 n o d a l   p r i n t   o u t   f o r   t i m e  s t e p   15802                              ( at time 7.8997094E+00 )

 nodal point  x-disp     y-disp      z-disp      x-vel       y-vel       z-vel      x-accl      y-accl      z-accl      x-coor      y-coor      z-coor
    22626 -2.10825E-03 1.25114E+00-5.78004E-01 4.07669E-03 6.71290E-01 1.40963E-02 4.01661E-03 2.41114E-01 8.88927E-02 4.65727E+00-2.69397E+01-4.55597E+01



 n o d a l   p r i n t   o u t   f o r   t i m e  s t e p   15802                              ( at time 7.8997094E+00 )

 nodal point  x-rot      y-rot       z-rot       x-rot vel   y-rot vel   z-rot vel   x-rot acc   y-rot acc   z-rot acc
    22626 -7.75866E-03-1.17137E-05-1.41239E-04-4.83204E-03 7.56657E-06-8.81864E-05-1.99502E-03-6.94289E-05-1.37035E-04



 n o d a l   p r i n t   o u t   f o r   t i m e  s t e p   16002                              ( at time 7.9996994E+00 )

 nodal point  x-disp     y-disp      z-disp      x-vel       y-vel       z-vel      x-accl      y-accl      z-accl      x-coor      y-coor      z-coor
    22626 -1.68549E-03 1.31947E+00-5.76094E-01 4.23946E-03 6.95238E-01 2.34913E-02 1.62789E-03 2.39506E-01 9.39588E-02 4.65769E+00-2.68714E+01-4.55578E+01



 n o d a l   p r i n t   o u t   f o r   t i m e  s t e p   16002                              ( at time 7.9996994E+00 )

 nodal point  x-rot      y-rot       z-rot       x-rot vel   y-rot vel   z-rot vel   x-rot acc   y-rot acc   z-rot acc
    22626 -8.25116E-03-1.13060E-05-1.49257E-04-5.02123E-03 3.72745E-06-8.11749E-05-1.89208E-03-3.83949E-05 7.01215E-05



 n o d a l   p r i n t   o u t   f o r   t i m e  s t e p   16202                              ( at time 8.0996894E+00 )

 nodal point  x-disp     y-disp      z-disp      x-vel       y-vel       z-vel      x-accl      y-accl      z-accl      x-coor      y-coor      z-coor
    22626 -1.27342E-03 1.39019E+00-5.73262E-01 4.27531E-03 7.18800E-01 3.31530E-02 3.58577E-04 2.35639E-01 9.66270E-02 4.65810E+00-2.68006E+01-4.55550E+01



 n o d a l   p r i n t   o u t   f o r   t i m e  s t e p   16202                              ( at time 8.0996894E+00 )

 nodal point  x-rot      y-rot       z-rot       x-rot vel   y-rot vel   z-rot vel   x-rot acc   y-rot acc   z-rot acc
    22626 -8.76295E-03-1.13356E-05-1.58381E-04-5.21662E-03-9.58168E-07-1.06269E-04-1.95406E-03-4.68609E-05-2.50965E-04



 n o d a l   p r i n t   o u t   f o r   t i m e  s t e p   16402                              ( at time 8.1996794E+00 )

 nodal point  x-disp     y-disp      z-disp      x-vel       y-vel       z-vel      x-accl      y-accl      z-accl      x-coor      y-coor      z-coor
    22626 -8.57433E-04 1.46322E+00-5.69358E-01 3.67078E-03 7.42112E-01 4.49838E-02-6.04590E-03 2.33147E-01 1.18320E-01 4.65852E+00-2.67276E+01-4.55511E+01



 n o d a l   p r i n t   o u t   f o r   t i m e  s t e p   16402                              ( at time 8.1996794E+00 )

 nodal point  x-rot      y-rot       z-rot       x-rot vel   y-rot vel   z-rot vel   x-rot acc   y-rot acc   z-rot acc
    22626 -9.29473E-03-1.20517E-05-1.69199E-04-5.41194E-03-1.07695E-05-1.11285E-04-1.95340E-03-9.81231E-05-5.01655E-05



 n o d a l   p r i n t   o u t   f o r   t i m e  s t e p   16602                              ( at time 8.2996694E+00 )

 nodal point  x-disp     y-disp      z-disp      x-vel       y-vel       z-vel      x-accl      y-accl      z-accl      x-coor      y-coor      z-coor
    22626 -4.98910E-04 1.53861E+00-5.64237E-01 3.69073E-03 7.65217E-01 5.72206E-02 1.99482E-04 2.31074E-01 1.22380E-01 4.65888E+00-2.66522E+01-4.55460E+01



 n o d a l   p r i n t   o u t   f o r   t i m e  s t e p   16602                              ( at time 8.2996694E+00 )

 nodal point  x-rot      y-rot       z-rot       x-rot vel   y-rot vel   z-rot vel   x-rot acc   y-rot acc   z-rot acc
    22626 -9.84667E-03-1.23968E-05-1.80630E-04-5.61057E-03 1.46521E-06-1.27123E-04-1.98655E-03 1.22359E-04-1.58401E-04



 n o d a l   p r i n t   o u t   f o r   t i m e  s t e p   16802                              ( at time 8.3996594E+00 )

 nodal point  x-disp     y-disp      z-disp      x-vel       y-vel       z-vel      x-accl      y-accl      z-accl      x-coor      y-coor      z-coor
    22626 -9.51726E-05 1.61630E+00-5.57929E-01 4.14738E-03 7.88872E-01 6.89027E-02 4.56696E-03 2.36566E-01 1.16834E-01 4.65928E+00-2.65745E+01-4.55396E+01



 n o d a l   p r i n t   o u t   f o r   t i m e  s t e p   16802                              ( at time 8.3996594E+00 )

 nodal point  x-rot      y-rot       z-rot       x-rot vel   y-rot vel   z-rot vel   x-rot acc   y-rot acc   z-rot acc
    22626 -1.04177E-02-1.28766E-05-1.94252E-04-5.80462E-03-9.78969E-06-1.41235E-04-1.94070E-03-1.12560E-04-1.41127E-04



 n o d a l   p r i n t   o u t   f o r   t i m e  s t e p   17002                              ( at time 8.4996494E+00 )

 nodal point  x-disp     y-disp      z-disp      x-vel       y-vel       z-vel      x-accl      y-accl      z-accl      x-coor      y-coor      z-coor
    22626  2.49838E-04 1.69630E+00-5.50415E-01 3.44503E-03 8.11239E-01 8.18577E-02-7.02423E-03 2.23694E-01 1.29563E-01 4.65963E+00-2.64945E+01-4.55321E+01



 n o d a l   p r i n t   o u t   f o r   t i m e  s t e p   17002                              ( at time 8.4996494E+00 )

 nodal point  x-rot      y-rot       z-rot       x-rot vel   y-rot vel   z-rot vel   x-rot acc   y-rot acc   z-rot acc
    22626 -1.10083E-02-1.47676E-05-2.08652E-04-6.00622E-03-2.41964E-05-1.52837E-04-2.01619E-03-1.44081E-04-1.16031E-04



 n o d a l   p r i n t   o u t   f o r   t i m e  s t e p   17202                              ( at time 8.5996394E+00 )

 nodal point  x-disp     y-disp      z-disp      x-vel       y-vel       z-vel      x-accl      y-accl      z-accl      x-coor      y-coor      z-coor
    22626  6.63920E-04 1.77857E+00-5.41574E-01 4.32726E-03 8.34240E-01 9.47111E-02 8.82325E-03 2.30035E-01 1.28547E-01 4.66004E+00-2.64123E+01-4.55233E+01



 n o d a l   p r i n t   o u t   f o r   t i m e  s t e p   17202                              ( at time 8.5996394E+00 )

 nodal point  x-rot      y-rot       z-rot       x-rot vel   y-rot vel   z-rot vel   x-rot acc   y-rot acc   z-rot acc
    22626 -1.16190E-02-1.69796E-05-2.24507E-04-6.19922E-03-2.00521E-05-1.62862E-04-1.93015E-03 4.14473E-05-1.00266E-04



 n o d a l   p r i n t   o u t   f o r   t i m e  s t e p   17402                              ( at time 8.6996293E+00 )

 nodal point  x-disp     y-disp      z-disp      x-vel       y-vel       z-vel      x-accl      y-accl      z-accl      x-coor      y-coor      z-coor
    22626  1.14538E-03 1.86317E+00-5.31396E-01 5.26722E-03 8.57549E-01 1.08755E-01 9.40042E-03 2.33115E-01 1.40454E-01 4.66052E+00-2.63277E+01-4.55131E+01



 n o d a l   p r i n t   o u t   f o r   t i m e  s t e p   17402                              ( at time 8.6996293E+00 )

 nodal point  x-rot      y-rot       z-rot       x-rot vel   y-rot vel   z-rot vel   x-rot acc   y-rot acc   z-rot acc
    22626 -1.22480E-02-1.88420E-05-2.40617E-04-6.37859E-03-2.39871E-05-1.65526E-04-1.79393E-03-3.93540E-05-2.66400E-05



 n o d a l   p r i n t   o u t   f o r   t i m e  s t e p   17602                              ( at time 8.7996193E+00 )

 nodal point  x-disp     y-disp      z-disp      x-vel       y-vel       z-vel      x-accl      y-accl      z-accl      x-coor      y-coor      z-coor
    22626  1.68580E-03 1.95005E+00-5.19776E-01 4.98896E-03 8.79597E-01 1.23345E-01-2.78290E-03 2.20496E-01 1.45916E-01 4.66106E+00-2.62408E+01-4.55015E+01



 n o d a l   p r i n t   o u t   f o r   t i m e  s t e p   17602                              ( at time 8.7996193E+00 )

 nodal point  x-rot      y-rot       z-rot       x-rot vel   y-rot vel   z-rot vel   x-rot acc   y-rot acc   z-rot acc
    22626 -1.28955E-02-2.18309E-05-2.57377E-04-6.56394E-03-3.05436E-05-1.68945E-04-1.85369E-03-6.55715E-05-3.41917E-05



 n o d a l   p r i n t   o u t   f o r   t i m e  s t e p   17802                              ( at time 8.8996093E+00 )

 nodal point  x-disp     y-disp      z-disp      x-vel       y-vel       z-vel      x-accl      y-accl      z-accl      x-coor      y-coor      z-coor
    22626  2.15567E-03 2.03917E+00-5.06723E-01 4.88137E-03 9.03110E-01 1.37710E-01-1.07596E-03 2.35153E-01 1.43665E-01 4.66153E+00-2.61517E+01-4.54884E+01



 n o d a l   p r i n t   o u t   f o r   t i m e  s t e p   17802                              ( at time 8.8996093E+00 )

 nodal point  x-rot      y-rot       z-rot       x-rot vel   y-rot vel   z-rot vel   x-rot acc   y-rot acc   z-rot acc
    22626 -1.35603E-02-2.49775E-05-2.74061E-04-6.73029E-03-2.81315E-05-1.69726E-04-1.66365E-03 2.41229E-05-7.81459E-06



 n o d a l   p r i n t   o u t   f o r   t i m e  s t e p   18002                              ( at time 8.9995993E+00 )

 nodal point  x-disp     y-disp      z-disp      x-vel       y-vel       z-vel      x-accl      y-accl      z-accl      x-coor      y-coor      z-coor
    22626  2.73424E-03 2.13056E+00-4.92189E-01 6.69747E-03 9.24442E-01 1.52905E-01 1.81629E-02 2.13345E-01 1.51960E-01 4.66211E+00-2.60603E+01-4.54739E+01



 n o d a l   p r i n t   o u t   f o r   t i m e  s t e p   18002                              ( at time 8.9995993E+00 )

 nodal point  x-rot      y-rot       z-rot       x-rot vel   y-rot vel   z-rot vel   x-rot acc   y-rot acc   z-rot acc
    22626 -1.42415E-02-2.72370E-05-2.91062E-04-6.88877E-03-1.45679E-05-1.73453E-04-1.58490E-03 1.35650E-04-3.72740E-05



 n o d a l   p r i n t   o u t   f o r   t i m e  s t e p   18202                              ( at time 9.0995893E+00 )

 nodal point  x-disp     y-disp      z-disp      x-vel       y-vel       z-vel      x-accl      y-accl      z-accl      x-coor      y-coor      z-coor
    22626  3.37658E-03 2.22409E+00-4.76116E-01 5.95744E-03 9.46254E-01 1.68494E-01-7.40111E-03 2.18143E-01 1.55904E-01 4.66275E+00-2.59667E+01-4.54578E+01



 n o d a l   p r i n t   o u t   f o r   t i m e  s t e p   18202                              ( at time 9.0995893E+00 )

 nodal point  x-rot      y-rot       z-rot       x-rot vel   y-rot vel   z-rot vel   x-rot acc   y-rot acc   z-rot acc
    22626 -1.49389E-02-2.90532E-05-3.07994E-04-7.04875E-03-3.34899E-05-1.78609E-04-1.60002E-03-1.89240E-04-5.15640E-05



 n o d a l   p r i n t   o u t   f o r   t i m e  s t e p   18402                              ( at time 9.1995793E+00 )

 nodal point  x-disp     y-disp      z-disp      x-vel       y-vel       z-vel      x-accl      y-accl      z-accl      x-coor      y-coor      z-coor
    22626  3.99873E-03 2.31975E+00-4.58419E-01 6.60043E-03 9.67274E-01 1.85250E-01 6.43057E-03 2.10221E-01 1.67582E-01 4.66337E+00-2.58711E+01-4.54401E+01



 n o d a l   p r i n t   o u t   f o r   t i m e  s t e p   18402                              ( at time 9.1995793E+00 )

 nodal point  x-rot      y-rot       z-rot       x-rot vel   y-rot vel   z-rot vel   x-rot acc   y-rot acc   z-rot acc
    22626 -1.56513E-02-3.28526E-05-3.26127E-04-7.19194E-03-3.38117E-05-1.83352E-04-1.43198E-03-3.21815E-06-4.74337E-05



 n o d a l   p r i n t   o u t   f o r   t i m e  s t e p   18602                              ( at time 9.2995693E+00 )

 nodal point  x-disp     y-disp      z-disp      x-vel       y-vel       z-vel      x-accl      y-accl      z-accl      x-coor      y-coor      z-coor
    22626  4.75369E-03 2.41757E+00-4.39072E-01 8.68763E-03 9.88781E-01 2.01750E-01 2.08741E-02 2.15091E-01 1.65012E-01 4.66413E+00-2.57733E+01-4.54208E+01



 n o d a l   p r i n t   o u t   f o r   t i m e  s t e p   18602                              ( at time 9.2995693E+00 )

 nodal point  x-rot      y-rot       z-rot       x-rot vel   y-rot vel   z-rot vel   x-rot acc   y-rot acc   z-rot acc
    22626 -1.63788E-02-3.43696E-05-3.43317E-04-7.34091E-03-2.84148E-06-1.61498E-04-1.48993E-03 3.09734E-04 2.18565E-04



 n o d a l   p r i n t   o u t   f o r   t i m e  s t e p   18802                              ( at time 9.3995593E+00 )

 nodal point  x-disp     y-disp      z-disp      x-vel       y-vel       z-vel      x-accl      y-accl      z-accl      x-coor      y-coor      z-coor
    22626  5.72028E-03 2.51747E+00-4.18064E-01 1.00379E-02 1.00971E+00 2.18927E-01 1.35039E-02 2.09310E-01 1.71792E-01 4.66510E+00-2.56734E+01-4.53998E+01



 n o d a l   p r i n t   o u t   f o r   t i m e  s t e p   18802                              ( at time 9.3995593E+00 )

 nodal point  x-rot      y-rot       z-rot       x-rot vel   y-rot vel   z-rot vel   x-rot acc   y-rot acc   z-rot acc
    22626 -1.71209E-02-3.56915E-05-3.58876E-04-7.48434E-03-2.12639E-05-1.50457E-04-1.43445E-03-1.84243E-04 1.10421E-04



 n o d a l   p r i n t   o u t   f o r   t i m e  s t e p   19002                              ( at time 9.4995493E+00 )

 nodal point  x-disp     y-disp      z-disp      x-vel       y-vel       z-vel      x-accl      y-accl      z-accl      x-coor      y-coor      z-coor
    22626  6.75060E-03 2.61945E+00-3.95262E-01 1.10308E-02 1.02943E+00 2.37353E-01 9.92972E-03 1.97247E-01 1.84278E-01 4.66613E+00-2.55714E+01-4.53770E+01



 n o d a l   p r i n t   o u t   f o r   t i m e  s t e p   19002                              ( at time 9.4995493E+00 )

 nodal point  x-rot      y-rot       z-rot       x-rot vel   y-rot vel   z-rot vel   x-rot acc   y-rot acc   z-rot acc
    22626 -1.78769E-02-3.70756E-05-3.73286E-04-7.62555E-03-2.08226E-06-1.33370E-04-1.41220E-03 1.91836E-04 1.70881E-04



 n o d a l   p r i n t   o u t   f o r   t i m e  s t e p   19202                              ( at time 9.5995393E+00 )

 nodal point  x-disp     y-disp      z-disp      x-vel       y-vel       z-vel      x-accl      y-accl      z-accl      x-coor      y-coor      z-coor
    22626  7.94142E-03 2.72340E+00-3.70512E-01 1.33935E-02 1.04954E+00 2.57508E-01 2.36294E-02 2.01074E-01 2.01569E-01 4.66732E+00-2.54674E+01-4.53522E+01



 n o d a l   p r i n t   o u t   f o r   t i m e  s t e p   19202                              ( at time 9.5995393E+00 )

 nodal point  x-rot      y-rot       z-rot       x-rot vel   y-rot vel   z-rot vel   x-rot acc   y-rot acc   z-rot acc
    22626 -1.86470E-02-3.60305E-05-3.85516E-04-7.77777E-03 2.14429E-05-1.08396E-04-1.52233E-03 2.35274E-04 2.49761E-04



 n o d a l   p r i n t   o u t   f o r   t i m e  s t e p   19402                              ( at time 9.6995293E+00 )

 nodal point  x-disp     y-disp      z-disp      x-vel       y-vel       z-vel      x-accl      y-accl      z-accl      x-coor      y-coor      z-coor
    22626  9.38137E-03 2.82929E+00-3.43745E-01 1.50551E-02 1.06794E+00 2.77771E-01 1.66182E-02 1.84077E-01 2.02649E-01 4.66876E+00-2.53615E+01-4.53255E+01



 n o d a l   p r i n t   o u t   f o r   t i m e  s t e p   19402                              ( at time 9.6995293E+00 )

 nodal point  x-rot      y-rot       z-rot       x-rot vel   y-rot vel   z-rot vel   x-rot acc   y-rot acc   z-rot acc
    22626 -1.94313E-02-3.25195E-05-3.94171E-04-7.91080E-03 4.14434E-05-6.16544E-05-1.33042E-03 2.00025E-04 4.67467E-04



 n o d a l   p r i n t   o u t   f o r   t i m e  s t e p   19602                              ( at time 9.7995193E+00 )

 nodal point  x-disp     y-disp      z-disp      x-vel       y-vel       z-vel      x-accl      y-accl      z-accl      x-coor      y-coor      z-coor
    22626  1.09603E-02 2.93701E+00-3.14933E-01 1.64710E-02 1.08639E+00 2.98956E-01 1.41600E-02 1.84438E-01 2.11872E-01 4.67034E+00-2.52538E+01-4.52967E+01



 n o d a l   p r i n t   o u t   f o r   t i m e  s t e p   19602                              ( at time 9.7995193E+00 )

 nodal point  x-rot      y-rot       z-rot       x-rot vel   y-rot vel   z-rot vel   x-rot acc   y-rot acc   z-rot acc
    22626 -2.02300E-02-2.75476E-05-3.99683E-04-8.06983E-03 5.78683E-05-4.97008E-05-1.59052E-03 1.64265E-04 1.19548E-04



 n o d a l   p r i n t   o u t   f o r   t i m e  s t e p   19802                              ( at time 9.8995093E+00 )

 nodal point  x-disp     y-disp      z-disp      x-vel       y-vel       z-vel      x-accl      y-accl      z-accl      x-coor      y-coor      z-coor
    22626  1.26720E-02 3.04650E+00-2.83873E-01 1.83740E-02 1.10379E+00 3.22045E-01 1.90316E-02 1.74086E-01 2.30914E-01 4.67205E+00-2.51443E+01-4.52656E+01



 n o d a l   p r i n t   o u t   f o r   t i m e  s t e p   19802                              ( at time 9.8995093E+00 )

 nodal point  x-rot      y-rot       z-rot       x-rot vel   y-rot vel   z-rot vel   x-rot acc   y-rot acc   z-rot acc
    22626 -2.10442E-02-2.05724E-05-4.03130E-04-8.22908E-03 9.13906E-05-1.44897E-05-1.59262E-03 3.35258E-04 3.52147E-04



 n o d a l   p r i n t   o u t   f o r   t i m e  s t e p   20003                              ( at time 9.9999992E+00 )

 nodal point  x-disp     y-disp      z-disp      x-vel       y-vel       z-vel      x-accl      y-accl      z-accl      x-coor      y-coor      z-coor
[...]
    22626 -1.99458E-01 3.29140E-03 4.16542E-03-1.88409E-02 5.05627E-05 2.92988E-04-3.11724E-04 2.21520E-05-9.29225E-05



 n o d a l   p r i n t   o u t   f o r   t i m e  s t e p   45205                              ( at time 2.2599738E+01 )

 nodal point  x-disp     y-disp      z-disp      x-vel       y-vel       z-vel      x-accl      y-accl      z-accl      x-coor      y-coor      z-coor
    22626  6.80426E-01 2.08127E+01 1.76759E+01 5.37062E-02 1.75581E+00 8.87303E-01 1.63233E-02 1.84791E-02-1.38961E-01 5.33980E+00-7.37817E+00-2.73059E+01



 n o d a l   p r i n t   o u t   f o r   t i m e  s t e p   45205                              ( at time 2.2599738E+01 )

 nodal point  x-rot      y-rot       z-rot       x-rot vel   y-rot vel   z-rot vel   x-rot acc   y-rot acc   z-rot acc
    22626 -2.01342E-01 3.29681E-03 4.19489E-03-1.88640E-02 5.17995E-05 3.02894E-04-2.31790E-04 1.23685E-05 9.90747E-05



 n o d a l   p r i n t   o u t   f o r   t i m e  s t e p   45405                              ( at time 2.2699728E+01 )

 nodal point  x-disp     y-disp      z-disp      x-vel       y-vel       z-vel      x-accl      y-accl      z-accl      x-coor      y-coor      z-coor
    22626  6.85744E-01 2.09884E+01 1.77640E+01 5.26015E-02 1.75868E+00 8.75262E-01-1.10489E-02 2.86778E-02-1.20428E-01 5.34512E+00-7.20240E+00-2.72177E+01



 n o d a l   p r i n t   o u t   f o r   t i m e  s t e p   45405                              ( at time 2.2699728E+01 )

 nodal point  x-rot      y-rot       z-rot       x-rot vel   y-rot vel   z-rot vel   x-rot acc   y-rot acc   z-rot acc
    22626 -2.03227E-01 3.30171E-03 4.22478E-03-1.88675E-02 5.07412E-05 2.97812E-04-3.47794E-05-1.05837E-05-5.08259E-05



 n o d a l   p r i n t   o u t   f o r   t i m e  s t e p   45605                              ( at time 2.2799718E+01 )

 nodal point  x-disp     y-disp      z-disp      x-vel       y-vel       z-vel      x-accl      y-accl      z-accl      x-coor      y-coor      z-coor
    22626  6.90960E-01 2.11644E+01 1.78510E+01 5.15146E-02 1.76106E+00 8.65854E-01-1.08702E-02 2.38142E-02-9.40838E-02 5.35034E+00-7.02643E+00-2.71307E+01



 n o d a l   p r i n t   o u t   f o r   t i m e  s t e p   45605                              ( at time 2.2799718E+01 )

 nodal point  x-rot      y-rot       z-rot       x-rot vel   y-rot vel   z-rot vel   x-rot acc   y-rot acc   z-rot acc
    22626 -2.05115E-01 3.30657E-03 4.25366E-03-1.89058E-02 3.78122E-05 2.87302E-04-3.82902E-04-1.29302E-04-1.05113E-04



 n o d a l   p r i n t   o u t   f o r   t i m e  s t e p   45805                              ( at time 2.2899708E+01 )

 nodal point  x-disp     y-disp      z-disp      x-vel       y-vel       z-vel      x-accl      y-accl      z-accl      x-coor      y-coor      z-coor
    22626  6.96133E-01 2.13405E+01 1.79370E+01 5.20774E-02 1.76286E+00 8.54604E-01 5.62872E-03 1.80252E-02-1.12513E-01 5.35551E+00-6.85030E+00-2.70447E+01



 n o d a l   p r i n t   o u t   f o r   t i m e  s t e p   45805                              ( at time 2.2899708E+01 )

 nodal point  x-rot      y-rot       z-rot       x-rot vel   y-rot vel   z-rot vel   x-rot acc   y-rot acc   z-rot acc
    22626 -2.07005E-01 3.31047E-03 4.28301E-03-1.88961E-02 5.35151E-05 2.92097E-04 9.67006E-05 1.57046E-04 4.79501E-05



 n o d a l   p r i n t   o u t   f o r   t i m e  s t e p   46005                              ( at time 2.2999698E+01 )

 nodal point  x-disp     y-disp      z-disp      x-vel       y-vel       z-vel      x-accl      y-accl      z-accl      x-coor      y-coor      z-coor
    22626  7.01386E-01 2.15168E+01 1.80220E+01 5.26732E-02 1.76351E+00 8.45770E-01 5.95877E-03 6.46054E-03-8.83499E-02 5.36076E+00-6.67398E+00-2.69597E+01



 n o d a l   p r i n t   o u t   f o r   t i m e  s t e p   46005                              ( at time 2.2999698E+01 )

 nodal point  x-rot      y-rot       z-rot       x-rot vel   y-rot vel   z-rot vel   x-rot acc   y-rot acc   z-rot acc
    22626 -2.08896E-01 3.31561E-03 4.31306E-03-1.89035E-02 5.77906E-05 3.08131E-04-7.40469E-05 4.27585E-05 1.60360E-04



 n o d a l   p r i n t   o u t   f o r   t i m e  s t e p   46205                              ( at time 2.3099688E+01 )

 nodal point  x-disp     y-disp      z-disp      x-vel       y-vel       z-vel      x-accl      y-accl      z-accl      x-coor      y-coor      z-coor
    22626  7.06596E-01 2.16932E+01 1.81062E+01 5.09704E-02 1.76444E+00 8.38096E-01-1.70300E-02 9.29578E-03-7.67447E-02 5.36597E+00-6.49759E+00-2.68755E+01



 n o d a l   p r i n t   o u t   f o r   t i m e  s t e p   46205                              ( at time 2.3099688E+01 )

 nodal point  x-rot      y-rot       z-rot       x-rot vel   y-rot vel   z-rot vel   x-rot acc   y-rot acc   z-rot acc
    22626 -2.10787E-01 3.32057E-03 4.34284E-03-1.89147E-02 4.50860E-05 2.93006E-04-1.11771E-04-1.27061E-04-1.51269E-04



 n o d a l   p r i n t   o u t   f o r   t i m e  s t e p   46405                              ( at time 2.3199678E+01 )

 nodal point  x-disp     y-disp      z-disp      x-vel       y-vel       z-vel      x-accl      y-accl      z-accl      x-coor      y-coor      z-coor
    22626  7.11763E-01 2.18697E+01 1.81896E+01 5.18083E-02 1.76561E+00 8.30686E-01 8.37991E-03 1.17146E-02-7.41144E-02 5.37114E+00-6.32111E+00-2.67921E+01



 n o d a l   p r i n t   o u t   f o r   t i m e  s t e p   46405                              ( at time 2.3199678E+01 )

 nodal point  x-rot      y-rot       z-rot       x-rot vel   y-rot vel   z-rot vel   x-rot acc   y-rot acc   z-rot acc
    22626 -2.12678E-01 3.32447E-03 4.37167E-03-1.89092E-02 3.78678E-05 2.87241E-04 5.47295E-05-7.21884E-05-5.76504E-05



 n o d a l   p r i n t   o u t   f o r   t i m e  s t e p   46605                              ( at time 2.3299668E+01 )

 nodal point  x-disp     y-disp      z-disp      x-vel       y-vel       z-vel      x-accl      y-accl      z-accl      x-coor      y-coor      z-coor
    22626  7.16918E-01 2.20463E+01 1.82723E+01 5.17774E-02 1.76605E+00 8.23817E-01-3.09308E-04 4.38500E-03-6.86936E-02 5.37629E+00-6.14453E+00-2.67094E+01



 n o d a l   p r i n t   o u t   f o r   t i m e  s t e p   46605                              ( at time 2.3299668E+01 )

 nodal point  x-rot      y-rot       z-rot       x-rot vel   y-rot vel   z-rot vel   x-rot acc   y-rot acc   z-rot acc
    22626 -2.14568E-01 3.32914E-03 4.40185E-03-1.88951E-02 5.68927E-05 3.06808E-04 1.41428E-04 1.90271E-04 1.95690E-04



 n o d a l   p r i n t   o u t   f o r   t i m e  s t e p   46805                              ( at time 2.3399658E+01 )

 nodal point  x-disp     y-disp      z-disp      x-vel       y-vel       z-vel      x-accl      y-accl      z-accl      x-coor      y-coor      z-coor
    22626  7.22146E-01 2.22229E+01 1.83544E+01 5.16181E-02 1.76579E+00 8.19343E-01-1.59304E-03-2.60496E-03-4.47416E-02 5.38152E+00-5.96793E+00-2.66273E+01



 n o d a l   p r i n t   o u t   f o r   t i m e  s t e p   46805                              ( at time 2.3399658E+01 )

 nodal point  x-rot      y-rot       z-rot       x-rot vel   y-rot vel   z-rot vel   x-rot acc   y-rot acc   z-rot acc
    22626 -2.16457E-01 3.33471E-03 4.43184E-03-1.88772E-02 5.54024E-05 2.94857E-04 1.78700E-04-1.49051E-05-1.19525E-04



 n o d a l   p r i n t   o u t   f o r   t i m e  s t e p   47005                              ( at time 2.3499648E+01 )

 nodal point  x-disp     y-disp      z-disp      x-vel       y-vel       z-vel      x-accl      y-accl      z-accl      x-coor      y-coor      z-coor
    22626  7.27243E-01 2.23995E+01 1.84362E+01 5.11434E-02 1.76646E+00 8.15215E-01-4.74709E-03 6.69898E-03-4.12842E-02 5.38662E+00-5.79133E+00-2.65455E+01



 n o d a l   p r i n t   o u t   f o r   t i m e  s t e p   47005                              ( at time 2.3499648E+01 )

 nodal point  x-rot      y-rot       z-rot       x-rot vel   y-rot vel   z-rot vel   x-rot acc   y-rot acc   z-rot acc
    22626 -2.18344E-01 3.33900E-03 4.46110E-03-1.88808E-02 3.40407E-05 2.98249E-04-3.55053E-05-2.13636E-04 3.39294E-05



 n o d a l   p r i n t   o u t   f o r   t i m e  s t e p   47205                              ( at time 2.3599638E+01 )

 nodal point  x-disp     y-disp      z-disp      x-vel       y-vel       z-vel      x-accl      y-accl      z-accl      x-coor      y-coor      z-coor
    22626  7.32407E-01 2.25761E+01 1.85175E+01 5.15738E-02 1.76552E+00 8.12261E-01 4.30419E-03-9.32797E-03-2.95421E-02 5.39178E+00-5.61476E+00-2.64642E+01



 n o d a l   p r i n t   o u t   f o r   t i m e  s t e p   47205                              ( at time 2.3599638E+01 )

 nodal point  x-rot      y-rot       z-rot       x-rot vel   y-rot vel   z-rot vel   x-rot acc   y-rot acc   z-rot acc
    22626 -2.20230E-01 3.34300E-03 4.49085E-03-1.88580E-02 4.81169E-05 2.95391E-04 2.28125E-04 1.40778E-04-2.85855E-05



 n o d a l   p r i n t   o u t   f o r   t i m e  s t e p   47405                              ( at time 2.3699628E+01 )

 nodal point  x-disp     y-disp      z-disp      x-vel       y-vel       z-vel      x-accl      y-accl      z-accl      x-coor      y-coor      z-coor
    22626  7.37547E-01 2.27526E+01 1.85986E+01 5.13529E-02 1.76516E+00 8.10317E-01-2.20915E-03-3.69225E-03-1.94454E-02 5.39692E+00-5.43825E+00-2.63831E+01



 n o d a l   p r i n t   o u t   f o r   t i m e  s t e p   47405                              ( at time 2.3699628E+01 )

 nodal point  x-rot      y-rot       z-rot       x-rot vel   y-rot vel   z-rot vel   x-rot acc   y-rot acc   z-rot acc
    22626 -2.22113E-01 3.34891E-03 4.52045E-03-1.88102E-02 5.22251E-05 2.93630E-04 4.77999E-04 4.10861E-05-1.76126E-05



 n o d a l   p r i n t   o u t   f o r   t i m e  s t e p   47605                              ( at time 2.3799618E+01 )

 nodal point  x-disp     y-disp      z-disp      x-vel       y-vel       z-vel      x-accl      y-accl      z-accl      x-coor      y-coor      z-coor
    22626  7.42628E-01 2.29290E+01 1.86796E+01 4.99651E-02 1.76459E+00 8.08806E-01-1.38791E-02-5.67737E-03-1.51138E-02 5.40200E+00-5.26181E+00-2.63022E+01



 n o d a l   p r i n t   o u t   f o r   t i m e  s t e p   47605                              ( at time 2.3799618E+01 )

 nodal point  x-rot      y-rot       z-rot       x-rot vel   y-rot vel   z-rot vel   x-rot acc   y-rot acc   z-rot acc
    22626 -2.23993E-01 3.35480E-03 4.54998E-03-1.87912E-02 6.68686E-05 2.94406E-04 1.89713E-04 1.46451E-04 7.75965E-06



 n o d a l   p r i n t   o u t   f o r   t i m e  s t e p   47805                              ( at time 2.3899608E+01 )

 nodal point  x-disp     y-disp      z-disp      x-vel       y-vel       z-vel      x-accl      y-accl      z-accl      x-coor      y-coor      z-coor
    22626  7.47597E-01 2.31054E+01 1.87604E+01 5.02646E-02 1.76312E+00 8.08439E-01 2.99481E-03-1.46999E-02-3.66662E-03 5.40697E+00-5.08545E+00-2.62213E+01



 n o d a l   p r i n t   o u t   f o r   t i m e  s t e p   47805                              ( at time 2.3899608E+01 )

 nodal point  x-rot      y-rot       z-rot       x-rot vel   y-rot vel   z-rot vel   x-rot acc   y-rot acc   z-rot acc
    22626 -2.25870E-01 3.36045E-03 4.57950E-03-1.87468E-02 6.13084E-05 2.96558E-04 4.44058E-04-5.56074E-05 2.15260E-05



 n o d a l   p r i n t   o u t   f o r   t i m e  s t e p   48005                              ( at time 2.3999598E+01 )

 nodal point  x-disp     y-disp      z-disp      x-vel       y-vel       z-vel      x-accl      y-accl      z-accl      x-coor      y-coor      z-coor
    22626  7.52632E-01 2.32816E+01 1.88412E+01 4.99995E-02 1.76239E+00 8.08710E-01-2.65099E-03-7.23561E-03 2.70635E-03 5.41201E+00-4.90918E+00-2.61405E+01



 n o d a l   p r i n t   o u t   f o r   t i m e  s t e p   48005                              ( at time 2.3999598E+01 )

 nodal point  x-rot      y-rot       z-rot       x-rot vel   y-rot vel   z-rot vel   x-rot acc   y-rot acc   z-rot acc
    22626 -2.27743E-01 3.36688E-03 4.60946E-03-1.86919E-02 7.49637E-05 3.01955E-04 5.49262E-04 1.36568E-04 5.39720E-05



 n o d a l   p r i n t   o u t   f o r   t i m e  s t e p   48205                              ( at time 2.4099588E+01 )

 nodal point  x-disp     y-disp      z-disp      x-vel       y-vel       z-vel      x-accl      y-accl      z-accl      x-coor      y-coor      z-coor
    22626  7.57660E-01 2.34577E+01 1.89221E+01 5.00081E-02 1.76043E+00 8.08781E-01 8.63601E-05-1.96546E-02 7.12341E-04 5.41703E+00-4.73309E+00-2.60596E+01



 n o d a l   p r i n t   o u t   f o r   t i m e  s t e p   48205                              ( at time 2.4099588E+01 )

 nodal point  x-rot      y-rot       z-rot       x-rot vel   y-rot vel   z-rot vel   x-rot acc   y-rot acc   z-rot acc
    22626 -2.29611E-01 3.37429E-03 4.63917E-03-1.86648E-02 6.58319E-05 2.93395E-04 2.71226E-04-9.13263E-05-8.56031E-05



 n o d a l   p r i n t   o u t   f o r   t i m e  s t e p   48405                              ( at time 2.4199578E+01 )

 nodal point  x-disp     y-disp      z-disp      x-vel       y-vel       z-vel      x-accl      y-accl      z-accl      x-coor      y-coor      z-coor
    22626  7.62632E-01 2.36337E+01 1.90031E+01 4.94248E-02 1.75828E+00 8.11062E-01-5.83370E-03-2.14803E-02 2.28126E-02 5.42201E+00-4.55715E+00-2.59787E+01



 n o d a l   p r i n t   o u t   f o r   t i m e  s t e p   48405                              ( at time 2.4199578E+01 )

 nodal point  x-rot      y-rot       z-rot       x-rot vel   y-rot vel   z-rot vel   x-rot acc   y-rot acc   z-rot acc
    22626 -2.31476E-01 3.38020E-03 4.66789E-03-1.86240E-02 5.61230E-05 2.89080E-04 4.08020E-04-9.71000E-05-4.31576E-05



 n o d a l   p r i n t   o u t   f o r   t i m e  s t e p   48605                              ( at time 2.4299568E+01 )

 nodal point  x-disp     y-disp      z-disp      x-vel       y-vel       z-vel      x-accl      y-accl      z-accl      x-coor      y-coor      z-coor
    22626  7.67575E-01 2.38094E+01 1.90842E+01 4.99921E-02 1.75604E+00 8.11773E-01 5.67272E-03-2.23693E-02 7.11149E-03 5.42695E+00-4.38142E+00-2.58975E+01



 n o d a l   p r i n t   o u t   f o r   t i m e  s t e p   48605                              ( at time 2.4299568E+01 )

 nodal point  x-rot      y-rot       z-rot       x-rot vel   y-rot vel   z-rot vel   x-rot acc   y-rot acc   z-rot acc
    22626 -2.33335E-01 3.38643E-03 4.69720E-03-1.85680E-02 7.49105E-05 3.01448E-04 5.59590E-04 1.87893E-04 1.23685E-04



 n o d a l   p r i n t   o u t   f o r   t i m e  s t e p   48805                              ( at time 2.4399558E+01 )

 nodal point  x-disp     y-disp      z-disp      x-vel       y-vel       z-vel      x-accl      y-accl      z-accl      x-coor      y-coor      z-coor
    22626  7.72551E-01 2.39850E+01 1.91655E+01 4.95109E-02 1.75429E+00 8.14643E-01-4.81188E-03-1.75683E-02 2.87023E-02 5.43193E+00-4.20588E+00-2.58162E+01



 n o d a l   p r i n t   o u t   f o r   t i m e  s t e p   48805                              ( at time 2.4399558E+01 )

 nodal point  x-rot      y-rot       z-rot       x-rot vel   y-rot vel   z-rot vel   x-rot acc   y-rot acc   z-rot acc
    22626 -2.35189E-01 3.39406E-03 4.72687E-03-1.85186E-02 8.00194E-05 2.94644E-04 4.93739E-04 5.10930E-05-6.80408E-05



 n o d a l   p r i n t   o u t   f o r   t i m e  s t e p   49006                              ( at time 2.4500048E+01 )

 nodal point  x-disp     y-disp      z-disp      x-vel       y-vel       z-vel      x-accl      y-accl      z-accl      x-coor      y-coor      z-coor
    22626  7.77493E-01 2.41611E+01 1.92477E+01 4.85559E-02 1.75142E+00 8.19973E-01-9.50371E-03-2.85387E-02 5.30399E-02 5.43687E+00-4.02976E+00-2.57340E+01



 n o d a l   p r i n t   o u t   f o r   t i m e  s t e p   49006                              ( at time 2.4500048E+01 )

 nodal point  x-rot      y-rot       z-rot       x-rot vel   y-rot vel   z-rot vel   x-rot acc   y-rot acc   z-rot acc
    22626 -2.37047E-01 3.40190E-03 4.75618E-03-1.84567E-02 6.53889E-05 2.87073E-04 6.16707E-04-1.45593E-04-7.53411E-05



 n o d a l   p r i n t   o u t   f o r   t i m e  s t e p   49206                              ( at time 2.4600038E+01 )

 nodal point  x-disp     y-disp      z-disp      x-vel       y-vel       z-vel      x-accl      y-accl      z-accl      x-coor      y-coor      z-coor
    22626  7.82357E-01 2.43361E+01 1.93298E+01 4.92820E-02 1.74832E+00 8.22798E-01 7.26163E-03-3.09913E-02 2.82522E-02 5.44173E+00-3.85478E+00-2.56519E+01



 n o d a l   p r i n t   o u t   f o r   t i m e  s t e p   49206                              ( at time 2.4600038E+01 )

 nodal point  x-rot      y-rot       z-rot       x-rot vel   y-rot vel   z-rot vel   x-rot acc   y-rot acc   z-rot acc
    22626 -2.38890E-01 3.40887E-03 4.78545E-03-1.83946E-02 7.18417E-05 2.93975E-04 6.20504E-04 6.45340E-05 6.90281E-05



 n o d a l   p r i n t   o u t   f o r   t i m e  s t e p   49406                              ( at time 2.4700028E+01 )

 nodal point  x-disp     y-disp      z-disp      x-vel       y-vel       z-vel      x-accl      y-accl      z-accl      x-coor      y-coor      z-coor
    22626  7.87319E-01 2.45107E+01 1.94124E+01 4.92556E-02 1.74472E+00 8.28624E-01-2.64078E-04-3.59766E-02 5.82706E-02 5.44669E+00-3.68014E+00-2.55694E+01



 n o d a l   p r i n t   o u t   f o r   t i m e  s t e p   49406                              ( at time 2.4700028E+01 )

 nodal point  x-rot      y-rot       z-rot       x-rot vel   y-rot vel   z-rot vel   x-rot acc   y-rot acc   z-rot acc
    22626 -2.40727E-01 3.41637E-03 4.81520E-03-1.83556E-02 8.63441E-05 2.99368E-04 3.90565E-04 1.45040E-04 5.39354E-05



 n o d a l   p r i n t   o u t   f o r   t i m e  s t e p   49606                              ( at time 2.4800018E+01 )

 nodal point  x-disp     y-disp      z-disp      x-vel       y-vel       z-vel      x-accl      y-accl      z-accl      x-coor      y-coor      z-coor
    22626  7.92244E-01 2.46849E+01 1.94956E+01 4.93460E-02 1.74085E+00 8.34706E-01 9.04471E-04-3.87120E-02 6.08178E-02 5.45162E+00-3.50589E+00-2.54862E+01



 n o d a l   p r i n t   o u t   f o r   t i m e  s t e p   49606                              ( at time 2.4800018E+01 )

 nodal point  x-rot      y-rot       z-rot       x-rot vel   y-rot vel   z-rot vel   x-rot acc   y-rot acc   z-rot acc
    22626 -2.42558E-01 3.42465E-03 4.84463E-03-1.82856E-02 7.99773E-05 2.87967E-04 7.00046E-04-6.36740E-05-1.14022E-04



 n o d a l   p r i n t   o u t   f o r   t i m e  s t e p   49806                              ( at time 2.4900008E+01 )

 nodal point  x-disp     y-disp      z-disp      x-vel       y-vel       z-vel      x-accl      y-accl      z-accl      x-coor      y-coor      z-coor
    22626  7.97117E-01 2.48588E+01 1.95793E+01 4.80299E-02 1.73661E+00 8.41637E-01-1.31625E-02-4.24623E-02 6.93237E-02 5.45649E+00-3.33205E+00-2.54024E+01



 n o d a l   p r i n t   o u t   f o r   t i m e  s t e p   49806                              ( at time 2.4900008E+01 )

 nodal point  x-rot      y-rot       z-rot       x-rot vel   y-rot vel   z-rot vel   x-rot acc   y-rot acc   z-rot acc
    22626 -2.44384E-01 3.43224E-03 4.87387E-03-1.82197E-02 7.66291E-05 2.91130E-04 6.58723E-04-3.34864E-05 3.16338E-05



 n o d a l   p r i n t   o u t   f o r   t i m e  s t e p   50006                              ( at time 2.4999998E+01 )

 nodal point  x-disp     y-disp      z-disp      x-vel       y-vel       z-vel      x-accl      y-accl      z-accl      x-coor      y-coor      z-coor
    22626  8.01987E-01 2.50322E+01 1.96638E+01 4.97076E-02 1.73171E+00 8.48845E-01 1.67785E-02-4.90186E-02 7.20889E-02 5.46136E+00-3.15865E+00-2.53179E+01



 n o d a l   p r i n t   o u t   f o r   t i m e  s t e p   50006                              ( at time 2.4999998E+01 )

 nodal point  x-rot      y-rot       z-rot       x-rot vel   y-rot vel   z-rot vel   x-rot acc   y-rot acc   z-rot acc
    22626 -2.46203E-01 3.44045E-03 4.90362E-03-1.81617E-02 8.05481E-05 2.94141E-04 5.79820E-04 3.91943E-05 3.01110E-05
