 LSTC 50th% Full_FE H-III Dummy (Beta Version, February 17, 2019)        
                    ls-dyna smp s R16 R16.0_619_d222963 date 03/18/2025

{BEGIN LEGEND}
 Entity #        Title
        1     Upper_Neck_Force_INJURY                                              
{END LEGEND}



 line#1  section#     time        x-force     y-force     z-force    magnitude
 line#2  resultant  moments       x-moment    y-moment    z-moment   magnitude
 line#3  centroids                x           y           z            area  
           1    0.00000E+00     0.0000E+00  0.0000E+00  0.0000E+00  0.0000E+00
ac ID =   33377                 0.0000E+00  0.0000E+00  0.0000E+00  0.0000E+00
                               -3.7437E-01  1.0501E+01 -4.6940E+01  0.0000E+00

           1    1.00490E-01     1.3583E-04 -4.9912E-03  2.5982E-01  2.5986E-01
ac ID =   33377                 4.2544E-01 -1.2521E+00 -2.7114E-02  1.3227E+00
                               -3.7387E-01  1.0590E+01 -4.6886E+01  2.5147E+03

           1    2.00480E-01    -4.4331E-02  6.2142E-04  4.4114E-01  4.4336E-01
ac ID =   33377                 3.0919E-01 -1.5973E+00  2.2412E-02  1.6271E+00
                               -3.7386E-01  1.0591E+01 -4.6888E+01  2.5147E+03

           1    3.00470E-01     1.5098E-02 -3.0483E-03  2.1761E-01  2.1815E-01
ac ID =   33377                 2.1843E-02 -3.4019E-01  6.6198E-02  3.4726E-01
                               -3.7382E-01  1.0591E+01 -4.6889E+01  2.5147E+03

           1    4.00460E-01     2.7456E-03  1.0509E-02  8.8006E-02  8.8674E-02
ac ID =   33377                -4.9357E-01 -9.4532E-01  1.3673E-03  1.0664E+00
                               -3.7384E-01  1.0592E+01 -4.6890E+01  2.5147E+03

           1    5.00450E-01    -4.0823E-02  4.5267E-03  1.6174E-01  1.6687E-01
ac ID =   33377                -3.9645E-01 -1.5077E+00 -1.1437E-01  1.5632E+00
                               -3.7385E-01  1.0594E+01 -4.6893E+01  2.5147E+03

           1    6.00440E-01    -1.0604E-02  4.0679E-03  3.4346E-01  3.4365E-01
ac ID =   33377                 9.4993E-02 -1.3279E+00 -3.4381E-02  1.3318E+00
                               -3.7385E-01  1.0595E+01 -4.6897E+01  2.5147E+03

           1    7.00430E-01     2.8003E-03 -5.5901E-03  2.9469E-01  2.9475E-01
ac ID =   33377                 1.3782E-01 -5.0295E-01  8.2241E-02  5.2793E-01
                               -3.7389E-01  1.0597E+01 -4.6901E+01  2.5147E+03

           1    8.00420E-01    -3.0681E-02 -1.3055E-03  1.0045E-01  1.0504E-01
ac ID =   33377                 8.4598E-02 -1.0557E+00  5.0787E-02  1.0603E+00
                               -3.7394E-01  1.0599E+01 -4.6905E+01  2.5147E+03

           1    9.00410E-01    -3.9204E-02  1.1138E-03  6.2586E-02  7.3860E-02
ac ID =   33377                 9.0807E-02 -1.0691E+00  2.4487E-03  1.0730E+00
                               -3.7399E-01  1.0601E+01 -4.6909E+01  2.5147E+03

           1    1.00040E+00     1.4645E-02 -4.1457E-03  2.2088E-01  2.2141E-01
ac ID =   33377                 3.7083E-01 -2.8555E-01 -6.3520E-02  4.7232E-01
                               -3.7400E-01  1.0604E+01 -4.6915E+01  2.5147E+03

           1    1.10039E+00     6.4215E-04 -3.0652E-03  2.7091E-01  2.7093E-01
ac ID =   33377                 3.4428E-01 -8.8471E-01 -4.9951E-02  9.5065E-01
                               -3.7401E-01  1.0607E+01 -4.6921E+01  2.5147E+03

           1    1.20038E+00    -3.2044E-02 -3.1525E-04  1.2933E-01  1.3324E-01
ac ID =   33377                -1.5478E-01 -1.1851E+00  7.9375E-03  1.1951E+00
                               -3.7403E-01  1.0610E+01 -4.6927E+01  2.5147E+03

           1    1.30037E+00    -1.0093E-02  4.6174E-03  7.4541E-02  7.5363E-02
ac ID =   33377                -2.9875E-01 -8.8835E-01  1.4986E-02  9.3736E-01
                               -3.7407E-01  1.0612E+01 -4.6933E+01  2.5147E+03

           1    1.40036E+00     7.8405E-03  3.9723E-03  1.7344E-01  1.7366E-01
ac ID =   33377                -2.9218E-01 -8.3098E-01  2.4812E-02  8.8120E-01
                               -3.7409E-01  1.0616E+01 -4.6941E+01  2.5147E+03

           1    1.50035E+00    -2.7090E-02  1.0573E-03  3.2861E-01  3.2973E-01
ac ID =   33377                -1.3808E-02 -1.5797E+00 -4.3602E-02  1.5804E+00
                               -3.7413E-01  1.0620E+01 -4.6949E+01  2.5147E+03

           1    1.60034E+00    -1.8926E-02 -2.3795E-03  2.2099E-01  2.2181E-01
ac ID =   33377                -2.1651E-02 -1.3760E+00 -1.9119E-02  1.3763E+00
                               -3.7420E-01  1.0624E+01 -4.6957E+01  2.5147E+03

           1    1.70033E+00    -2.8637E-03 -5.3200E-04  5.8543E-02  5.8615E-02
ac ID =   33377                -4.2843E-02 -6.7040E-01  8.8735E-02  6.7760E-01
                               -3.7427E-01  1.0627E+01 -4.6965E+01  2.5147E+03

           1    1.80032E+00    -2.0123E-02  1.1627E-03  7.7541E-02  8.0118E-02
ac ID =   33377                 8.2453E-02 -1.1132E+00  1.2542E-01  1.1233E+00
                               -3.7434E-01  1.0632E+01 -4.6974E+01  2.5147E+03

           1    1.90031E+00    -7.7188E-03 -2.8476E-03  1.9150E-01  1.9167E-01
ac ID =   33377                 2.7187E-01 -8.1759E-01 -7.2375E-02  8.6464E-01
                               -3.7439E-01  1.0636E+01 -4.6984E+01  2.5147E+03

           1    2.00030E+00    -1.9679E-03 -4.5739E-03  1.5654E-01  1.5662E-01
ac ID =   33377                 2.0672E-01 -4.4457E-01 -1.4693E-01  5.1182E-01
                               -3.7444E-01  1.0641E+01 -4.6993E+01  2.5147E+03

           1    2.10029E+00    -2.5288E-02  2.4058E-03  2.4643E-03  2.5522E-02
ac ID =   33377                -7.4970E-02 -6.9660E-01  3.6725E-02  7.0159E-01
                               -3.7450E-01  1.0645E+01 -4.7003E+01  2.5147E+03

           1    2.20028E+00    -1.2961E-02  4.9344E-03  3.5468E-03  1.4314E-02
ac ID =   33377                -2.3812E-01 -6.5932E-01  2.5675E-02  7.0147E-01
                               -3.7456E-01  1.0650E+01 -4.7013E+01  2.5147E+03

           1    2.30027E+00     1.1544E-03  4.9519E-03  1.4873E-01  1.4882E-01
ac ID =   33377                -1.4603E-01 -8.1536E-01 -6.5035E-02  8.3088E-01
                               -3.7461E-01  1.0655E+01 -4.7024E+01  2.5147E+03

           1    2.40026E+00    -1.7711E-02 -1.7160E-03  1.8858E-01  1.8942E-01
ac ID =   33377                -1.5459E-01 -1.1851E+00  7.1960E-02  1.1974E+00
                               -3.7469E-01  1.0661E+01 -4.7035E+01  2.5147E+03

           1    2.50025E+00    -1.8460E-02  1.2439E-03  2.7069E-04  1.8504E-02
ac ID =   33377                -1.9762E-01 -8.8964E-01  1.3105E-01  9.2070E-01
                               -3.7479E-01  1.0665E+01 -4.7045E+01  2.5147E+03

           1    2.60024E+00    -6.8587E-03  6.0608E-03 -7.6595E-02  7.7140E-02
ac ID =   33377                -2.0867E-01 -1.8177E-01  3.4025E-02  2.7882E-01
                               -3.7490E-01  1.0671E+01 -4.7056E+01  2.5147E+03

           1    2.70023E+00    -1.2146E-02 -1.8873E-03  9.9104E-03  1.5789E-02
ac ID =   33377                 3.0537E-02 -2.1185E-01  3.7227E-02  2.1725E-01
                               -3.7501E-01  1.0676E+01 -4.7068E+01  2.5147E+03

           1    2.80022E+00    -5.6499E-03 -4.5955E-03  6.3215E-02  6.3634E-02
ac ID =   33377                 3.6924E-01 -1.3660E-01 -2.0139E-02  3.9421E-01
                               -3.7511E-01  1.0682E+01 -4.7079E+01  2.5147E+03

           1    2.90021E+00     5.0108E-03 -2.7583E-03 -9.8584E-03  1.1398E-02
ac ID =   33377                 1.4459E-01  3.0955E-01 -8.0983E-02  3.5112E-01
                               -3.7520E-01  1.0687E+01 -4.7090E+01  2.5147E+03

           1    3.00020E+00    -6.9997E-03  1.9507E-03 -8.9018E-02  8.9314E-02
ac ID =   33377                -3.3399E-02  7.6271E-02 -5.4156E-02  9.9326E-02
                               -3.7530E-01  1.0692E+01 -4.7101E+01  2.5147E+03

           1    3.10019E+00    -2.4330E-03  4.3161E-04 -9.0532E-03  9.3843E-03
ac ID =   33377                 4.0006E-02 -2.5679E-01 -3.2948E-02  2.6197E-01
                               -3.7538E-01  1.0698E+01 -4.7113E+01  2.5147E+03

           1    3.20018E+00     3.6863E-03  2.0610E-03  6.9510E-02  6.9638E-02
ac ID =   33377                -2.2975E-02 -3.3579E-01  1.7253E-02  3.3702E-01
                               -3.7545E-01  1.0703E+01 -4.7125E+01  2.5147E+03

           1    3.30017E+00     3.4335E-04  1.0279E-03  1.3451E-02  1.3494E-02
ac ID =   33377                -2.3027E-01 -3.5849E-01  1.1139E-01  4.4040E-01
                               -3.7554E-01  1.0708E+01 -4.7137E+01  2.5147E+03

           1    3.40016E+00    -2.6573E-03  2.9678E-03 -1.0077E-01  1.0085E-01
ac ID =   33377                -3.0812E-01 -2.7518E-02  1.1574E-01  3.3029E-01
                               -3.7565E-01  1.0713E+01 -4.7148E+01  2.5147E+03

           1    3.50015E+00    -4.9185E-03  3.1947E-03 -1.3203E-01  1.3216E-01
ac ID =   33377                -1.5951E-01  2.7039E-01  4.6353E-02  3.1734E-01
                               -3.7576E-01  1.0719E+01 -4.7160E+01  2.5147E+03

           1    3.60014E+00     7.0145E-03 -3.0325E-03 -5.4638E-02  5.5170E-02
ac ID =   33377                 1.2463E-01  7.6010E-01 -9.6076E-02  7.7622E-01
                               -3.7586E-01  1.0724E+01 -4.7172E+01  2.5147E+03

           1    3.70013E+00     1.2278E-02 -4.9302E-03 -4.9132E-02  5.0883E-02
ac ID =   33377                 3.0737E-01  8.9030E-01 -1.6733E-01  9.5662E-01
                               -3.7596E-01  1.0729E+01 -4.7183E+01  2.5147E+03

           1    3.80012E+00     1.1834E-02 -2.2203E-03 -1.3497E-01  1.3551E-01
ac ID =   33377                 2.3262E-01  1.1376E+00 -7.0495E-02  1.1633E+00
                               -3.7605E-01  1.0734E+01 -4.7195E+01  2.5147E+03

           1    3.90011E+00     1.4906E-02  8.7053E-05 -2.0068E-01  2.0123E-01
ac ID =   33377                 1.4382E-01  1.2450E+00 -9.2203E-02  1.2566E+00
                               -3.7613E-01  1.0739E+01 -4.7206E+01  2.5147E+03

           1    4.00010E+00     1.2584E-02 -8.0349E-04 -1.5024E-01  1.5077E-01
ac ID =   33377                -5.6939E-02  8.5134E-01 -4.4462E-02  8.5440E-01
                               -3.7618E-01  1.0744E+01 -4.7217E+01  2.5147E+03

           1    4.10009E+00     1.8646E-02  1.1518E-03 -1.2023E-01  1.2167E-01
ac ID =   33377                -1.1635E-01  7.9337E-01  2.9679E-02  8.0241E-01
                               -3.7622E-01  1.0750E+01 -4.7229E+01  2.5147E+03

           1    4.20008E+00     1.5083E-02  4.6294E-03 -1.7072E-01  1.7145E-01
ac ID =   33377                -2.7351E-01  8.5503E-01  1.4359E-01  9.0912E-01
                               -3.7627E-01  1.0755E+01 -4.7239E+01  2.5147E+03

           1    4.30007E+00     2.0378E-02  5.4544E-03 -2.7515E-01  2.7596E-01
ac ID =   33377                -3.6615E-01  1.3022E+00  1.3863E-01  1.3598E+00
                               -3.7633E-01  1.0760E+01 -4.7250E+01  2.5147E+03

           1    4.40006E+00     3.3107E-02  4.7544E-03 -2.5076E-01  2.5298E-01
ac ID =   33377                -1.8816E-01  1.6943E+00 -5.4116E-02  1.7055E+00
                               -3.7638E-01  1.0766E+01 -4.7261E+01  2.5147E+03

           1    4.50005E+00     3.2821E-02 -7.7949E-04 -1.8024E-01  1.8321E-01
ac ID =   33377                 1.2045E-01  1.5264E+00 -1.2959E-01  1.5367E+00
                               -3.7642E-01  1.0772E+01 -4.7272E+01  2.5147E+03

           1    4.60004E+00     4.1219E-02 -2.9436E-03 -2.3176E-01  2.3542E-01
ac ID =   33377                 2.3507E-01  1.6837E+00 -5.8943E-02  1.7010E+00
                               -3.7647E-01  1.0778E+01 -4.7283E+01  2.5147E+03

           1    4.70003E+00     4.5917E-02  4.3355E-03 -3.1548E-01  3.1883E-01
ac ID =   33377                 4.5648E-02  1.7377E+00 -1.8397E-02  1.7384E+00
                               -3.7651E-01  1.0785E+01 -4.7293E+01  2.5147E+03

           1    4.80002E+00     4.8057E-02 -2.1445E-03 -3.4952E-01  3.5281E-01
ac ID =   33377                 5.1249E-02  1.8237E+00 -2.6578E-02  1.8246E+00
                               -3.7653E-01  1.0793E+01 -4.7304E+01  2.5147E+03

           1    4.90001E+00     5.0539E-02  1.5563E-03 -2.9866E-01  3.0291E-01
ac ID =   33377                -7.3003E-02  1.8719E+00 -8.5041E-03  1.8734E+00
                               -3.7653E-01  1.0801E+01 -4.7315E+01  2.5147E+03

           1    5.00000E+00     5.9383E-02  2.2422E-03 -2.9525E-01  3.0117E-01
ac ID =   33377                -3.2787E-01  2.0844E+00  1.2801E-01  2.1139E+00
                               -3.7654E-01  1.0810E+01 -4.7326E+01  2.5147E+03

           1    5.10049E+00     6.2594E-02  6.3339E-03 -3.9198E-01  3.9700E-01
ac ID =   33377                -3.2019E-01  2.2976E+00  6.1868E-02  2.3206E+00
                               -3.7657E-01  1.0821E+01 -4.7337E+01  2.5147E+03

           1    5.20048E+00     6.9303E-02  4.9821E-03 -4.2804E-01  4.3364E-01
ac ID =   33377                -3.6405E-01  2.6132E+00 -5.5274E-02  2.6390E+00
                               -3.7658E-01  1.0832E+01 -4.7348E+01  2.5147E+03

           1    5.30047E+00     7.6248E-02  2.7531E-03 -4.1682E-01  4.2375E-01
ac ID =   33377                -3.3832E-01  2.7104E+00 -3.3003E-02  2.7316E+00
                               -3.7660E-01  1.0845E+01 -4.7360E+01  2.5147E+03

           1    5.40046E+00     8.3167E-02  4.1578E-03 -4.0878E-01  4.1718E-01
ac ID =   33377                 9.6439E-03  2.7817E+00  3.4742E-02  2.7820E+00
                               -3.7664E-01  1.0859E+01 -4.7372E+01  2.5147E+03

           1    5.50045E+00     8.8393E-02 -2.6450E-03 -4.9960E-01  5.0736E-01
ac ID =   33377                 1.0297E-01  3.0319E+00 -7.2676E-02  3.0346E+00
                               -3.7665E-01  1.0874E+01 -4.7384E+01  2.5147E+03

           1    5.60044E+00     8.8805E-02  1.3840E-03 -5.8827E-01  5.9494E-01
ac ID =   33377                -1.1550E-01  3.2648E+00 -1.8089E-01  3.2719E+00
                               -3.7664E-01  1.0891E+01 -4.7396E+01  2.5147E+03

           1    5.70043E+00     9.1371E-02  3.4743E-03 -5.9268E-01  5.9969E-01
ac ID =   33377                -2.4182E-01  3.2844E+00 -9.0486E-03  3.2933E+00
                               -3.7663E-01  1.0909E+01 -4.7409E+01  2.5147E+03

           1    5.80042E+00     1.0284E-01  3.5340E-03 -5.7137E-01  5.8056E-01
ac ID =   33377                 6.7523E-03  3.3780E+00  1.9014E-01  3.3834E+00
                               -3.7661E-01  1.0930E+01 -4.7422E+01  2.5147E+03

           1    5.90041E+00     1.0869E-01  2.1078E-04 -5.9822E-01  6.0802E-01
ac ID =   33377                -2.4323E-01  3.7011E+00  2.3473E-01  3.7165E+00
                               -3.7653E-01  1.0951E+01 -4.7435E+01  2.5147E+03

           1    6.00040E+00     1.0420E-01  1.2792E-02 -6.6319E-01  6.7145E-01
ac ID =   33377                -7.0785E-01  3.6721E+00  5.2257E-02  3.7400E+00
                               -3.7648E-01  1.0975E+01 -4.7449E+01  2.5147E+03

           1    6.10039E+00     1.1460E-01  6.9021E-03 -6.8442E-01  6.9398E-01
ac ID =   33377                -3.2419E-01  3.7477E+00 -2.1857E-01  3.7680E+00
                               -3.7644E-01  1.1000E+01 -4.7462E+01  2.5147E+03

           1    6.20038E+00     1.1870E-01  5.9863E-04 -6.6799E-01  6.7845E-01
ac ID =   33377                -1.9453E-01  3.6313E+00 -5.0862E-02  3.6369E+00
                               -3.7632E-01  1.1028E+01 -4.7477E+01  2.5147E+03

           1    6.30037E+00     1.1658E-01  1.3711E-03 -6.9535E-01  7.0506E-01
ac ID =   33377                -1.3887E-01  3.5813E+00  9.5144E-03  3.5840E+00
                               -3.7622E-01  1.1057E+01 -4.7492E+01  2.5147E+03

           1    6.40036E+00     1.1910E-01  1.2408E-02 -7.9200E-01  8.0100E-01
ac ID =   33377                -4.2948E-01  4.0270E+00  2.1194E-02  4.0499E+00
                               -3.7614E-01  1.1089E+01 -4.7507E+01  2.5147E+03

           1    6.50035E+00     1.3259E-01 -3.1563E-03 -8.5826E-01  8.6844E-01
ac ID =   33377                 1.0197E-01  4.5771E+00 -8.9506E-02  4.5792E+00
                               -3.7600E-01  1.1122E+01 -4.7522E+01  2.5147E+03

           1    6.60034E+00     1.3021E-01 -5.7934E-03 -8.5351E-01  8.6340E-01
ac ID =   33377                -5.6881E-03  4.6482E+00  2.7683E-03  4.6482E+00
                               -3.7580E-01  1.1158E+01 -4.7538E+01  2.5147E+03

           1    6.70033E+00     1.3213E-01  1.5595E-02 -8.5403E-01  8.6433E-01
ac ID =   33377                -5.6261E-01  4.6715E+00  9.7780E-02  4.7063E+00
                               -3.7561E-01  1.1196E+01 -4.7554E+01  2.5147E+03

           1    6.80032E+00     1.5025E-01  5.8590E-03 -9.1672E-01  9.2897E-01
ac ID =   33377                -3.5463E-01  5.1830E+00  1.8411E-02  5.1951E+00
                               -3.7539E-01  1.1235E+01 -4.7570E+01  2.5147E+03

           1    6.90031E+00     1.4337E-01 -2.5345E-03 -9.8474E-01  9.9512E-01
ac ID =   33377                -3.0125E-01  5.2055E+00 -7.9041E-02  5.2148E+00
                               -3.7512E-01  1.1277E+01 -4.7587E+01  2.5147E+03

           1    7.00030E+00     1.3781E-01  1.0953E-02 -9.9898E-01  1.0085E+00
ac ID =   33377                -7.0254E-01  5.0470E+00  2.6242E-02  5.0957E+00
                               -3.7486E-01  1.1322E+01 -4.7604E+01  2.5147E+03

           1    7.10029E+00     1.6228E-01  1.9542E-02 -1.0383E+00  1.0511E+00
ac ID =   33377                -6.3955E-01  5.5634E+00  4.4624E-02  5.6003E+00
                               -3.7458E-01  1.1369E+01 -4.7621E+01  2.5147E+03

           1    7.20028E+00     1.6050E-01 -3.9372E-03 -1.1061E+00  1.1176E+00
ac ID =   33377                -2.0132E-01  5.7092E+00  1.3883E-02  5.7128E+00
                               -3.7423E-01  1.1417E+01 -4.7639E+01  2.5147E+03

           1    7.30027E+00     1.4533E-01  5.2846E-03 -1.1995E+00  1.2083E+00
ac ID =   33377                -4.5077E-01  5.9580E+00 -5.0911E-02  5.9753E+00
                               -3.7385E-01  1.1468E+01 -4.7656E+01  2.5147E+03

           1    7.40026E+00     1.7648E-01  1.4378E-02 -1.2642E+00  1.2765E+00
ac ID =   33377                -4.0179E-01  6.9440E+00 -6.4394E-02  6.9559E+00
                               -3.7347E-01  1.1522E+01 -4.7674E+01  2.5147E+03

           1    7.50025E+00     1.8402E-01  1.2143E-02 -1.2600E+00  1.2734E+00
ac ID =   33377                -3.2338E-01  7.0249E+00  1.8082E-01  7.0347E+00
                               -3.7301E-01  1.1577E+01 -4.7691E+01  2.5147E+03

           1    7.60024E+00     1.7668E-01 -7.8182E-03 -1.2953E+00  1.3073E+00
ac ID =   33377                -3.5817E-03  6.9699E+00  3.6941E-02  6.9700E+00
                               -3.7243E-01  1.1635E+01 -4.7709E+01  2.5147E+03

           1    7.70023E+00     1.9241E-01  1.8715E-02 -1.3568E+00  1.3705E+00
ac ID =   33377                -8.8929E-01  7.2504E+00 -7.9523E-02  7.3052E+00
                               -3.7187E-01  1.1696E+01 -4.7726E+01  2.5147E+03

           1    7.80022E+00     1.8864E-01  1.3497E-02 -1.4050E+00  1.4176E+00
ac ID =   33377                -6.0633E-01  7.1916E+00 -2.8741E-01  7.2228E+00
                               -3.7126E-01  1.1758E+01 -4.7744E+01  2.5147E+03

           1    7.90021E+00     1.9266E-01  5.6508E-03 -1.4424E+00  1.4553E+00
ac ID =   33377                -7.2630E-01  7.3547E+00 -1.1583E-02  7.3905E+00
                               -3.7053E-01  1.1823E+01 -4.7761E+01  2.5147E+03

           1    8.00020E+00     1.9573E-01  1.0664E-02 -1.4849E+00  1.4978E+00
ac ID =   33377                -6.5047E-01  7.5108E+00 -1.9985E-02  7.5390E+00
                               -3.6980E-01  1.1890E+01 -4.7778E+01  2.5147E+03

           1    8.10019E+00     2.1896E-01  1.5905E-02 -1.5768E+00  1.5920E+00
ac ID =   33377                -9.2901E-01  8.4220E+00 -1.0017E-01  8.4737E+00
                               -3.6904E-01  1.1960E+01 -4.7795E+01  2.5147E+03

           1    8.20018E+00     2.1476E-01  1.7994E-02 -1.6483E+00  1.6623E+00
ac ID =   33377                -7.7660E-01  8.6819E+00 -6.9469E-02  8.7169E+00
                               -3.6823E-01  1.2031E+01 -4.7811E+01  2.5147E+03

           1    8.30017E+00     2.1867E-01 -8.1697E-03 -1.6850E+00  1.6992E+00
ac ID =   33377                -1.5808E-01  9.0478E+00  9.0844E-03  9.0492E+00
                               -3.6736E-01  1.2106E+01 -4.7827E+01  2.5147E+03

           1    8.40016E+00     2.3824E-01  9.3085E-03 -1.7212E+00  1.7376E+00
ac ID =   33377                -5.4187E-01  9.5162E+00  7.2169E-02  9.5319E+00
                               -3.6647E-01  1.2182E+01 -4.7843E+01  2.5147E+03

           1    8.50015E+00     2.3242E-01  1.7664E-02 -1.7931E+00  1.8082E+00
ac ID =   33377                -9.9748E-01  9.8125E+00 -5.8345E-02  9.8633E+00
                               -3.6555E-01  1.2261E+01 -4.7858E+01  2.5147E+03

           1    8.60014E+00     2.2991E-01  1.0149E-02 -1.8602E+00  1.8744E+00
ac ID =   33377                -6.3855E-01  9.8039E+00 -2.7129E-01  9.8284E+00
                               -3.6455E-01  1.2341E+01 -4.7873E+01  2.5147E+03

           1    8.70013E+00     2.4314E-01  6.7899E-04 -1.9192E+00  1.9346E+00
ac ID =   33377                -7.7532E-01  1.0225E+01 -1.7664E-01  1.0256E+01
                               -3.6338E-01  1.2424E+01 -4.7887E+01  2.5147E+03

           1    8.80012E+00     2.5257E-01  3.1814E-02 -1.9875E+00  2.0037E+00
ac ID =   33377                -1.5073E+00  1.0495E+01  7.2019E-03  1.0603E+01
                               -3.6226E-01  1.2510E+01 -4.7900E+01  2.5147E+03

           1    8.90011E+00     2.5113E-01  1.3861E-02 -2.0318E+00  2.0473E+00
ac ID =   33377                -9.7226E-01  1.0717E+01  1.3178E-01  1.0762E+01
                               -3.6111E-01  1.2597E+01 -4.7913E+01  2.5147E+03

           1    9.00010E+00     2.7072E-01  7.0038E-03 -2.1156E+00  2.1328E+00
ac ID =   33377                -9.4424E-01  1.1573E+01  2.5207E-01  1.1614E+01
                               -3.5984E-01  1.2687E+01 -4.7925E+01  2.5147E+03

           1    9.10009E+00     2.8039E-01  1.5081E-02 -2.1702E+00  2.1883E+00
ac ID =   33377                -9.8198E-01  1.2022E+01  1.0431E-01  1.2063E+01
                               -3.5856E-01  1.2779E+01 -4.7936E+01  2.5147E+03

           1    9.20008E+00     2.7934E-01  2.0773E-02 -2.2145E+00  2.2321E+00
ac ID =   33377                -8.9144E-01  1.2086E+01 -1.3388E-02  1.2119E+01
                               -3.5722E-01  1.2873E+01 -4.7945E+01  2.5147E+03

           1    9.30007E+00     2.9193E-01 -6.3874E-03 -2.2712E+00  2.2899E+00
ac ID =   33377                -3.1134E-01  1.2434E+01 -1.2483E-01  1.2438E+01
                               -3.5576E-01  1.2969E+01 -4.7954E+01  2.5147E+03

           1    9.40006E+00     2.8091E-01  1.1381E-02 -2.3319E+00  2.3487E+00
ac ID =   33377                -1.0472E+00  1.2340E+01 -5.4361E-03  1.2384E+01
                               -3.5422E-01  1.3067E+01 -4.7962E+01  2.5147E+03

           1    9.50005E+00     2.9226E-01  1.9791E-02 -2.4026E+00  2.4204E+00
ac ID =   33377                -1.3062E+00  1.2989E+01  3.2022E-02  1.3055E+01
                               -3.5265E-01  1.3167E+01 -4.7968E+01  2.5147E+03

           1    9.60004E+00     3.0400E-01  2.0524E-03 -2.4231E+00  2.4421E+00
ac ID =   33377                -8.5248E-01  1.3371E+01  9.7141E-02  1.3398E+01
                               -3.5094E-01  1.3269E+01 -4.7973E+01  2.5147E+03

           1    9.70003E+00     3.1322E-01  4.9909E-03 -2.4652E+00  2.4850E+00
ac ID =   33377                -1.0623E+00  1.3858E+01 -5.8132E-03  1.3899E+01
                               -3.4919E-01  1.3372E+01 -4.7977E+01  2.5147E+03

           1    9.80002E+00     3.1050E-01  1.6597E-02 -2.5137E+00  2.5329E+00
ac ID =   33377                -1.2004E+00  1.4005E+01 -1.5749E-02  1.4057E+01
                               -3.4743E-01  1.3478E+01 -4.7979E+01  2.5147E+03

           1    9.90001E+00     3.1897E-01  1.0867E-02 -2.5685E+00  2.5883E+00
ac ID =   33377                -9.1279E-01  1.4493E+01  1.5089E-01  1.4522E+01
                               -3.4559E-01  1.3585E+01 -4.7979E+01  2.5147E+03

           1    1.00005E+01     3.3506E-01 -6.8779E-03 -2.6342E+00  2.6555E+00
ac ID =   33377                -5.1398E-01  1.5012E+01  9.0409E-02  1.5021E+01
                               -3.4365E-01  1.3695E+01 -4.7977E+01  2.5147E+03

           1    1.01005E+01     3.2284E-01  8.4375E-03 -2.6835E+00  2.7029E+00
ac ID =   33377                -6.7526E-01  1.5166E+01 -3.5157E-02  1.5181E+01
                               -3.4168E-01  1.3805E+01 -4.7974E+01  2.5147E+03

           1    1.02005E+01     3.3095E-01  9.3908E-03 -2.7328E+00  2.7527E+00
ac ID =   33377                -7.6613E-01  1.5580E+01 -2.2747E-01  1.5601E+01
                               -3.3963E-01  1.3917E+01 -4.7969E+01  2.5147E+03

           1    1.03005E+01     3.4591E-01  3.7156E-05 -2.7971E+00  2.8185E+00
ac ID =   33377                -3.9508E-01  1.6024E+01 -1.9888E-01  1.6031E+01
                               -3.3751E-01  1.4031E+01 -4.7961E+01  2.5147E+03

           1    1.04005E+01     3.4102E-01  1.5301E-03 -2.8409E+00  2.8613E+00
ac ID =   33377                -8.1830E-01  1.6314E+01  8.6574E-02  1.6335E+01
                               -3.3528E-01  1.4145E+01 -4.7951E+01  2.5147E+03

           1    1.05004E+01     3.3878E-01  1.0865E-02 -2.8496E+00  2.8697E+00
ac ID =   33377                -9.8628E-01  1.6186E+01  2.5213E-01  1.6218E+01
                               -3.3304E-01  1.4261E+01 -4.7939E+01  2.5147E+03

           1    1.06004E+01     3.6125E-01  5.9009E-03 -2.8688E+00  2.8914E+00
ac ID =   33377                -5.8665E-01  1.6771E+01  2.5748E-01  1.6783E+01
                               -3.3069E-01  1.4378E+01 -4.7925E+01  2.5147E+03

           1    1.07004E+01     3.6208E-01 -6.6239E-03 -2.9031E+00  2.9256E+00
ac ID =   33377                -4.4624E-01  1.6875E+01  5.9735E-02  1.6881E+01
                               -3.2826E-01  1.4496E+01 -4.7908E+01  2.5147E+03

           1    1.08004E+01     3.5894E-01 -5.9731E-03 -2.9661E+00  2.9878E+00
ac ID =   33377                -4.1002E-01  1.6963E+01  4.1854E-02  1.6968E+01
                               -3.2587E-01  1.4615E+01 -4.7888E+01  2.5147E+03

           1    1.09004E+01     3.7092E-01  2.9631E-03 -3.0217E+00  3.0444E+00
ac ID =   33377                -2.7260E-01  1.7306E+01 -1.0297E-01  1.7308E+01
                               -3.2337E-01  1.4736E+01 -4.7865E+01  2.5147E+03

           1    1.10004E+01     3.8266E-01 -5.7573E-03 -3.0441E+00  3.0680E+00
ac ID =   33377                -1.2572E-01  1.7915E+01  1.7558E-02  1.7915E+01
                               -3.2080E-01  1.4857E+01 -4.7840E+01  2.5147E+03

           1    1.11004E+01     3.8565E-01 -6.2841E-03 -3.0750E+00  3.0991E+00
ac ID =   33377                -5.7009E-02  1.8614E+01  3.1136E-01  1.8616E+01
                               -3.1817E-01  1.4979E+01 -4.7813E+01  2.5147E+03

           1    1.12004E+01     3.9296E-01 -4.1245E-03 -3.1174E+00  3.1421E+00
ac ID =   33377                -3.6261E-01  1.9208E+01  4.1381E-02  1.9212E+01
                               -3.1547E-01  1.5102E+01 -4.7782E+01  2.5147E+03

           1    1.13004E+01     4.0280E-01  2.0771E-03 -3.1320E+00  3.1578E+00
ac ID =   33377                -2.7334E-01  1.9573E+01 -9.5080E-02  1.9575E+01
                               -3.1273E-01  1.5226E+01 -4.7749E+01  2.5147E+03

           1    1.14004E+01     4.0125E-01 -2.8955E-03 -3.1268E+00  3.1525E+00
ac ID =   33377                -3.1472E-01  1.9592E+01 -1.4300E-02  1.9594E+01
                               -3.0991E-01  1.5351E+01 -4.7714E+01  2.5147E+03

           1    1.15003E+01     3.9844E-01  5.3413E-03 -3.1289E+00  3.1542E+00
ac ID =   33377                -4.4542E-01  1.9626E+01  3.1307E-02  1.9631E+01
                               -3.0704E-01  1.5477E+01 -4.7676E+01  2.5147E+03

           1    1.16003E+01     4.0925E-01 -8.1252E-04 -3.1579E+00  3.1843E+00
ac ID =   33377                -2.6017E-01  2.0080E+01  1.0913E-01  2.0082E+01
                               -3.0411E-01  1.5604E+01 -4.7634E+01  2.5147E+03

           1    1.17003E+01     4.1518E-01  2.0950E-03 -3.2063E+00  3.2331E+00
ac ID =   33377                -1.0612E-02  2.0664E+01 -2.7317E-01  2.0666E+01
                               -3.0116E-01  1.5731E+01 -4.7590E+01  2.5147E+03

           1    1.18003E+01     4.1746E-01  3.8662E-03 -3.2160E+00  3.2429E+00
ac ID =   33377                -2.7779E-01  2.1025E+01 -3.3221E-01  2.1029E+01
                               -2.9808E-01  1.5859E+01 -4.7543E+01  2.5147E+03

           1    1.19003E+01     4.2697E-01 -5.7274E-03 -3.2109E+00  3.2392E+00
ac ID =   33377                 1.4590E-01  2.1231E+01 -3.0135E-01  2.1234E+01
                               -2.9495E-01  1.5988E+01 -4.7494E+01  2.5147E+03

           1    1.20003E+01     4.2980E-01  1.0239E-03 -3.2091E+00  3.2378E+00
ac ID =   33377                -8.1784E-02  2.1588E+01 -2.6497E-01  2.1590E+01
                               -2.9177E-01  1.6117E+01 -4.7441E+01  2.5147E+03

           1    1.21003E+01     4.3764E-01  4.1460E-03 -3.2243E+00  3.2539E+00
ac ID =   33377                -1.7748E-01  2.1730E+01 -3.4862E-02  2.1731E+01
                               -2.8850E-01  1.6247E+01 -4.7385E+01  2.5147E+03

           1    1.22003E+01     3.4924E-01 -1.2505E-02 -3.0667E+00  3.0866E+00
ac ID =   33377                -2.4176E-02  2.0167E+01  3.5273E-01  2.0170E+01
                               -2.8519E-01  1.6377E+01 -4.7326E+01  2.5147E+03

           1    1.23003E+01     4.5352E-01 -1.0858E-02 -3.0554E+00  3.0889E+00
ac ID =   33377                 2.0733E-01  2.0556E+01  1.9648E-01  2.0558E+01
                               -2.8197E-01  1.6506E+01 -4.7263E+01  2.5147E+03

           1    1.24003E+01     3.9166E-01  1.0918E-02 -3.0365E+00  3.0617E+00
ac ID =   33377                -4.8829E-01  1.9808E+01  1.6809E-01  1.9815E+01
                               -2.7869E-01  1.6635E+01 -4.7196E+01  2.5147E+03

           1    1.25002E+01     3.7398E-01 -6.2397E-03 -3.0308E+00  3.0538E+00
ac ID =   33377                -9.4818E-02  1.9039E+01  1.7145E-01  1.9040E+01
                               -2.7535E-01  1.6763E+01 -4.7126E+01  2.5147E+03

           1    1.26002E+01     3.9921E-01  1.1796E-03 -3.0011E+00  3.0275E+00
ac ID =   33377                 1.2287E-01  2.0148E+01  1.5043E-01  2.0149E+01
                               -2.7208E-01  1.6891E+01 -4.7052E+01  2.5147E+03

           1    1.27002E+01     3.8220E-01  7.1147E-03 -2.8652E+00  2.8906E+00
ac ID =   33377                -4.5046E-01  1.9067E+01  5.8602E-01  1.9081E+01
                               -2.6860E-01  1.7018E+01 -4.6973E+01  2.5147E+03

           1    1.28002E+01     4.2608E-01  1.0397E-02 -2.9074E+00  2.9385E+00
ac ID =   33377                -1.2749E-01  2.0497E+01  2.1283E-01  2.0499E+01
                               -2.6517E-01  1.7144E+01 -4.6891E+01  2.5147E+03

           1    1.29002E+01     3.3727E-01 -1.4503E-03 -2.8946E+00  2.9141E+00
ac ID =   33377                 1.4786E-01  1.9270E+01  2.8827E-02  1.9271E+01
                               -2.6166E-01  1.7269E+01 -4.6805E+01  2.5147E+03

           1    1.30002E+01     3.8953E-01  8.7204E-03 -2.8046E+00  2.8316E+00
ac ID =   33377                -4.5267E-01  1.9222E+01 -7.7504E-01  1.9243E+01
                               -2.5803E-01  1.7393E+01 -4.6716E+01  2.5147E+03

           1    1.31002E+01     3.8116E-01  1.6232E-02 -2.7658E+00  2.7920E+00
ac ID =   33377                -6.7972E-01  1.9288E+01 -2.8362E-01  1.9302E+01
                               -2.5442E-01  1.7517E+01 -4.6623E+01  2.5147E+03

           1    1.32002E+01     3.9854E-01 -5.8861E-03 -2.7062E+00  2.7354E+00
ac ID =   33377                 2.9022E-01  1.8538E+01  5.9557E-01  1.8550E+01
                               -2.5076E-01  1.7640E+01 -4.6526E+01  2.5147E+03

           1    1.33002E+01     3.4480E-01 -2.4479E-03 -2.6958E+00  2.7177E+00
ac ID =   33377                -1.9372E-01  1.8483E+01  3.4989E-01  1.8487E+01
                               -2.4701E-01  1.7763E+01 -4.6425E+01  2.5147E+03

           1    1.34002E+01     3.8432E-01  3.6771E-02 -2.6500E+00  2.6780E+00
ac ID =   33377                -1.1060E+00  1.8080E+01  9.9692E-02  1.8114E+01
                               -2.4330E-01  1.7884E+01 -4.6321E+01  2.5147E+03

           1    1.35001E+01     3.9974E-01 -1.0773E-02 -2.6113E+00  2.6417E+00
ac ID =   33377                 1.9212E-01  1.8563E+01 -8.2002E-01  1.8582E+01
                               -2.3959E-01  1.8005E+01 -4.6214E+01  2.5147E+03

           1    1.36001E+01     3.4575E-01 -8.9119E-03 -2.4835E+00  2.5075E+00
ac ID =   33377                 3.8531E-01  1.7010E+01 -4.4293E-01  1.7020E+01
                               -2.3574E-01  1.8126E+01 -4.6103E+01  2.5147E+03

           1    1.37001E+01     3.5999E-01  3.4279E-02 -2.4607E+00  2.4872E+00
ac ID =   33377                -1.2140E+00  1.6663E+01  4.3626E-01  1.6713E+01
                               -2.3193E-01  1.8245E+01 -4.5989E+01  2.5147E+03

           1    1.38001E+01     3.9884E-01  1.8071E-02 -2.4342E+00  2.4667E+00
ac ID =   33377                -3.9834E-02  1.7501E+01  2.9854E-01  1.7503E+01
                               -2.2825E-01  1.8365E+01 -4.5873E+01  2.5147E+03

           1    1.39001E+01     3.5600E-01 -1.3718E-02 -2.3130E+00  2.3402E+00
ac ID =   33377                 2.9642E-01  1.5436E+01  3.7072E-01  1.5444E+01
                               -2.2433E-01  1.8484E+01 -4.5753E+01  2.5147E+03

           1    1.40001E+01     3.3804E-01 -1.2585E-02 -2.1968E+00  2.2227E+00
ac ID =   33377                 2.6573E-02  1.5183E+01 -2.3569E-01  1.5185E+01
                               -2.2048E-01  1.8603E+01 -4.5631E+01  2.5147E+03

           1    1.41001E+01     3.8286E-01  4.5084E-02 -2.1360E+00  2.1705E+00
ac ID =   33377                -1.1981E+00  1.4877E+01  8.0714E-02  1.4925E+01
                               -2.1682E-01  1.8721E+01 -4.5506E+01  2.5147E+03

           1    1.42001E+01     3.5069E-01 -1.1500E-02 -2.0932E+00  2.1224E+00
ac ID =   33377                 6.5504E-01  1.5047E+01  4.6471E-01  1.5068E+01
                               -2.1306E-01  1.8840E+01 -4.5379E+01  2.5147E+03

           1    1.43001E+01     3.3169E-01 -3.1771E-02 -1.9663E+00  1.9943E+00
ac ID =   33377                 3.0370E-01  1.3479E+01  4.1501E-01  1.3488E+01
                               -2.0919E-01  1.8958E+01 -4.5250E+01  2.5147E+03

           1    1.44001E+01     3.5757E-01  3.5593E-02 -1.8681E+00  1.9024E+00
ac ID =   33377                -3.6365E-01  1.3756E+01 -3.1452E-01  1.3765E+01
                               -2.0569E-01  1.9076E+01 -4.5119E+01  2.5147E+03

           1    1.45000E+01     3.4766E-01  7.8910E-03 -1.7972E+00  1.8305E+00
ac ID =   33377                -6.0981E-02  1.3237E+01 -1.6819E-01  1.3238E+01
                               -2.0202E-01  1.9195E+01 -4.4986E+01  2.5147E+03

           1    1.46000E+01     2.9284E-01 -1.3579E-02 -1.7493E+00  1.7737E+00
ac ID =   33377                 6.9582E-01  1.1304E+01  2.1544E-01  1.1327E+01
                               -1.9838E-01  1.9313E+01 -4.4851E+01  2.5147E+03

           1    1.47000E+01     3.3162E-01 -6.9249E-03 -1.6886E+00  1.7209E+00
ac ID =   33377                 3.7920E-01  1.1531E+01  4.0374E-01  1.1545E+01
                               -1.9486E-01  1.9432E+01 -4.4715E+01  2.5147E+03

           1    1.48005E+01     3.5119E-01  2.8889E-02 -1.5918E+00  1.6303E+00
ac ID =   33377                -9.9226E-02  1.0912E+01  4.7333E-01  1.0923E+01
                               -1.9142E-01  1.9552E+01 -4.4576E+01  2.5147E+03

           1    1.49005E+01     2.5823E-01 -2.3367E-02 -1.5080E+00  1.5302E+00
ac ID =   33377                 8.3162E-01  9.2415E+00  1.3104E-01  9.2797E+00
                               -1.8788E-01  1.9672E+01 -4.4437E+01  2.5147E+03

           1    1.50005E+01     2.8938E-01 -4.3052E-03 -1.4345E+00  1.4634E+00
ac ID =   33377                 8.3178E-01  9.3699E+00 -7.2270E-02  9.4070E+00
                               -1.8441E-01  1.9791E+01 -4.4297E+01  2.5147E+03

           1    1.51005E+01     3.0040E-01  1.7819E-03 -1.3821E+00  1.4144E+00
ac ID =   33377                 2.6781E-01  9.2362E+00 -3.9533E-01  9.2486E+00
                               -1.8089E-01  1.9912E+01 -4.4156E+01  2.5147E+03

           1    1.52005E+01     2.5523E-01  2.6991E-02 -1.2582E+00  1.2841E+00
ac ID =   33377                 1.9236E-01  7.7608E+00 -4.8244E-01  7.7781E+00
                               -1.7737E-01  2.0033E+01 -4.4014E+01  2.5147E+03

           1    1.53005E+01     2.4887E-01 -4.3775E-02 -1.1524E+00  1.1798E+00
ac ID =   33377                 1.6822E+00  7.4342E+00 -3.5979E-01  7.6306E+00
                               -1.7370E-01  2.0154E+01 -4.3871E+01  2.5147E+03

           1    1.54005E+01     2.5124E-01  1.1498E-02 -1.0791E+00  1.1080E+00
ac ID =   33377                 5.3231E-01  6.8719E+00  2.5441E-01  6.8972E+00
                               -1.7015E-01  2.0275E+01 -4.3726E+01  2.5147E+03

           1    1.55004E+01     2.2053E-01  3.1137E-02 -1.0256E+00  1.0495E+00
ac ID =   33377                 6.5319E-02  5.6154E+00  2.9779E-01  5.6237E+00
                               -1.6658E-01  2.0397E+01 -4.3582E+01  2.5147E+03

           1    1.56004E+01     1.8652E-01 -1.2147E-02 -9.1486E-01  9.3375E-01
ac ID =   33377                 1.1816E+00  4.6643E+00  6.0131E-02  4.8120E+00
                               -1.6288E-01  2.0520E+01 -4.3436E+01  2.5147E+03

           1    1.57004E+01     2.2180E-01 -3.6224E-02 -7.8091E-01  8.1260E-01
ac ID =   33377                 1.7965E+00  4.4724E+00 -1.4458E-03  4.8197E+00
                               -1.5912E-01  2.0642E+01 -4.3290E+01  2.5147E+03

           1    1.58004E+01     1.7855E-01  2.8927E-02 -7.2123E-01  7.4356E-01
ac ID =   33377                -2.6988E-02  3.6795E+00  5.0832E-01  3.7146E+00
                               -1.5543E-01  2.0765E+01 -4.3144E+01  2.5147E+03

           1    1.59004E+01     1.5624E-01  2.2106E-02 -6.5156E-01  6.7040E-01
ac ID =   33377                 6.4366E-01  2.9231E+00  6.8147E-01  3.0697E+00
                               -1.5172E-01  2.0889E+01 -4.2997E+01  2.5147E+03

           1    1.60004E+01     1.6873E-01 -4.7374E-02 -5.5013E-01  5.7737E-01
ac ID =   33377                 1.8346E+00  3.1069E+00 -6.5195E-02  3.6087E+00
                               -1.4777E-01  2.1013E+01 -4.2850E+01  2.5147E+03

           1    1.61004E+01     1.2922E-01 -1.3515E-03 -4.1983E-01  4.3927E-01
ac ID =   33377                 6.7752E-01  2.6446E+00 -3.1497E-01  2.7481E+00
                               -1.4392E-01  2.1137E+01 -4.2703E+01  2.5147E+03

           1    1.62004E+01     1.5356E-01  3.2396E-02 -3.6883E-01  4.0083E-01
ac ID =   33377                -8.6173E-02  3.4330E+00 -1.3036E-01  3.4365E+00
                               -1.4009E-01  2.1261E+01 -4.2556E+01  2.5147E+03

           1    1.63004E+01     1.3498E-01 -9.1400E-03 -3.3390E-01  3.6027E-01
ac ID =   33377                 1.3442E+00  3.6004E+00  3.1471E-01  3.8560E+00
                               -1.3613E-01  2.1386E+01 -4.2409E+01  2.5147E+03

           1    1.64004E+01     1.6241E-01 -4.1500E-02 -2.5825E-01  3.0789E-01
ac ID =   33377                 1.5197E+00  4.4185E+00  2.0959E-01  4.6772E+00
                               -1.3206E-01  2.1511E+01 -4.2262E+01  2.5147E+03

           1    1.65003E+01     1.2954E-01  4.0038E-02 -1.6518E-01  2.1370E-01
ac ID =   33377                -4.4989E-02  4.1888E+00 -5.0216E-01  4.2191E+00
                               -1.2817E-01  2.1637E+01 -4.2116E+01  2.5147E+03

           1    1.66003E+01     1.6826E-01  2.4336E-03 -1.1872E-01  2.0594E-01
ac ID =   33377                 9.9023E-01  5.1636E+00 -2.6244E-01  5.2643E+00
                               -1.2412E-01  2.1762E+01 -4.1970E+01  2.5147E+03

           1    1.67003E+01     1.6740E-01 -5.5230E-02 -6.9653E-02  1.8954E-01
ac ID =   33377                 2.4988E+00  6.0819E+00  4.3557E-01  6.5896E+00
                               -1.1993E-01  2.1888E+01 -4.1824E+01  2.5147E+03

           1    1.68003E+01     1.2623E-01  1.6158E-02  4.2682E-03  1.2733E-01
ac ID =   33377                 5.4177E-01  5.4011E+00  6.5723E-01  5.4678E+00
                               -1.1582E-01  2.2014E+01 -4.1680E+01  2.5147E+03

           1    1.69003E+01     1.9565E-01  4.2080E-02  1.0034E-01  2.2387E-01
ac ID =   33377                 2.5157E-01  7.0552E+00  2.2752E-02  7.0598E+00
                               -1.1173E-01  2.2141E+01 -4.1536E+01  2.5147E+03

           1    1.70003E+01     1.7153E-01 -4.5803E-02  1.6418E-01  2.4182E-01
ac ID =   33377                 1.7740E+00  6.7984E+00 -5.2159E-01  7.0453E+00
                               -1.0737E-01  2.2267E+01 -4.1393E+01  2.5147E+03

           1    1.71003E+01     1.2342E-01 -9.2915E-03  2.1428E-01  2.4746E-01
ac ID =   33377                 1.1329E+00  5.8330E+00 -3.1197E-01  5.9501E+00
                               -1.0311E-01  2.2394E+01 -4.1252E+01  2.5147E+03

           1    1.72003E+01     1.5973E-01  4.2964E-02  3.0182E-01  3.4418E-01
ac ID =   33377                -1.9203E-01  6.5562E+00  5.6270E-01  6.5831E+00
                               -9.8907E-02  2.2521E+01 -4.1111E+01  2.5147E+03

           1    1.73003E+01     1.6810E-01 -1.0750E-02  3.5201E-01  3.9023E-01
ac ID =   33377                 1.0638E+00  6.4981E+00  6.3565E-01  6.6152E+00
                               -9.4574E-02  2.2648E+01 -4.0973E+01  2.5147E+03

           1    1.74003E+01     1.3327E-01 -3.4560E-02  4.1948E-01  4.4150E-01
ac ID =   33377                 1.8147E+00  6.3431E+00  3.5685E-01  6.6072E+00
                               -9.0215E-02  2.2775E+01 -4.0835E+01  2.5147E+03

           1    1.75002E+01     1.2935E-01  2.3320E-02  4.8190E-01  4.9950E-01
ac ID =   33377                 1.0082E-01  6.2785E+00 -2.1375E-01  6.2829E+00
                               -8.5897E-02  2.2903E+01 -4.0699E+01  2.5147E+03

           1    1.76002E+01     1.5988E-01  2.4585E-02  5.1469E-01  5.3951E-01
ac ID =   33377                 6.7326E-01  6.6207E+00 -3.9976E-01  6.6668E+00
                               -8.1647E-02  2.3031E+01 -4.0565E+01  2.5147E+03

           1    1.77002E+01     9.6828E-02 -3.7002E-02  5.8217E-01  5.9133E-01
ac ID =   33377                 1.9282E+00  4.6556E+00  8.5040E-02  5.0398E+00
                               -7.7172E-02  2.3159E+01 -4.0433E+01  2.5147E+03

           1    1.78002E+01     8.7415E-02 -8.8722E-03  6.6874E-01  6.7449E-01
ac ID =   33377                 8.3386E-01  4.1344E+00  2.1129E-01  4.2229E+00
                               -7.2847E-02  2.3288E+01 -4.0303E+01  2.5147E+03

           1    1.79002E+01     1.2631E-01  4.3721E-02  6.9307E-01  7.0584E-01
ac ID =   33377                -5.8666E-02  4.4144E+00  8.8278E-02  4.4157E+00
                               -6.8537E-02  2.3417E+01 -4.0175E+01  2.5147E+03

           1    1.80002E+01     6.8912E-02 -2.2922E-02  7.1959E-01  7.2325E-01
ac ID =   33377                 1.1558E+00  3.4328E+00 -2.7635E-01  3.6326E+00
                               -6.4128E-02  2.3547E+01 -4.0048E+01  2.5147E+03

           1    1.81002E+01     7.4875E-02 -2.6037E-02  7.5355E-01  7.5771E-01
ac ID =   33377                 1.3964E+00  3.2832E+00 -4.0533E-01  3.5908E+00
                               -5.9778E-02  2.3678E+01 -3.9924E+01  2.5147E+03

           1    1.82002E+01     7.7506E-02  2.3670E-02  8.1982E-01  8.2382E-01
ac ID =   33377                -2.0011E-01  2.4531E+00  3.0175E-01  2.4797E+00
                               -5.5415E-02  2.3808E+01 -3.9803E+01  2.5147E+03

           1    1.83002E+01     7.3349E-02  1.4393E-02  8.2220E-01  8.2559E-01
ac ID =   33377                 7.6287E-01  1.9480E+00  3.7673E-01  2.1257E+00
                               -5.1144E-02  2.3940E+01 -3.9683E+01  2.5147E+03

           1    1.84002E+01     3.1267E-02 -2.6319E-02  8.7026E-01  8.7121E-01
ac ID =   33377                 1.2666E+00  7.4334E-01  4.9102E-01  1.5485E+00
                               -4.6753E-02  2.4072E+01 -3.9566E+01  2.5147E+03

           1    1.85001E+01     4.8092E-02  5.3744E-03  9.1052E-01  9.1181E-01
ac ID =   33377                 7.2119E-01  5.6387E-01  2.6095E-01  9.5193E-01
                               -4.2415E-02  2.4204E+01 -3.9451E+01  2.5147E+03

           1    1.86001E+01     5.8001E-02  2.1301E-02  9.1442E-01  9.1651E-01
ac ID =   33377                 4.0820E-01  6.6565E-01 -3.9773E-01  8.7630E-01
                               -3.8143E-02  2.4337E+01 -3.9338E+01  2.5147E+03

           1    1.87001E+01     2.0758E-02 -1.1758E-02  9.6530E-01  9.6560E-01
ac ID =   33377                 1.1639E+00 -6.5790E-01 -1.5126E-01  1.3455E+00
                               -3.3815E-02  2.4471E+01 -3.9228E+01  2.5147E+03

           1    1.88001E+01     3.5501E-02 -8.9557E-03  9.9021E-01  9.9089E-01
ac ID =   33377                 1.1648E+00 -5.7360E-01  3.8027E-01  1.3529E+00
                               -2.9493E-02  2.4606E+01 -3.9120E+01  2.5147E+03

           1    1.89001E+01     2.5420E-02  1.0072E-02  1.0021E+00  1.0025E+00
ac ID =   33377                 1.6928E-01 -8.0774E-01  4.6811E-01  9.4881E-01
                               -2.5196E-02  2.4741E+01 -3.9015E+01  2.5147E+03

           1    1.90001E+01     1.3378E-02  2.0880E-02  1.0503E+00  1.0506E+00
ac ID =   33377                 5.7972E-01 -1.4963E+00 -5.6921E-02  1.6057E+00
                               -2.0992E-02  2.4876E+01 -3.8912E+01  2.5147E+03

           1    1.91001E+01     1.3598E-02 -2.6217E-02  1.0838E+00  1.0842E+00
ac ID =   33377                 1.4483E+00 -1.4419E+00 -1.4599E-01  2.0489E+00
                               -1.6664E-02  2.5013E+01 -3.8812E+01  2.5147E+03

           1    1.92001E+01     2.8604E-02  9.3013E-03  1.0838E+00  1.0843E+00
ac ID =   33377                 5.5406E-01 -1.7292E+00  1.4824E-01  1.8219E+00
                               -1.2452E-02  2.5150E+01 -3.8714E+01  2.5147E+03

           1    1.93001E+01     2.6286E-04  1.5831E-02  1.0999E+00  1.1000E+00
ac ID =   33377                 3.1144E-01 -2.3431E+00  4.2970E-01  2.4024E+00
                               -8.2501E-03  2.5288E+01 -3.8619E+01  2.5147E+03

           1    1.94001E+01     1.5359E-03 -6.8795E-03  1.1372E+00  1.1373E+00
ac ID =   33377                 1.2322E+00 -2.8345E+00  5.3020E-02  3.0912E+00
                               -4.0288E-03  2.5426E+01 -3.8527E+01  2.5147E+03

           1    1.95000E+01     2.3681E-02 -1.8890E-02  1.1415E+00  1.1419E+00
ac ID =   33377                 1.3131E+00 -2.9368E+00 -4.2860E-01  3.2455E+00
                                1.6917E-04  2.5566E+01 -3.8437E+01  2.5147E+03

           1    1.96000E+01    -1.3022E-02  2.5307E-02  1.1572E+00  1.1575E+00
ac ID =   33377                 3.0881E-01 -3.6181E+00 -2.9022E-01  3.6428E+00
                                4.3573E-03  2.5706E+01 -3.8350E+01  2.5147E+03

           1    1.97005E+01     1.2267E-02 -1.1197E-02  1.1369E+00  1.1370E+00
ac ID =   33377                 1.0323E+00 -3.7263E+00  7.4219E-02  3.8674E+00
                                8.5572E-03  2.5847E+01 -3.8266E+01  2.5147E+03

           1    1.98005E+01     9.3838E-03 -1.5173E-02  1.1447E+00  1.1448E+00
ac ID =   33377                 1.2792E+00 -3.9270E+00  3.9368E-01  4.1488E+00
                                1.2729E-02  2.5989E+01 -3.8184E+01  2.5147E+03

           1    1.99005E+01    -2.2703E-02  2.5079E-03  1.1688E+00  1.1691E+00
ac ID =   33377                 7.4815E-01 -4.9488E+00  3.8496E-01  5.0198E+00
                                1.6928E-02  2.6131E+01 -3.8106E+01  2.5147E+03

           1    2.00005E+01     4.9903E-03  1.8131E-02  1.1623E+00  1.1625E+00
ac ID =   33377                 5.1592E-01 -4.7184E+00 -1.7806E-01  4.7499E+00
                                2.1045E-02  2.6274E+01 -3.8030E+01  2.5147E+03

           1    2.01005E+01     7.5677E-04 -1.9627E-02  1.1566E+00  1.1567E+00
ac ID =   33377                 1.2004E+00 -5.1095E+00 -1.7401E-01  5.2515E+00
                                2.5241E-02  2.6418E+01 -3.7957E+01  2.5147E+03

           1    2.02005E+01    -1.1732E-02 -1.1716E-02  1.1462E+00  1.1463E+00
ac ID =   33377                 1.2704E+00 -5.4196E+00  1.1309E-01  5.5677E+00
                                2.9387E-02  2.6562E+01 -3.7886E+01  2.5147E+03

           1    2.03005E+01    -6.2753E-03  1.4537E-02  1.1538E+00  1.1539E+00
ac ID =   33377                 5.2389E-01 -5.3769E+00  2.5488E-01  5.4084E+00
                                3.3556E-02  2.6708E+01 -3.7818E+01  2.5147E+03

           1    2.04005E+01     3.0932E-03  3.8999E-04  1.1331E+00  1.1331E+00
ac ID =   33377                 1.1398E+00 -5.8794E+00 -3.6234E-02  5.9890E+00
                                3.7685E-02  2.6853E+01 -3.7753E+01  2.5147E+03

           1    2.05004E+01    -2.8358E-03 -2.0419E-02  1.1115E+00  1.1117E+00
ac ID =   33377                 1.5175E+00 -5.6836E+00 -1.5476E-01  5.8847E+00
                                4.1864E-02  2.7000E+01 -3.7691E+01  2.5147E+03

           1    2.06004E+01    -2.0891E-02  1.8666E-03  1.1159E+00  1.1161E+00
ac ID =   33377                 8.0678E-01 -6.4832E+00  2.1930E-01  6.5368E+00
                                4.6064E-02  2.7148E+01 -3.7631E+01  2.5147E+03

           1    2.07004E+01     1.0447E-02  1.4274E-02  1.0934E+00  1.0935E+00
ac ID =   33377                 7.4204E-01 -5.7957E+00  3.1778E-01  5.8516E+00
                                5.0191E-02  2.7296E+01 -3.7574E+01  2.5147E+03

           1    2.08004E+01    -1.0467E-03 -1.2153E-02  1.0941E+00  1.0942E+00
ac ID =   33377                 1.1983E+00 -6.1087E+00  3.2237E-01  6.2334E+00
                                5.4396E-02  2.7445E+01 -3.7519E+01  2.5147E+03

           1    2.09004E+01    -1.4604E-02 -1.6844E-02  1.0779E+00  1.0782E+00
ac ID =   33377                 1.2795E+00 -6.6920E+00  1.0030E-01  6.8140E+00
                                5.8593E-02  2.7594E+01 -3.7467E+01  2.5147E+03

           1    2.10004E+01    -6.8178E-03  1.9626E-02  1.0602E+00  1.0604E+00
ac ID =   33377                 3.6740E-01 -6.7444E+00  9.2358E-03  6.7544E+00
                                6.2747E-02  2.7745E+01 -3.7417E+01  2.5147E+03

           1    2.11004E+01     1.9642E-03 -1.5945E-03  1.0202E+00  1.0202E+00
ac ID =   33377                 9.6645E-01 -7.1066E+00 -7.7577E-02  7.1724E+00
                                6.6930E-02  2.7895E+01 -3.7370E+01  2.5147E+03

           1    2.12004E+01    -1.0035E-02 -1.6794E-02  1.0153E+00  1.0155E+00
ac ID =   33377                 1.3764E+00 -7.3375E+00 -2.7177E-01  7.4704E+00
                                7.1098E-02  2.8047E+01 -3.7325E+01  2.5147E+03

           1    2.13004E+01    -1.0887E-02  8.5811E-03  9.8707E-01  9.8716E-01
ac ID =   33377                 6.5461E-01 -7.8855E+00 -1.4368E-01  7.9140E+00
                                7.5288E-02  2.8199E+01 -3.7282E+01  2.5147E+03

           1    2.14004E+01     8.3509E-03  1.1484E-02  9.2942E-01  9.2952E-01
ac ID =   33377                 6.1270E-01 -7.3792E+00  1.7138E-01  7.4066E+00
                                7.9430E-02  2.8352E+01 -3.7242E+01  2.5147E+03

           1    2.15003E+01    -6.8605E-03 -1.1845E-02  9.1536E-01  9.1546E-01
ac ID =   33377                 1.2475E+00 -8.0507E+00  2.2813E-01  8.1500E+00
                                8.3601E-02  2.8505E+01 -3.7204E+01  2.5147E+03

           1    2.16003E+01    -6.4800E-03 -5.5061E-03  8.9779E-01  8.9783E-01
ac ID =   33377                 1.0947E+00 -8.2692E+00  8.3658E-02  8.3418E+00
                                8.7784E-02  2.8659E+01 -3.7168E+01  2.5147E+03

           1    2.17003E+01     2.1540E-02  1.4575E-02  8.5357E-01  8.5396E-01
ac ID =   33377                 2.4907E-01 -7.9863E+00  4.1878E-02  7.9903E+00
                                9.1952E-02  2.8813E+01 -3.7134E+01  2.5147E+03

           1    2.18003E+01     1.0263E-02  5.3944E-03  8.2129E-01  8.2137E-01
ac ID =   33377                 7.1815E-01 -8.1983E+00 -1.4007E-01  8.2309E+00
                                9.6078E-02  2.8968E+01 -3.7102E+01  2.5147E+03

           1    2.19003E+01     6.8225E-03 -1.5418E-02  8.0831E-01  8.0849E-01
ac ID =   33377                 1.1030E+00 -8.2659E+00  1.5568E-01  8.3406E+00
                                1.0027E-01  2.9124E+01 -3.7072E+01  2.5147E+03

           1    2.20003E+01     4.0098E-02  1.4852E-02  7.6919E-01  7.7038E-01
ac ID =   33377                 2.4006E-01 -7.8518E+00  2.2328E-01  7.8586E+00
                                1.0441E-01  2.9279E+01 -3.7044E+01  2.5147E+03

           1    2.21003E+01     3.3070E-02  1.2351E-02  7.3278E-01  7.3363E-01
ac ID =   33377                 2.9685E-01 -8.0044E+00 -2.7615E-02  8.0100E+00
                                1.0855E-01  2.9436E+01 -3.7018E+01  2.5147E+03

           1    2.22003E+01     3.2689E-02 -1.5451E-02  7.0879E-01  7.0971E-01
ac ID =   33377                 8.7602E-01 -7.7212E+00 -5.2061E-01  7.7881E+00
                                1.1269E-01  2.9592E+01 -3.6993E+01  2.5147E+03

           1    2.23003E+01     4.3710E-02  6.7521E-03  6.7821E-01  6.7965E-01
ac ID =   33377                 3.6305E-01 -7.5555E+00  1.0117E-02  7.5643E+00
                                1.1684E-01  2.9749E+01 -3.6970E+01  2.5147E+03

           1    2.24003E+01     5.6576E-02  1.6574E-02  6.1049E-01  6.1333E-01
ac ID =   33377                 8.1418E-02 -7.2611E+00  6.0783E-02  7.2618E+00
                                1.2096E-01  2.9906E+01 -3.6948E+01  2.5147E+03

           1    2.25002E+01     5.8638E-02 -2.0912E-03  5.8580E-01  5.8873E-01
ac ID =   33377                 8.1684E-01 -7.3104E+00  1.9817E-01  7.3586E+00
                                1.2507E-01  3.0063E+01 -3.6928E+01  2.5147E+03

           1    2.26002E+01     4.9350E-02 -4.0262E-03  5.5997E-01  5.6215E-01
ac ID =   33377                 6.4442E-01 -7.7812E+00  5.8939E-02  7.8081E+00
                                1.2919E-01  3.0220E+01 -3.6909E+01  2.5147E+03

           1    2.27002E+01     8.1757E-02  2.6118E-02  4.9433E-01  5.0173E-01
ac ID =   33377                -3.1807E-01 -7.6870E+00 -4.3170E-01  7.7056E+00
                                1.3329E-01  3.0378E+01 -3.6892E+01  2.5147E+03

           1    2.28002E+01     8.6578E-02 -2.0949E-05  4.5921E-01  4.6730E-01
ac ID =   33377                 3.8901E-01 -7.6369E+00 -3.8194E-01  7.6563E+00
                                1.3741E-01  3.0535E+01 -3.6876E+01  2.5147E+03

           1    2.29002E+01     6.3699E-02 -2.7720E-03  4.3259E-01  4.3727E-01
ac ID =   33377                 6.7041E-01 -8.3412E+00 -1.1720E-01  8.3689E+00
                                1.4146E-01  3.0693E+01 -3.6861E+01  2.5147E+03

           1    2.30002E+01     7.8445E-02  1.8053E-02  3.5918E-01  3.6809E-01
ac ID =   33377                -1.8696E-01 -8.4255E+00  7.2644E-02  8.4278E+00
                                1.4550E-01  3.0850E+01 -3.6846E+01  2.5147E+03

           1    2.31002E+01     8.5821E-02  1.6464E-02  3.2367E-01  3.3526E-01
ac ID =   33377                 6.0769E-02 -8.6477E+00  2.4849E-01  8.6515E+00
                                1.4955E-01  3.1008E+01 -3.6833E+01  2.5147E+03

           1    2.32002E+01     6.9706E-02 -3.3055E-03  2.8237E-01  2.9086E-01
ac ID =   33377                 4.0113E-01 -9.1973E+00  5.7804E-02  9.2062E+00
                                1.5362E-01  3.1165E+01 -3.6820E+01  2.5147E+03

           1    2.33002E+01     7.4131E-02 -5.1722E-04  2.1022E-01  2.2291E-01
ac ID =   33377                 5.3865E-01 -9.6167E+00 -1.1783E-01  9.6325E+00
                                1.5760E-01  3.1322E+01 -3.6808E+01  2.5147E+03

           1    2.34002E+01     8.1827E-02  2.6907E-02  1.7870E-01  1.9838E-01
ac ID =   33377                -2.1118E-01 -1.0094E+01  2.5745E-01  1.0099E+01
                                1.6161E-01  3.1480E+01 -3.6797E+01  2.5147E+03

           1    2.35001E+01     9.5276E-02  1.2648E-02  1.3763E-01  1.6787E-01
ac ID =   33377                -5.5574E-02 -1.0180E+01  3.0316E-01  1.0185E+01
                                1.6560E-01  3.1637E+01 -3.6786E+01  2.5147E+03

           1    2.36001E+01     6.3633E-02 -6.1059E-03  9.1632E-02  1.1173E-01
ac ID =   33377                 4.1007E-01 -1.1175E+01  1.3290E-01  1.1183E+01
                                1.6961E-01  3.1794E+01 -3.6775E+01  2.5147E+03

           1    2.37001E+01     7.1757E-02  9.3953E-03  4.4323E-02  8.4863E-02
ac ID =   33377                -3.2573E-02 -1.1469E+01  8.8260E-02  1.1470E+01
                                1.7358E-01  3.1951E+01 -3.6764E+01  2.5147E+03

           1    2.38001E+01     9.6309E-02  2.2948E-02  9.0541E-03  9.9418E-02
ac ID =   33377                -2.0883E-01 -1.1156E+01 -3.3170E-01  1.1163E+01
                                1.7746E-01  3.2107E+01 -3.6753E+01  2.5147E+03

           1    2.39001E+01     8.9915E-02 -8.0118E-03 -2.9309E-02  9.4911E-02
ac ID =   33377                 2.8850E-01 -1.1602E+01 -8.9473E-02  1.1606E+01
                                1.8133E-01  3.2264E+01 -3.6742E+01  2.5147E+03

           1    2.40001E+01     7.6246E-02  9.9363E-03 -6.7144E-02  1.0208E-01
ac ID =   33377                 1.9624E-01 -1.1867E+01  4.6895E-01  1.1878E+01
                                1.8513E-01  3.2420E+01 -3.6731E+01  2.5147E+03

           1    2.41001E+01     9.9332E-02  1.0001E-02 -1.1094E-01  1.4925E-01
ac ID =   33377                -1.2176E-01 -1.1468E+01  3.1206E-01  1.1473E+01
                                1.8899E-01  3.2576E+01 -3.6720E+01  2.5147E+03

           1    2.42001E+01     9.5060E-02  1.1290E-02 -1.3825E-01  1.6816E-01
ac ID =   33377                 1.0167E-01 -1.2011E+01 -1.6317E-01  1.2013E+01
                                1.9281E-01  3.2732E+01 -3.6708E+01  2.5147E+03

           1    2.43001E+01     9.2533E-02 -3.2290E-03 -1.7612E-01  1.9897E-01
ac ID =   33377                 1.9780E-01 -1.2393E+01 -6.6357E-02  1.2395E+01
                                1.9662E-01  3.2888E+01 -3.6696E+01  2.5147E+03

           1    2.44001E+01     1.3251E-01  1.1087E-03 -2.3522E-01  2.6998E-01
ac ID =   33377                 9.3800E-02 -1.1859E+01 -2.8348E-01  1.1863E+01
                                2.0039E-01  3.3043E+01 -3.6684E+01  2.5147E+03

           1    2.45005E+01     1.2684E-01  2.0563E-02 -2.6010E-01  2.9011E-01
ac ID =   33377                -4.0266E-01 -1.1851E+01  7.4309E-02  1.1858E+01
                                2.0414E-01  3.3198E+01 -3.6671E+01  2.5147E+03

           1    2.46005E+01     1.0737E-01  6.4474E-03 -3.0274E-01  3.2128E-01
ac ID =   33377                 1.8575E-01 -1.1914E+01  2.2859E-01  1.1918E+01
                                2.0786E-01  3.3353E+01 -3.6657E+01  2.5147E+03

           1    2.47005E+01     1.3683E-01  6.5152E-04 -3.4482E-01  3.7098E-01
ac ID =   33377                 2.4283E-01 -1.1747E+01 -9.6526E-02  1.1750E+01
                                2.1163E-01  3.3507E+01 -3.6643E+01  2.5147E+03

           1    2.48005E+01     1.5653E-01  3.2036E-03 -3.7894E-01  4.1001E-01
ac ID =   33377                -1.9159E-01 -1.1251E+01 -1.3287E-01  1.1253E+01
                                2.1538E-01  3.3661E+01 -3.6627E+01  2.5147E+03

           1    2.49005E+01     1.4291E-01  9.2743E-03 -4.0531E-01  4.2987E-01
ac ID =   33377                 6.5286E-02 -1.1448E+01  1.6264E-01  1.1449E+01
                                2.1906E-01  3.3814E+01 -3.6611E+01  2.5147E+03

