 LSTC 50th% Full_FE H-III Dummy (Beta Version, February 17, 2019)        
                    ls-dyna smp s R16 R16.0_619_d222963 date 03/18/2025

{BEGIN LEGEND}
 Entity #        Title
    22626                                                                                     
{END LEGEND}




 n o d a l   p r i n t   o u t   f o r   t i m e  s t e p       1                              ( at time 0.0000000E+00 )

 nodal point  x-disp     y-disp      z-disp      x-vel       y-vel       z-vel      x-accl      y-accl      z-accl      x-coor      y-coor      z-coor
    22626  0.00000E+00 0.00000E+00 0.00000E+00 0.00000E+00 0.00000E+00-3.12000E+00 0.00000E+00 0.00000E+00 0.00000E+00 4.79642E+01-2.20298E+01 7.33850E+00



 n o d a l   p r i n t   o u t   f o r   t i m e  s t e p       1                              ( at time 0.0000000E+00 )

 nodal point  x-rot      y-rot       z-rot       x-rot vel   y-rot vel   z-rot vel   x-rot acc   y-rot acc   z-rot acc
    22626  0.00000E+00 0.00000E+00 0.00000E+00 0.00000E+00 0.00000E+00 0.00000E+00 0.00000E+00 0.00000E+00 0.00000E+00



 n o d a l   p r i n t   o u t   f o r   t i m e  s t e p     201                              ( at time 9.9989993E-02 )

 nodal point  x-disp     y-disp      z-disp      x-vel       y-vel       z-vel      x-accl      y-accl      z-accl      x-coor      y-coor      z-coor
    22626  8.34089E-07-4.04501E-06-3.12016E-01 4.76725E-05-4.96484E-04-3.12074E+00 4.76772E-04-4.96534E-03-7.42748E-03 4.79642E+01-2.20298E+01 7.02648E+00



 n o d a l   p r i n t   o u t   f o r   t i m e  s t e p     201                              ( at time 9.9989993E-02 )

 nodal point  x-rot      y-rot       z-rot       x-rot vel   y-rot vel   z-rot vel   x-rot acc   y-rot acc   z-rot acc
    22626  9.61120E-09 3.04017E-08 5.27014E-08 1.30696E-06 2.72231E-06 5.21221E-06 1.30709E-05 2.72259E-05 5.21273E-05



 n o d a l   p r i n t   o u t   f o r   t i m e  s t e p     401                              ( at time 1.9997999E-01 )

 nodal point  x-disp     y-disp      z-disp      x-vel       y-vel       z-vel      x-accl      y-accl      z-accl      x-coor      y-coor      z-coor
    22626 -5.12826E-05-5.21578E-04-6.23853E-01-1.09661E-03-1.11147E-02-3.11558E+00-1.14439E-02-1.06193E-01 5.16204E-02 4.79641E+01-2.20303E+01 6.71465E+00



 n o d a l   p r i n t   o u t   f o r   t i m e  s t e p     401                              ( at time 1.9997999E-01 )

 nodal point  x-rot      y-rot       z-rot       x-rot vel   y-rot vel   z-rot vel   x-rot acc   y-rot acc   z-rot acc
    22626  4.60392E-07 1.32992E-06 2.50253E-06 2.65640E-06 1.90617E-05 3.49688E-05 1.34958E-05 1.63410E-04 2.97595E-04



 n o d a l   p r i n t   o u t   f o r   t i m e  s t e p     601                              ( at time 2.9996998E-01 )

 nodal point  x-disp     y-disp      z-disp      x-vel       y-vel       z-vel      x-accl      y-accl      z-accl      x-coor      y-coor      z-coor
    22626 -2.45765E-05-1.97631E-03-9.35238E-01 1.65918E-03-1.60490E-02-3.11415E+00 2.75606E-02-4.93484E-02 1.43399E-02 4.79642E+01-2.20318E+01 6.40326E+00



 n o d a l   p r i n t   o u t   f o r   t i m e  s t e p     601                              ( at time 2.9996998E-01 )

 nodal point  x-rot      y-rot       z-rot       x-rot vel   y-rot vel   z-rot vel   x-rot acc   y-rot acc   z-rot acc
    22626  6.74820E-07 2.41152E-06 4.82777E-06 8.31614E-06 5.39097E-06 1.47073E-05 5.66030E-05-1.36721E-04-2.02635E-04



 n o d a l   p r i n t   o u t   f o r   t i m e  s t e p     801                              ( at time 3.9995997E-01 )

 nodal point  x-disp     y-disp      z-disp      x-vel       y-vel       z-vel      x-accl      y-accl      z-accl      x-coor      y-coor      z-coor
    22626  5.94895E-05-3.57405E-03-1.24663E+00 1.92272E-04-1.73905E-02-3.11353E+00-1.46705E-02-1.34156E-02 6.15181E-03 4.79642E+01-2.20334E+01 6.09187E+00



 n o d a l   p r i n t   o u t   f o r   t i m e  s t e p     801                              ( at time 3.9995997E-01 )

 nodal point  x-rot      y-rot       z-rot       x-rot vel   y-rot vel   z-rot vel   x-rot acc   y-rot acc   z-rot acc
    22626  1.58216E-06 3.68062E-06 6.68032E-06 6.25838E-06 2.42142E-05 3.81605E-05-2.05797E-05 1.88251E-04 2.34555E-04



 n o d a l   p r i n t   o u t   f o r   t i m e  s t e p    1001                              ( at time 4.9994997E-01 )

 nodal point  x-disp     y-disp      z-disp      x-vel       y-vel       z-vel      x-accl      y-accl      z-accl      x-coor      y-coor      z-coor
    22626  7.27577E-05-5.63143E-03-1.55782E+00 8.93928E-04-2.38450E-02-3.11085E+00 7.01726E-03-6.45518E-02 2.68009E-02 4.79643E+01-2.20354E+01 5.78068E+00



 n o d a l   p r i n t   o u t   f o r   t i m e  s t e p    1001                              ( at time 4.9994997E-01 )

 nodal point  x-rot      y-rot       z-rot       x-rot vel   y-rot vel   z-rot vel   x-rot acc   y-rot acc   z-rot acc
    22626  1.49506E-06 6.64857E-06 1.18377E-05-4.83830E-06 4.38132E-05 7.20064E-05-1.10978E-04 1.96010E-04 3.38493E-04



 n o d a l   p r i n t   o u t   f o r   t i m e  s t e p    1201                              ( at time 5.9993996E-01 )

 nodal point  x-disp     y-disp      z-disp      x-vel       y-vel       z-vel      x-accl      y-accl      z-accl      x-coor      y-coor      z-coor
    22626  5.29555E-05-8.13749E-03-1.86888E+00-5.62757E-04-2.61221E-02-3.11084E+00-1.45683E-02-2.27730E-02 1.16837E-04 4.79642E+01-2.20379E+01 5.46962E+00



 n o d a l   p r i n t   o u t   f o r   t i m e  s t e p    1201                              ( at time 5.9993996E-01 )

 nodal point  x-rot      y-rot       z-rot       x-rot vel   y-rot vel   z-rot vel   x-rot acc   y-rot acc   z-rot acc
    22626  1.26556E-06 9.87509E-06 1.77371E-05-2.18888E-06 2.63722E-05 5.30110E-05 2.64968E-05-1.74427E-04-1.89972E-04



 n o d a l   p r i n t   o u t   f o r   t i m e  s t e p    1401                              ( at time 6.9992995E-01 )

 nodal point  x-disp     y-disp      z-disp      x-vel       y-vel       z-vel      x-accl      y-accl      z-accl      x-coor      y-coor      z-coor
    22626  1.96663E-05-1.10207E-02-2.17976E+00 7.18009E-04-3.22408E-02-3.10769E+00 1.28089E-02-6.11933E-02 3.14601E-02 4.79642E+01-2.20408E+01 5.15874E+00



 n o d a l   p r i n t   o u t   f o r   t i m e  s t e p    1401                              ( at time 6.9992995E-01 )

 nodal point  x-rot      y-rot       z-rot       x-rot vel   y-rot vel   z-rot vel   x-rot acc   y-rot acc   z-rot acc
    22626  1.10138E-06 1.30702E-05 2.27042E-05-2.49250E-06 3.79796E-05 5.94943E-05-3.03646E-06 1.16085E-04 6.48386E-05



 n o d a l   p r i n t   o u t   f o r   t i m e  s t e p    1601                              ( at time 7.9991994E-01 )

 nodal point  x-disp     y-disp      z-disp      x-vel       y-vel       z-vel      x-accl      y-accl      z-accl      x-coor      y-coor      z-coor
    22626  1.33090E-04-1.45710E-02-2.49038E+00 1.37005E-03-3.68183E-02-3.10600E+00 6.52103E-03-4.57796E-02 1.69366E-02 4.79643E+01-2.20444E+01 4.84812E+00



 n o d a l   p r i n t   o u t   f o r   t i m e  s t e p    1601                              ( at time 7.9991994E-01 )

 nodal point  x-rot      y-rot       z-rot       x-rot vel   y-rot vel   z-rot vel   x-rot acc   y-rot acc   z-rot acc
    22626  1.00643E-06 1.72068E-05 2.96653E-05 3.04317E-06 4.88401E-05 7.66043E-05 5.53622E-05 1.08616E-04 1.71118E-04



 n o d a l   p r i n t   o u t   f o r   t i m e  s t e p    1801                              ( at time 8.9990994E-01 )

 nodal point  x-disp     y-disp      z-disp      x-vel       y-vel       z-vel      x-accl      y-accl      z-accl      x-coor      y-coor      z-coor
    22626  2.07379E-04-1.82141E-02-2.80104E+00-5.08462E-04-3.64361E-02-3.10742E+00-1.87870E-02 3.82235E-03-1.41778E-02 4.79644E+01-2.20480E+01 4.53746E+00



 n o d a l   p r i n t   o u t   f o r   t i m e  s t e p    1801                              ( at time 8.9990994E-01 )

 nodal point  x-rot      y-rot       z-rot       x-rot vel   y-rot vel   z-rot vel   x-rot acc   y-rot acc   z-rot acc
    22626  1.02409E-06 2.13201E-05 3.66555E-05-1.88247E-06 3.78992E-05 6.82171E-05-4.92614E-05-1.09420E-04-8.38803E-05



 n o d a l   p r i n t   o u t   f o r   t i m e  s t e p    2001                              ( at time 9.9989993E-01 )

 nodal point  x-disp     y-disp      z-disp      x-vel       y-vel       z-vel      x-accl      y-accl      z-accl      x-coor      y-coor      z-coor
    22626  1.09792E-04-2.19275E-02-3.11175E+00-8.16904E-04-3.83981E-02-3.10755E+00-3.08473E-03-1.96218E-02-1.34005E-03 4.79643E+01-2.20517E+01 4.22675E+00



 n o d a l   p r i n t   o u t   f o r   t i m e  s t e p    2001                              ( at time 9.9989993E-01 )

 nodal point  x-rot      y-rot       z-rot       x-rot vel   y-rot vel   z-rot vel   x-rot acc   y-rot acc   z-rot acc
    22626  8.55998E-07 2.55345E-05 4.38493E-05-8.64727E-07 4.61085E-05 8.58153E-05 1.01784E-05 8.21016E-05 1.75999E-04



 n o d a l   p r i n t   o u t   f o r   t i m e  s t e p    2201                              ( at time 1.0998899E+00 )

 nodal point  x-disp     y-disp      z-disp      x-vel       y-vel       z-vel      x-accl      y-accl      z-accl      x-coor      y-coor      z-coor
    22626  9.18888E-05-2.58761E-02-3.42246E+00-2.13471E-04-4.02567E-02-3.10712E+00 6.03494E-03-1.85877E-02 4.36827E-03 4.79643E+01-2.20557E+01 3.91605E+00



 n o d a l   p r i n t   o u t   f o r   t i m e  s t e p    2201                              ( at time 1.0998899E+00 )

 nodal point  x-rot      y-rot       z-rot       x-rot vel   y-rot vel   z-rot vel   x-rot acc   y-rot acc   z-rot acc
    22626  9.32917E-07 3.03132E-05 5.24806E-05 5.27650E-06 4.64971E-05 7.51074E-05 6.14184E-05 3.88622E-06-1.07090E-04



 n o d a l   p r i n t   o u t   f o r   t i m e  s t e p    2401                              ( at time 1.1998799E+00 )

 nodal point  x-disp     y-disp      z-disp      x-vel       y-vel       z-vel      x-accl      y-accl      z-accl      x-coor      y-coor      z-coor
    22626  1.34285E-04-2.98902E-02-3.73320E+00 7.30228E-04-3.98100E-02-3.10850E+00 9.43794E-03 4.46707E-03-1.37987E-02 4.79643E+01-2.20597E+01 3.60531E+00



 n o d a l   p r i n t   o u t   f o r   t i m e  s t e p    2401                              ( at time 1.1998799E+00 )

 nodal point  x-rot      y-rot       z-rot       x-rot vel   y-rot vel   z-rot vel   x-rot acc   y-rot acc   z-rot acc
    22626  1.33589E-06 3.44662E-05 5.93275E-05 5.03810E-06 3.98440E-05 6.53891E-05-2.38424E-06-6.65381E-05-9.71924E-05



 n o d a l   p r i n t   o u t   f o r   t i m e  s t e p    2601                              ( at time 1.2998699E+00 )

 nodal point  x-disp     y-disp      z-disp      x-vel       y-vel       z-vel      x-accl      y-accl      z-accl      x-coor      y-coor      z-coor
    22626  1.46129E-04-3.37303E-02-4.04413E+00-4.22931E-04-3.65930E-02-3.11133E+00-1.15327E-02 3.21736E-02-2.83007E-02 4.79643E+01-2.20635E+01 3.29437E+00



 n o d a l   p r i n t   o u t   f o r   t i m e  s t e p    2601                              ( at time 1.2998699E+00 )

 nodal point  x-rot      y-rot       z-rot       x-rot vel   y-rot vel   z-rot vel   x-rot acc   y-rot acc   z-rot acc
    22626  1.63882E-06 3.85449E-05 6.61316E-05-2.49446E-06 4.53391E-05 7.98147E-05-7.53331E-05 5.49568E-05 1.44270E-04



 n o d a l   p r i n t   o u t   f o r   t i m e  s t e p    2801                              ( at time 1.3998599E+00 )

 nodal point  x-disp     y-disp      z-disp      x-vel       y-vel       z-vel      x-accl      y-accl      z-accl      x-coor      y-coor      z-coor
    22626  3.21628E-05-3.71242E-02-4.35543E+00-1.31003E-03-3.14315E-02-3.11511E+00-8.87186E-03 5.16198E-02-3.78194E-02 4.79642E+01-2.20669E+01 2.98307E+00



 n o d a l   p r i n t   o u t   f o r   t i m e  s t e p    2801                              ( at time 1.3998599E+00 )

 nodal point  x-rot      y-rot       z-rot       x-rot vel   y-rot vel   z-rot vel   x-rot acc   y-rot acc   z-rot acc
    22626  1.20419E-06 4.29496E-05 7.39877E-05-4.48474E-06 4.45316E-05 7.33972E-05-1.99048E-05-8.07596E-06-6.41807E-05



 n o d a l   p r i n t   o u t   f o r   t i m e  s t e p    3001                              ( at time 1.4998499E+00 )

 nodal point  x-disp     y-disp      z-disp      x-vel       y-vel       z-vel      x-accl      y-accl      z-accl      x-coor      y-coor      z-coor
    22626 -7.76534E-05-4.01688E-02-4.66702E+00-4.96437E-04-2.97646E-02-3.11713E+00 8.13673E-03 1.66708E-02-2.02223E-02 4.79641E+01-2.20700E+01 2.67148E+00



 n o d a l   p r i n t   o u t   f o r   t i m e  s t e p    3001                              ( at time 1.4998499E+00 )

 nodal point  x-rot      y-rot       z-rot       x-rot vel   y-rot vel   z-rot vel   x-rot acc   y-rot acc   z-rot acc
    22626  8.25901E-07 4.68523E-05 8.05173E-05-1.67549E-06 3.18563E-05 5.70512E-05 2.80953E-05-1.26766E-04-1.63476E-04



 n o d a l   p r i n t   o u t   f o r   t i m e  s t e p    3201                              ( at time 1.5998399E+00 )

 nodal point  x-disp     y-disp      z-disp      x-vel       y-vel       z-vel      x-accl      y-accl      z-accl      x-coor      y-coor      z-coor
    22626 -1.24413E-04-4.30594E-02-4.97879E+00-6.97684E-04-2.75115E-02-3.11940E+00-2.01267E-03 2.25333E-02-2.26687E-02 4.79641E+01-2.20728E+01 2.35971E+00



 n o d a l   p r i n t   o u t   f o r   t i m e  s t e p    3201                              ( at time 1.5998399E+00 )

 nodal point  x-rot      y-rot       z-rot       x-rot vel   y-rot vel   z-rot vel   x-rot acc   y-rot acc   z-rot acc
    22626  5.13667E-07 4.99123E-05 8.53922E-05-1.59279E-06 3.26439E-05 4.80245E-05 8.27013E-07 7.87752E-06-9.02766E-05



 n o d a l   p r i n t   o u t   f o r   t i m e  s t e p    3401                              ( at time 1.6998299E+00 )

 nodal point  x-disp     y-disp      z-disp      x-vel       y-vel       z-vel      x-accl      y-accl      z-accl      x-coor      y-coor      z-coor
    22626 -2.10978E-04-4.55737E-02-5.29089E+00-1.12662E-03-2.24398E-02-3.12325E+00-4.28979E-03 5.07220E-02-3.85848E-02 4.79640E+01-2.20754E+01 2.04762E+00



 n o d a l   p r i n t   o u t   f o r   t i m e  s t e p    3401                              ( at time 1.6998299E+00 )

 nodal point  x-rot      y-rot       z-rot       x-rot vel   y-rot vel   z-rot vel   x-rot acc   y-rot acc   z-rot acc
    22626  2.98940E-07 5.29950E-05 9.04276E-05-3.77880E-06 2.97794E-05 4.77073E-05-2.18623E-05-2.86482E-05-3.17191E-06



 n o d a l   p r i n t   o u t   f o r   t i m e  s t e p    3601                              ( at time 1.7998199E+00 )

 nodal point  x-disp     y-disp      z-disp      x-vel       y-vel       z-vel      x-accl      y-accl      z-accl      x-coor      y-coor      z-coor
    22626 -3.12583E-04-4.75644E-02-5.60339E+00-1.32627E-03-1.77176E-02-3.12732E+00-1.99665E-03 4.72266E-02-4.06926E-02 4.79639E+01-2.20774E+01 1.73511E+00



 n o d a l   p r i n t   o u t   f o r   t i m e  s t e p    3601                              ( at time 1.7998199E+00 )

 nodal point  x-rot      y-rot       z-rot       x-rot vel   y-rot vel   z-rot vel   x-rot acc   y-rot acc   z-rot acc
    22626  1.52268E-07 5.57834E-05 9.51856E-05-3.25638E-07 2.13138E-05 4.20785E-05 3.45351E-05-8.46648E-05-5.62937E-05



 n o d a l   p r i n t   o u t   f o r   t i m e  s t e p    3801                              ( at time 1.8998099E+00 )

 nodal point  x-disp     y-disp      z-disp      x-vel       y-vel       z-vel      x-accl      y-accl      z-accl      x-coor      y-coor      z-coor
    22626 -5.00180E-04-4.92022E-02-5.91621E+00-2.16407E-03-1.51636E-02-3.12982E+00-8.37886E-03 2.55422E-02-2.49625E-02 4.79637E+01-2.20790E+01 1.42229E+00



 n o d a l   p r i n t   o u t   f o r   t i m e  s t e p    3801                              ( at time 1.8998099E+00 )

 nodal point  x-rot      y-rot       z-rot       x-rot vel   y-rot vel   z-rot vel   x-rot acc   y-rot acc   z-rot acc
    22626 -9.17246E-08 5.76822E-05 9.86013E-05 1.60945E-06 1.54681E-05 2.73741E-05 1.93528E-05-5.84626E-05-1.47059E-04



 n o d a l   p r i n t   o u t   f o r   t i m e  s t e p    4001                              ( at time 1.9997999E+00 )

 nodal point  x-disp     y-disp      z-disp      x-vel       y-vel       z-vel      x-accl      y-accl      z-accl      x-coor      y-coor      z-coor
    22626 -6.73590E-04-5.05925E-02-6.22929E+00-1.64561E-03-1.28133E-02-3.13210E+00 5.18505E-03 2.35060E-02-2.28142E-02 4.79635E+01-2.20804E+01 1.10921E+00



 n o d a l   p r i n t   o u t   f o r   t i m e  s t e p    4001                              ( at time 1.9997999E+00 )

 nodal point  x-rot      y-rot       z-rot       x-rot vel   y-rot vel   z-rot vel   x-rot acc   y-rot acc   z-rot acc
    22626  1.13150E-07 5.90174E-05 1.00912E-04 3.42839E-06 1.32449E-05 2.01231E-05 1.81913E-05-2.22343E-05-7.25172E-05



 n o d a l   p r i n t   o u t   f o r   t i m e  s t e p    4201                              ( at time 2.0997899E+00 )

 nodal point  x-disp     y-disp      z-disp      x-vel       y-vel       z-vel      x-accl      y-accl      z-accl      x-coor      y-coor      z-coor
    22626 -8.42708E-04-5.16836E-02-6.54262E+00-1.85806E-03-9.15674E-03-3.13518E+00-2.12466E-03 3.65691E-02-3.07758E-02 4.79633E+01-2.20815E+01 7.95877E-01



 n o d a l   p r i n t   o u t   f o r   t i m e  s t e p    4201                              ( at time 2.0997899E+00 )

 nodal point  x-rot      y-rot       z-rot       x-rot vel   y-rot vel   z-rot vel   x-rot acc   y-rot acc   z-rot acc
    22626  3.97961E-07 5.96621E-05 1.02003E-04-1.50594E-06 3.32866E-06 1.51095E-06-4.93482E-05-9.91722E-05-1.86140E-04



 n o d a l   p r i n t   o u t   f o r   t i m e  s t e p    4401                              ( at time 2.1997798E+00 )

 nodal point  x-disp     y-disp      z-disp      x-vel       y-vel       z-vel      x-accl      y-accl      z-accl      x-coor      y-coor      z-coor
    22626 -1.08485E-03-5.23702E-02-6.85629E+00-2.76791E-03-4.41197E-03-3.13894E+00-9.09943E-03 4.74525E-02-3.76716E-02 4.79631E+01-2.20822E+01 4.82212E-01



 n o d a l   p r i n t   o u t   f o r   t i m e  s t e p    4401                              ( at time 2.1997798E+00 )

 nodal point  x-rot      y-rot       z-rot       x-rot vel   y-rot vel   z-rot vel   x-rot acc   y-rot acc   z-rot acc
    22626  2.21072E-07 5.96529E-05 1.01933E-04-1.24726E-06-2.06447E-06-2.95765E-06 2.58708E-06-5.39367E-05-4.46905E-05



 n o d a l   p r i n t   o u t   f o r   t i m e  s t e p    4601                              ( at time 2.2997698E+00 )

 nodal point  x-disp     y-disp      z-disp      x-vel       y-vel       z-vel      x-accl      y-accl      z-accl      x-coor      y-coor      z-coor
    22626 -1.39377E-03-5.25654E-02-7.17034E+00-3.51165E-03-8.36395E-05-3.14228E+00-7.43813E-03 4.32876E-02-3.33414E-02 4.79628E+01-2.20824E+01 1.68162E-01



 n o d a l   p r i n t   o u t   f o r   t i m e  s t e p    4601                              ( at time 2.2997698E+00 )

 nodal point  x-rot      y-rot       z-rot       x-rot vel   y-rot vel   z-rot vel   x-rot acc   y-rot acc   z-rot acc
    22626 -1.70282E-07 5.93404E-05 1.01561E-04-4.54744E-06-9.74555E-06-1.29651E-05-3.30051E-05-7.68184E-05-1.00085E-04



 n o d a l   p r i n t   o u t   f o r   t i m e  s t e p    4801                              ( at time 2.3997598E+00 )

 nodal point  x-disp     y-disp      z-disp      x-vel       y-vel       z-vel      x-accl      y-accl      z-accl      x-coor      y-coor      z-coor
    22626 -1.76246E-03-5.24785E-02-7.48464E+00-3.60791E-03 1.86311E-03-3.14440E+00-9.62645E-04 1.94694E-02-2.12309E-02 4.79624E+01-2.20823E+01-1.46135E-01



 n o d a l   p r i n t   o u t   f o r   t i m e  s t e p    4801                              ( at time 2.3997598E+00 )

 nodal point  x-rot      y-rot       z-rot       x-rot vel   y-rot vel   z-rot vel   x-rot acc   y-rot acc   z-rot acc
    22626 -7.18060E-07 5.80763E-05 9.90765E-05-5.92833E-06-1.61582E-05-3.36996E-05-1.38103E-05-6.41327E-05-2.07366E-04



 n o d a l   p r i n t   o u t   f o r   t i m e  s t e p    5001                              ( at time 2.4997498E+00 )

 nodal point  x-disp     y-disp      z-disp      x-vel       y-vel       z-vel      x-accl      y-accl      z-accl      x-coor      y-coor      z-coor
    22626 -2.15566E-03-5.21710E-02-7.79916E+00-4.23802E-03 4.96415E-03-3.14711E+00-6.30172E-03 3.10135E-02-2.70966E-02 4.79620E+01-2.20820E+01-4.60662E-01



 n o d a l   p r i n t   o u t   f o r   t i m e  s t e p    5001                              ( at time 2.4997498E+00 )

 nodal point  x-rot      y-rot       z-rot       x-rot vel   y-rot vel   z-rot vel   x-rot acc   y-rot acc   z-rot acc
    22626 -1.16800E-06 5.58422E-05 9.51089E-05-4.09464E-06-2.62526E-05-4.84723E-05 1.83387E-05-1.00954E-04-1.47742E-04



 n o d a l   p r i n t   o u t   f o r   t i m e  s t e p    5201                              ( at time 2.5997398E+00 )

 nodal point  x-disp     y-disp      z-disp      x-vel       y-vel       z-vel      x-accl      y-accl      z-accl      x-coor      y-coor      z-coor
    22626 -2.63004E-03-5.14568E-02-8.11403E+00-5.25235E-03 9.27134E-03-3.15070E+00-1.01444E-02 4.30762E-02-3.59095E-02 4.79616E+01-2.20812E+01-7.75527E-01



 n o d a l   p r i n t   o u t   f o r   t i m e  s t e p    5201                              ( at time 2.5997398E+00 )

 nodal point  x-rot      y-rot       z-rot       x-rot vel   y-rot vel   z-rot vel   x-rot acc   y-rot acc   z-rot acc
    22626 -1.53858E-06 5.27368E-05 8.96685E-05-4.69067E-06-3.58962E-05-6.24219E-05-5.96090E-06-9.64464E-05-1.39510E-04



 n o d a l   p r i n t   o u t   f o r   t i m e  s t e p    5401                              ( at time 2.6997298E+00 )

 nodal point  x-disp     y-disp      z-disp      x-vel       y-vel       z-vel      x-accl      y-accl      z-accl      x-coor      y-coor      z-coor
    22626 -3.19981E-03-5.03220E-02-8.42925E+00-6.42464E-03 1.29745E-02-3.15421E+00-1.17240E-02 3.70349E-02-3.51130E-02 4.79610E+01-2.20801E+01-1.09074E+00



 n o d a l   p r i n t   o u t   f o r   t i m e  s t e p    5401                              ( at time 2.6997298E+00 )

 nodal point  x-rot      y-rot       z-rot       x-rot vel   y-rot vel   z-rot vel   x-rot acc   y-rot acc   z-rot acc
    22626 -1.83734E-06 4.89860E-05 8.31638E-05-1.82507E-06-4.13651E-05-6.67060E-05 2.86589E-05-5.46938E-05-4.28447E-05



 n o d a l   p r i n t   o u t   f o r   t i m e  s t e p    5601                              ( at time 2.7997198E+00 )

 nodal point  x-disp     y-disp      z-disp      x-vel       y-vel       z-vel      x-accl      y-accl      z-accl      x-coor      y-coor      z-coor
    22626 -3.91359E-03-4.88975E-02-8.74475E+00-7.68325E-03 1.51472E-02-3.15635E+00-1.25873E-02 2.17290E-02-2.13907E-02 4.79603E+01-2.20787E+01-1.40625E+00



 n o d a l   p r i n t   o u t   f o r   t i m e  s t e p    5601                              ( at time 2.7997198E+00 )

 nodal point  x-rot      y-rot       z-rot       x-rot vel   y-rot vel   z-rot vel   x-rot acc   y-rot acc   z-rot acc
    22626 -1.97113E-06 4.40905E-05 7.50552E-05 3.01690E-07-5.73083E-05-9.85163E-05 2.12697E-05-1.59448E-04-3.18135E-04



 n o d a l   p r i n t   o u t   f o r   t i m e  s t e p    5801                              ( at time 2.8997098E+00 )

 nodal point  x-disp     y-disp      z-disp      x-vel       y-vel       z-vel      x-accl      y-accl      z-accl      x-coor      y-coor      z-coor
    22626 -4.68535E-03-4.73291E-02-9.06045E+00-7.81769E-03 1.61387E-02-3.15804E+00-1.34454E-03 9.91643E-03-1.68841E-02 4.79595E+01-2.20771E+01-1.72194E+00



 n o d a l   p r i n t   o u t   f o r   t i m e  s t e p    5801                              ( at time 2.8997098E+00 )

 nodal point  x-rot      y-rot       z-rot       x-rot vel   y-rot vel   z-rot vel   x-rot acc   y-rot acc   z-rot acc
    22626 -1.77038E-06 3.76495E-05 6.41494E-05 2.41252E-06-6.64908E-05-1.15317E-04 2.11105E-05-9.18347E-05-1.68027E-04



 n o d a l   p r i n t   o u t   f o r   t i m e  s t e p    6001                              ( at time 2.9996998E+00 )

 nodal point  x-disp     y-disp      z-disp      x-vel       y-vel       z-vel      x-accl      y-accl      z-accl      x-coor      y-coor      z-coor
    22626 -5.50576E-03-4.55973E-02-9.37632E+00-8.82816E-03 1.86331E-02-3.16041E+00-1.01057E-02 2.49464E-02-2.37274E-02 4.79587E+01-2.20754E+01-2.03782E+00



 n o d a l   p r i n t   o u t   f o r   t i m e  s t e p    6001                              ( at time 2.9996998E+00 )

 nodal point  x-rot      y-rot       z-rot       x-rot vel   y-rot vel   z-rot vel   x-rot acc   y-rot acc   z-rot acc
    22626 -1.53834E-06 3.07876E-05 5.25839E-05 5.66095E-07-7.08234E-05-1.20867E-04-1.84661E-05-4.33304E-05-5.55026E-05



 n o d a l   p r i n t   o u t   f o r   t i m e  s t e p    6201                              ( at time 3.0996898E+00 )

 nodal point  x-disp     y-disp      z-disp      x-vel       y-vel       z-vel      x-accl      y-accl      z-accl      x-coor      y-coor      z-coor
    22626 -6.47107E-03-4.36161E-02-9.69245E+00-1.04089E-02 2.05605E-02-3.16240E+00-1.58086E-02 1.92765E-02-1.98670E-02 4.79577E+01-2.20734E+01-2.35395E+00



 n o d a l   p r i n t   o u t   f o r   t i m e  s t e p    6201                              ( at time 3.0996898E+00 )

 nodal point  x-rot      y-rot       z-rot       x-rot vel   y-rot vel   z-rot vel   x-rot acc   y-rot acc   z-rot acc
    22626 -1.58550E-06 2.34295E-05 3.99547E-05-1.93422E-06-7.56523E-05-1.33353E-04-2.50057E-05-4.82937E-05-1.24868E-04



 n o d a l   p r i n t   o u t   f o r   t i m e  s t e p    6401                              ( at time 3.1996798E+00 )

 nodal point  x-disp     y-disp      z-disp      x-vel       y-vel       z-vel      x-accl      y-accl      z-accl      x-coor      y-coor      z-coor
    22626 -7.54214E-03-4.15856E-02-1.00087E+01-1.09293E-02 1.97603E-02-3.16298E+00-5.20482E-03-8.00350E-03-5.82514E-03 4.79566E+01-2.20714E+01-2.67020E+00



 n o d a l   p r i n t   o u t   f o r   t i m e  s t e p    6401                              ( at time 3.1996798E+00 )

 nodal point  x-rot      y-rot       z-rot       x-rot vel   y-rot vel   z-rot vel   x-rot acc   y-rot acc   z-rot acc
    22626 -1.71735E-06 1.53545E-05 2.63598E-05-1.51096E-06-8.52377E-05-1.43774E-04 4.23298E-06-9.58637E-05-1.04226E-04



 n o d a l   p r i n t   o u t   f o r   t i m e  s t e p    6601                              ( at time 3.2996698E+00 )

 nodal point  x-disp     y-disp      z-disp      x-vel       y-vel       z-vel      x-accl      y-accl      z-accl      x-coor      y-coor      z-coor
    22626 -8.64806E-03-3.97060E-02-1.03249E+01-1.11917E-02 1.78252E-02-3.16270E+00-2.62401E-03-1.93526E-02 2.80885E-03 4.79555E+01-2.20695E+01-2.98645E+00



 n o d a l   p r i n t   o u t   f o r   t i m e  s t e p    6601                              ( at time 3.2996698E+00 )

 nodal point  x-rot      y-rot       z-rot       x-rot vel   y-rot vel   z-rot vel   x-rot acc   y-rot acc   z-rot acc
    22626 -1.98267E-06 6.66085E-06 1.15976E-05-2.47870E-06-8.94829E-05-1.51627E-04-9.67838E-06-4.24565E-05-7.85388E-05



 n o d a l   p r i n t   o u t   f o r   t i m e  s t e p    6801                              ( at time 3.3996598E+00 )

 nodal point  x-disp     y-disp      z-disp      x-vel       y-vel       z-vel      x-accl      y-accl      z-accl      x-coor      y-coor      z-coor
    22626 -9.79852E-03-3.80147E-02-1.06412E+01-1.17021E-02 1.60323E-02-3.16261E+00-5.10490E-03-1.79311E-02 8.48854E-04 4.79544E+01-2.20678E+01-3.30268E+00



 n o d a l   p r i n t   o u t   f o r   t i m e  s t e p    6801                              ( at time 3.3996598E+00 )

 nodal point  x-rot      y-rot       z-rot       x-rot vel   y-rot vel   z-rot vel   x-rot acc   y-rot acc   z-rot acc
    22626 -2.03353E-06-2.22787E-06-3.69740E-06-2.63070E-06-8.80218E-05-1.53148E-04-1.52008E-06 1.46129E-05-1.52107E-05



 n o d a l   p r i n t   o u t   f o r   t i m e  s t e p    7001                              ( at time 3.4996498E+00 )

 nodal point  x-disp     y-disp      z-disp      x-vel       y-vel       z-vel      x-accl      y-accl      z-accl      x-coor      y-coor      z-coor
    22626 -1.09962E-02-3.64852E-02-1.09574E+01-1.23201E-02 1.44939E-02-3.16281E+00-6.18036E-03-1.53854E-02-1.99815E-03 4.79532E+01-2.20663E+01-3.61893E+00



 n o d a l   p r i n t   o u t   f o r   t i m e  s t e p    7001                              ( at time 3.4996498E+00 )

 nodal point  x-rot      y-rot       z-rot       x-rot vel   y-rot vel   z-rot vel   x-rot acc   y-rot acc   z-rot acc
    22626 -2.02595E-06-1.08936E-05-1.85286E-05 6.95723E-07-8.72072E-05-1.47432E-04 3.32676E-05 8.14662E-06 5.71683E-05



 n o d a l   p r i n t   o u t   f o r   t i m e  s t e p    7201                              ( at time 3.5996397E+00 )

 nodal point  x-disp     y-disp      z-disp      x-vel       y-vel       z-vel      x-accl      y-accl      z-accl      x-coor      y-coor      z-coor
    22626 -1.22508E-02-3.51423E-02-1.12737E+01-1.24115E-02 1.20894E-02-3.16261E+00-9.14362E-04-2.40470E-02 2.07684E-03 4.79519E+01-2.20649E+01-3.93517E+00



 n o d a l   p r i n t   o u t   f o r   t i m e  s t e p    7201                              ( at time 3.5996397E+00 )

 nodal point  x-rot      y-rot       z-rot       x-rot vel   y-rot vel   z-rot vel   x-rot acc   y-rot acc   z-rot acc
    22626 -2.03500E-06-1.95193E-05-3.30136E-05 1.96472E-06-8.47448E-05-1.38705E-04 1.26912E-05 2.46270E-05 8.72762E-05



 n o d a l   p r i n t   o u t   f o r   t i m e  s t e p    7401                              ( at time 3.6996297E+00 )

 nodal point  x-disp     y-disp      z-disp      x-vel       y-vel       z-vel      x-accl      y-accl      z-accl      x-coor      y-coor      z-coor
    22626 -1.34805E-02-3.40988E-02-1.15899E+01-1.21433E-02 8.70070E-03-3.16159E+00 2.68184E-03-3.38907E-02 1.01386E-02 4.79507E+01-2.20639E+01-4.25135E+00



 n o d a l   p r i n t   o u t   f o r   t i m e  s t e p    7401                              ( at time 3.6996297E+00 )

 nodal point  x-rot      y-rot       z-rot       x-rot vel   y-rot vel   z-rot vel   x-rot acc   y-rot acc   z-rot acc
    22626 -1.78025E-06-2.78038E-05-4.68073E-05 3.79476E-06-8.13044E-05-1.36452E-04 1.83023E-05 3.44073E-05 2.25293E-05



 n o d a l   p r i n t   o u t   f o r   t i m e  s t e p    7601                              ( at time 3.7996197E+00 )

 nodal point  x-disp     y-disp      z-disp      x-vel       y-vel       z-vel      x-accl      y-accl      z-accl      x-coor      y-coor      z-coor
    22626 -1.46655E-02-3.33661E-02-1.19059E+01-1.15847E-02 6.00441E-03-3.16088E+00 5.58674E-03-2.69656E-02 7.13659E-03 4.79495E+01-2.20632E+01-4.56744E+00



 n o d a l   p r i n t   o u t   f o r   t i m e  s t e p    7601                              ( at time 3.7996197E+00 )

 nodal point  x-rot      y-rot       z-rot       x-rot vel   y-rot vel   z-rot vel   x-rot acc   y-rot acc   z-rot acc
    22626 -1.31825E-06-3.56213E-05-6.00761E-05 5.22516E-06-7.23693E-05-1.22028E-04 1.43055E-05 8.93599E-05 1.44255E-04



 n o d a l   p r i n t   o u t   f o r   t i m e  s t e p    7801                              ( at time 3.8996097E+00 )

 nodal point  x-disp     y-disp      z-disp      x-vel       y-vel       z-vel      x-accl      y-accl      z-accl      x-coor      y-coor      z-coor
    22626 -1.57927E-02-3.28653E-02-1.22220E+01-1.09378E-02 4.21670E-03-3.16081E+00 6.46959E-03-1.78789E-02 7.20095E-04 4.79484E+01-2.20627E+01-4.88349E+00



 n o d a l   p r i n t   o u t   f o r   t i m e  s t e p    7801                              ( at time 3.8996097E+00 )

 nodal point  x-rot      y-rot       z-rot       x-rot vel   y-rot vel   z-rot vel   x-rot acc   y-rot acc   z-rot acc
    22626 -9.57602E-07-4.22232E-05-7.11975E-05 6.23896E-07-5.76959E-05-9.62093E-05-4.60172E-05 1.46749E-04 2.58215E-04



 n o d a l   p r i n t   o u t   f o r   t i m e  s t e p    8001                              ( at time 3.9995997E+00 )

 nodal point  x-disp     y-disp      z-disp      x-vel       y-vel       z-vel      x-accl      y-accl      z-accl      x-coor      y-coor      z-coor
    22626 -1.68603E-02-3.24950E-02-1.25381E+01-1.03880E-02 3.14400E-03-3.16114E+00 5.49882E-03-1.07281E-02-3.35250E-03 4.79473E+01-2.20623E+01-5.19956E+00



 n o d a l   p r i n t   o u t   f o r   t i m e  s t e p    8001                              ( at time 3.9995997E+00 )

 nodal point  x-rot      y-rot       z-rot       x-rot vel   y-rot vel   z-rot vel   x-rot acc   y-rot acc   z-rot acc
    22626 -8.28560E-07-4.74704E-05-7.98840E-05-1.91484E-07-4.67591E-05-7.99642E-05-8.15462E-06 1.09379E-04 1.62468E-04



 n o d a l   p r i n t   o u t   f o r   t i m e  s t e p    8201                              ( at time 4.0995897E+00 )

 nodal point  x-disp     y-disp      z-disp      x-vel       y-vel       z-vel      x-accl      y-accl      z-accl      x-coor      y-coor      z-coor
    22626 -1.78167E-02-3.22955E-02-1.28541E+01-8.60079E-03 6.39798E-04-3.16064E+00 1.78740E-02-2.50445E-02 5.05974E-03 4.79464E+01-2.20621E+01-5.51562E+00



 n o d a l   p r i n t   o u t   f o r   t i m e  s t e p    8201                              ( at time 4.0995897E+00 )

 nodal point  x-rot      y-rot       z-rot       x-rot vel   y-rot vel   z-rot vel   x-rot acc   y-rot acc   z-rot acc
    22626 -8.39593E-07-5.15997E-05-8.68584E-05-1.74292E-07-3.21674E-05-5.65104E-05 1.71929E-07 1.45931E-04 2.34561E-04



 n o d a l   p r i n t   o u t   f o r   t i m e  s t e p    8401                              ( at time 4.1995797E+00 )

 nodal point  x-disp     y-disp      z-disp      x-vel       y-vel       z-vel      x-accl      y-accl      z-accl      x-coor      y-coor      z-coor
    22626 -1.85978E-02-3.23578E-02-1.31701E+01-6.96816E-03-1.79024E-03-3.16004E+00 1.63279E-02-2.43029E-02 5.93722E-03 4.79456E+01-2.20621E+01-5.83162E+00



 n o d a l   p r i n t   o u t   f o r   t i m e  s t e p    8401                              ( at time 4.1995797E+00 )

 nodal point  x-rot      y-rot       z-rot       x-rot vel   y-rot vel   z-rot vel   x-rot acc   y-rot acc   z-rot acc
    22626 -8.25987E-07-5.39795E-05-9.08127E-05-2.62701E-07-1.40795E-05-2.27236E-05-8.84176E-07 1.80897E-04 3.37902E-04



 n o d a l   p r i n t   o u t   f o r   t i m e  s t e p    8601                              ( at time 4.2995697E+00 )

 nodal point  x-disp     y-disp      z-disp      x-vel       y-vel       z-vel      x-accl      y-accl      z-accl      x-coor      y-coor      z-coor
    22626 -1.92310E-02-3.26565E-02-1.34861E+01-5.55711E-03-3.88086E-03-3.15987E+00 1.41120E-02-2.09082E-02 1.73825E-03 4.79450E+01-2.20624E+01-6.14757E+00



 n o d a l   p r i n t   o u t   f o r   t i m e  s t e p    8601                              ( at time 4.2995697E+00 )

 nodal point  x-rot      y-rot       z-rot       x-rot vel   y-rot vel   z-rot vel   x-rot acc   y-rot acc   z-rot acc
    22626 -8.50785E-07-5.44173E-05-9.16657E-05-5.53990E-07 2.83275E-06 4.64562E-06-2.91318E-06 1.69139E-04 2.73719E-04



 n o d a l   p r i n t   o u t   f o r   t i m e  s t e p    8801                              ( at time 4.3995597E+00 )

 nodal point  x-disp     y-disp      z-disp      x-vel       y-vel       z-vel      x-accl      y-accl      z-accl      x-coor      y-coor      z-coor
    22626 -1.96972E-02-3.30852E-02-1.38021E+01-3.80289E-03-4.73469E-03-3.16048E+00 1.75439E-02-8.53914E-03-6.08983E-03 4.79445E+01-2.20629E+01-6.46355E+00



 n o d a l   p r i n t   o u t   f o r   t i m e  s t e p    8801                              ( at time 4.3995597E+00 )

 nodal point  x-rot      y-rot       z-rot       x-rot vel   y-rot vel   z-rot vel   x-rot acc   y-rot acc   z-rot acc
    22626 -8.29940E-07-5.31401E-05-8.93485E-05 8.06599E-07 2.21968E-05 3.98753E-05 1.36073E-05 1.93660E-04 3.52332E-04



 n o d a l   p r i n t   o u t   f o r   t i m e  s t e p    9001                              ( at time 4.4995497E+00 )

 nodal point  x-disp     y-disp      z-disp      x-vel       y-vel       z-vel      x-accl      y-accl      z-accl      x-coor      y-coor      z-coor
    22626 -1.99945E-02-3.36544E-02-1.41181E+01-2.05162E-03-6.99823E-03-3.16009E+00 1.75144E-02-2.26376E-02 3.87944E-03 4.79442E+01-2.20634E+01-6.77956E+00



 n o d a l   p r i n t   o u t   f o r   t i m e  s t e p    9001                              ( at time 4.4995497E+00 )

 nodal point  x-rot      y-rot       z-rot       x-rot vel   y-rot vel   z-rot vel   x-rot acc   y-rot acc   z-rot acc
    22626 -6.97700E-07-4.96780E-05-8.32418E-05 3.42839E-06 4.38254E-05 7.64166E-05 2.62204E-05 2.16307E-04 3.65449E-04



 n o d a l   p r i n t   o u t   f o r   t i m e  s t e p    9201                              ( at time 4.5995397E+00 )

 nodal point  x-disp     y-disp      z-disp      x-vel       y-vel       z-vel      x-accl      y-accl      z-accl      x-coor      y-coor      z-coor
    22626 -2.01055E-02-3.45084E-02-1.44340E+01-1.16373E-04-9.89840E-03-3.15951E+00 1.93544E-02-2.90046E-02 5.81800E-03 4.79441E+01-2.20643E+01-7.09550E+00



 n o d a l   p r i n t   o u t   f o r   t i m e  s t e p    9201                              ( at time 4.5995397E+00 )

 nodal point  x-rot      y-rot       z-rot       x-rot vel   y-rot vel   z-rot vel   x-rot acc   y-rot acc   z-rot acc
    22626 -3.92731E-07-4.44597E-05-7.41307E-05 4.17871E-06 5.98490E-05 1.02641E-04 7.50403E-06 1.60252E-04 2.62266E-04



 n o d a l   p r i n t   o u t   f o r   t i m e  s t e p    9401                              ( at time 4.6995297E+00 )

 nodal point  x-disp     y-disp      z-disp      x-vel       y-vel       z-vel      x-accl      y-accl      z-accl      x-coor      y-coor      z-coor
    22626 -2.00009E-02-3.55787E-02-1.47499E+01 2.11807E-03-1.15000E-02-3.15936E+00 2.23467E-02-1.60173E-02 1.47834E-03 4.79442E+01-2.20654E+01-7.41142E+00



 n o d a l   p r i n t   o u t   f o r   t i m e  s t e p    9401                              ( at time 4.6995297E+00 )

 nodal point  x-rot      y-rot       z-rot       x-rot vel   y-rot vel   z-rot vel   x-rot acc   y-rot acc   z-rot acc
    22626 -1.83144E-08-3.73067E-05-6.16997E-05 2.71346E-06 8.45198E-05 1.45304E-04-1.46540E-05 2.46733E-04 4.26681E-04



 n o d a l   p r i n t   o u t   f o r   t i m e  s t e p    9601                              ( at time 4.7995197E+00 )

 nodal point  x-disp     y-disp      z-disp      x-vel       y-vel       z-vel      x-accl      y-accl      z-accl      x-coor      y-coor      z-coor
    22626 -1.96896E-02-3.68005E-02-1.50658E+01 3.99431E-03-1.27526E-02-3.15961E+00 1.87643E-02-1.25280E-02-2.52988E-03 4.79445E+01-2.20666E+01-7.72733E+00



 n o d a l   p r i n t   o u t   f o r   t i m e  s t e p    9601                              ( at time 4.7995197E+00 )

 nodal point  x-rot      y-rot       z-rot       x-rot vel   y-rot vel   z-rot vel   x-rot acc   y-rot acc   z-rot acc
    22626  2.79596E-07-2.75981E-05-4.50571E-05-2.65473E-07 1.09239E-04 1.87185E-04-2.97924E-05 2.47218E-04 4.18844E-04



 n o d a l   p r i n t   o u t   f o r   t i m e  s t e p    9801                              ( at time 4.8995097E+00 )

 nodal point  x-disp     y-disp      z-disp      x-vel       y-vel       z-vel      x-accl      y-accl      z-accl      x-coor      y-coor      z-coor
    22626 -1.91891E-02-3.81340E-02-1.53818E+01 6.11914E-03-1.40967E-02-3.15952E+00 2.12505E-02-1.34423E-02 9.56155E-04 4.79450E+01-2.20679E+01-8.04327E+00



 n o d a l   p r i n t   o u t   f o r   t i m e  s t e p    9801                              ( at time 4.8995097E+00 )

 nodal point  x-rot      y-rot       z-rot       x-rot vel   y-rot vel   z-rot vel   x-rot acc   y-rot acc   z-rot acc
    22626  1.90476E-07-1.57679E-05-2.45214E-05-4.49193E-06 1.27204E-04 2.20975E-04-4.22689E-05 1.79667E-04 3.37943E-04



 n o d a l   p r i n t   o u t   f o r   t i m e  s t e p   10001                              ( at time 4.9994997E+00 )

 nodal point  x-disp     y-disp      z-disp      x-vel       y-vel       z-vel      x-accl      y-accl      z-accl      x-coor      y-coor      z-coor
    22626 -1.84365E-02-3.96372E-02-1.56976E+01 8.78462E-03-1.59844E-02-3.15654E+00 2.66573E-02-1.88780E-02 2.98004E-02 4.79457E+01-2.20694E+01-8.35907E+00



 n o d a l   p r i n t   o u t   f o r   t i m e  s t e p   10001                              ( at time 4.9994997E+00 )

 nodal point  x-rot      y-rot       z-rot       x-rot vel   y-rot vel   z-rot vel   x-rot acc   y-rot acc   z-rot acc
    22626 -3.67835E-07-9.02947E-07-9.93273E-07-8.68004E-07 1.78493E-04 2.44857E-04 3.62428E-05 5.12942E-04 2.38840E-04



 n o d a l   p r i n t   o u t   f o r   t i m e  s t e p   10202                              ( at time 5.0999896E+00 )

 nodal point  x-disp     y-disp      z-disp      x-vel       y-vel       z-vel      x-accl      y-accl      z-accl      x-coor      y-coor      z-coor
    22626 -1.74271E-02-4.12668E-02-1.60145E+01 1.13218E-02-1.63111E-02-3.15063E+00 2.52480E-02-3.25107E-03 5.88326E-02 4.79468E+01-2.20711E+01-8.67599E+00



 n o d a l   p r i n t   o u t   f o r   t i m e  s t e p   10202                              ( at time 5.0999896E+00 )

 nodal point  x-rot      y-rot       z-rot       x-rot vel   y-rot vel   z-rot vel   x-rot acc   y-rot acc   z-rot acc
    22626  6.09143E-07 2.14726E-05 2.49238E-05 2.28020E-05 2.68571E-04 2.60182E-04 2.35547E-04 8.96387E-04 1.52498E-04



 n o d a l   p r i n t   o u t   f o r   t i m e  s t e p   10402                              ( at time 5.1999796E+00 )

 nodal point  x-disp     y-disp      z-disp      x-vel       y-vel       z-vel      x-accl      y-accl      z-accl      x-coor      y-coor      z-coor
    22626 -1.61787E-02-4.28579E-02-1.63289E+01 1.32880E-02-1.44409E-02-3.13889E+00 1.96640E-02 1.87035E-02 1.17363E-01 4.79480E+01-2.20726E+01-8.99044E+00



 n o d a l   p r i n t   o u t   f o r   t i m e  s t e p   10402                              ( at time 5.1999796E+00 )

 nodal point  x-rot      y-rot       z-rot       x-rot vel   y-rot vel   z-rot vel   x-rot acc   y-rot acc   z-rot acc
    22626  4.61167E-06 5.58692E-05 5.21236E-05 7.53090E-05 4.19288E-04 2.58305E-04 5.25121E-04 1.50732E-03-1.87688E-05



 n o d a l   p r i n t   o u t   f o r   t i m e  s t e p   10602                              ( at time 5.2999696E+00 )

 nodal point  x-disp     y-disp      z-disp      x-vel       y-vel       z-vel      x-accl      y-accl      z-accl      x-coor      y-coor      z-coor
    22626 -1.47694E-02-4.41801E-02-1.66421E+01 1.43259E-02-1.15091E-02-3.12210E+00 1.03800E-02 2.93212E-02 1.67904E-01 4.79494E+01-2.20740E+01-9.30356E+00



 n o d a l   p r i n t   o u t   f o r   t i m e  s t e p   10602                              ( at time 5.2999696E+00 )

 nodal point  x-rot      y-rot       z-rot       x-rot vel   y-rot vel   z-rot vel   x-rot acc   y-rot acc   z-rot acc
    22626  1.61590E-05 1.08356E-04 7.83615E-05 1.57655E-04 6.36410E-04 2.46528E-04 8.23541E-04 2.17143E-03-1.17781E-04



 n o d a l   p r i n t   o u t   f o r   t i m e  s t e p   10802                              ( at time 5.3999596E+00 )

 nodal point  x-disp     y-disp      z-disp      x-vel       y-vel       z-vel      x-accl      y-accl      z-accl      x-coor      y-coor      z-coor
    22626 -1.33368E-02-4.52440E-02-1.69529E+01 1.38054E-02-7.82995E-03-3.09427E+00-5.20553E-03 3.67948E-02 2.78327E-01 4.79508E+01-2.20750E+01-9.61444E+00



 n o d a l   p r i n t   o u t   f o r   t i m e  s t e p   10802                              ( at time 5.3999596E+00 )

 nodal point  x-rot      y-rot       z-rot       x-rot vel   y-rot vel   z-rot vel   x-rot acc   y-rot acc   z-rot acc
    22626  3.75753E-05 1.84921E-04 1.02472E-04 3.11239E-04 8.85380E-04 2.15879E-04 1.53600E-03 2.48995E-03-3.06524E-04



 n o d a l   p r i n t   o u t   f o r   t i m e  s t e p   11002                              ( at time 5.4999496E+00 )

 nodal point  x-disp     y-disp      z-disp      x-vel       y-vel       z-vel      x-accl      y-accl      z-accl      x-coor      y-coor      z-coor
    22626 -1.19764E-02-4.57844E-02-1.72604E+01 1.25250E-02-2.27308E-05-3.05222E+00-1.28050E-02 7.80801E-02 4.20579E-01 4.79522E+01-2.20756E+01-9.92186E+00



 n o d a l   p r i n t   o u t   f o r   t i m e  s t e p   11002                              ( at time 5.4999496E+00 )

 nodal point  x-rot      y-rot       z-rot       x-rot vel   y-rot vel   z-rot vel   x-rot acc   y-rot acc   z-rot acc
    22626  8.22751E-05 2.88555E-04 1.24495E-04 6.23109E-04 1.16422E-03 2.02804E-04 3.11902E-03 2.78873E-03-1.30763E-04



 n o d a l   p r i n t   o u t   f o r   t i m e  s t e p   11202                              ( at time 5.5999396E+00 )

 nodal point  x-disp     y-disp      z-disp      x-vel       y-vel       z-vel      x-accl      y-accl      z-accl      x-coor      y-coor      z-coor
    22626 -1.07470E-02-4.55076E-02-1.75633E+01 1.12740E-02 6.74284E-03-3.00449E+00-1.25112E-02 6.76626E-02 4.77381E-01 4.79534E+01-2.20753E+01-1.02248E+01



 n o d a l   p r i n t   o u t   f o r   t i m e  s t e p   11202                              ( at time 5.5999396E+00 )

 nodal point  x-rot      y-rot       z-rot       x-rot vel   y-rot vel   z-rot vel   x-rot acc   y-rot acc   z-rot acc
    22626  1.59163E-04 4.20663E-04 1.43708E-04 9.31407E-04 1.48406E-03 1.59939E-04 3.08329E-03 3.19872E-03-4.28686E-04



 n o d a l   p r i n t   o u t   f o r   t i m e  s t e p   11402                              ( at time 5.6999296E+00 )

 nodal point  x-disp     y-disp      z-disp      x-vel       y-vel       z-vel      x-accl      y-accl      z-accl      x-coor      y-coor      z-coor
    22626 -9.66922E-03-4.46727E-02-1.78612E+01 1.01293E-02 9.72953E-03-2.95637E+00-1.14482E-02 2.98698E-02 4.81237E-01 4.79545E+01-2.20745E+01-1.05227E+01



 n o d a l   p r i n t   o u t   f o r   t i m e  s t e p   11402                              ( at time 5.6999296E+00 )

 nodal point  x-rot      y-rot       z-rot       x-rot vel   y-rot vel   z-rot vel   x-rot acc   y-rot acc   z-rot acc
    22626  2.64844E-04 5.87983E-04 1.56023E-04 1.17555E-03 1.82889E-03 7.92694E-05 2.44167E-03 3.44860E-03-8.06779E-04



 n o d a l   p r i n t   o u t   f o r   t i m e  s t e p   11602                              ( at time 5.7999195E+00 )

 nodal point  x-disp     y-disp      z-disp      x-vel       y-vel       z-vel      x-accl      y-accl      z-accl      x-coor      y-coor      z-coor
    22626 -8.64608E-03-4.33787E-02-1.81542E+01 1.07669E-02 1.49710E-02-2.90444E+00 6.37639E-03 5.24200E-02 5.19340E-01 4.79555E+01-2.20732E+01-1.08157E+01



 n o d a l   p r i n t   o u t   f o r   t i m e  s t e p   11602                              ( at time 5.7999195E+00 )

 nodal point  x-rot      y-rot       z-rot       x-rot vel   y-rot vel   z-rot vel   x-rot acc   y-rot acc   z-rot acc
    22626  3.96763E-04 7.89779E-04 1.59079E-04 1.45968E-03 2.20835E-03-3.31751E-05 2.84163E-03 3.79498E-03-1.12456E-03



 n o d a l   p r i n t   o u t   f o r   t i m e  s t e p   11802                              ( at time 5.8999095E+00 )

 nodal point  x-disp     y-disp      z-disp      x-vel       y-vel       z-vel      x-accl      y-accl      z-accl      x-coor      y-coor      z-coor
    22626 -7.67106E-03-4.15801E-02-1.84420E+01 8.81743E-03 2.11643E-02-2.85226E+00-1.94965E-02 6.19388E-02 5.21787E-01 4.79565E+01-2.20714E+01-1.11035E+01



 n o d a l   p r i n t   o u t   f o r   t i m e  s t e p   11802                              ( at time 5.8999095E+00 )

 nodal point  x-rot      y-rot       z-rot       x-rot vel   y-rot vel   z-rot vel   x-rot acc   y-rot acc   z-rot acc
    22626  5.59191E-04 1.03081E-03 1.49284E-04 1.77912E-03 2.64235E-03-1.71469E-04 3.19469E-03 4.34044E-03-1.38308E-03



 n o d a l   p r i n t   o u t   f o r   t i m e  s t e p   12002                              ( at time 5.9998995E+00 )

 nodal point  x-disp     y-disp      z-disp      x-vel       y-vel       z-vel      x-accl      y-accl      z-accl      x-coor      y-coor      z-coor
    22626 -6.88917E-03-3.92769E-02-1.87246E+01 7.40922E-03 2.59973E-02-2.80159E+00-1.40835E-02 4.83354E-02 5.06772E-01 4.79573E+01-2.20691E+01-1.13861E+01



 n o d a l   p r i n t   o u t   f o r   t i m e  s t e p   12002                              ( at time 5.9998995E+00 )

 nodal point  x-rot      y-rot       z-rot       x-rot vel   y-rot vel   z-rot vel   x-rot acc   y-rot acc   z-rot acc
    22626  7.52874E-04 1.31448E-03 1.26484E-04 2.10448E-03 3.01938E-03-3.26629E-04 3.25394E-03 3.77063E-03-1.55175E-03



 n o d a l   p r i n t   o u t   f o r   t i m e  s t e p   12202                              ( at time 6.0998895E+00 )

 nodal point  x-disp     y-disp      z-disp      x-vel       y-vel       z-vel      x-accl      y-accl      z-accl      x-coor      y-coor      z-coor
    22626 -6.17829E-03-3.63520E-02-1.90023E+01 8.05994E-03 3.33543E-02-2.75329E+00 6.50783E-03 7.35765E-02 4.83083E-01 4.79580E+01-2.20661E+01-1.16638E+01



 n o d a l   p r i n t   o u t   f o r   t i m e  s t e p   12202                              ( at time 6.0998895E+00 )

 nodal point  x-rot      y-rot       z-rot       x-rot vel   y-rot vel   z-rot vel   x-rot acc   y-rot acc   z-rot acc
    22626  9.78160E-04 1.63729E-03 8.68334E-05 2.40244E-03 3.41864E-03-4.91393E-04 2.97984E-03 3.99301E-03-1.64780E-03



 n o d a l   p r i n t   o u t   f o r   t i m e  s t e p   12402                              ( at time 6.1998795E+00 )

 nodal point  x-disp     y-disp      z-disp      x-vel       y-vel       z-vel      x-accl      y-accl      z-accl      x-coor      y-coor      z-coor
    22626 -5.37220E-03-3.28088E-02-1.92751E+01 1.00609E-02 3.90612E-02-2.70469E+00 2.00119E-02 5.70750E-02 4.86011E-01 4.79588E+01-2.20626E+01-1.19366E+01



 n o d a l   p r i n t   o u t   f o r   t i m e  s t e p   12402                              ( at time 6.1998795E+00 )

 nodal point  x-rot      y-rot       z-rot       x-rot vel   y-rot vel   z-rot vel   x-rot acc   y-rot acc   z-rot acc
    22626  1.23224E-03 1.99898E-03 3.28418E-05 2.69999E-03 3.76636E-03-6.29573E-04 2.97583E-03 3.47757E-03-1.38194E-03



 n o d a l   p r i n t   o u t   f o r   t i m e  s t e p   12602                              ( at time 6.2998695E+00 )

 nodal point  x-disp     y-disp      z-disp      x-vel       y-vel       z-vel      x-accl      y-accl      z-accl      x-coor      y-coor      z-coor
    22626 -4.16361E-03-2.85760E-02-1.95432E+01 1.42198E-02 4.51237E-02-2.65765E+00 4.15929E-02 6.06311E-02 4.70497E-01 4.79600E+01-2.20584E+01-1.22047E+01



 n o d a l   p r i n t   o u t   f o r   t i m e  s t e p   12602                              ( at time 6.2998695E+00 )

 nodal point  x-rot      y-rot       z-rot       x-rot vel   y-rot vel   z-rot vel   x-rot acc   y-rot acc   z-rot acc
    22626  1.51651E-03 2.39494E-03-3.57770E-05 2.96570E-03 4.12109E-03-7.58173E-04 2.65738E-03 3.54768E-03-1.28613E-03



 n o d a l   p r i n t   o u t   f o r   t i m e  s t e p   12802                              ( at time 6.3998595E+00 )

 nodal point  x-disp     y-disp      z-disp      x-vel       y-vel       z-vel      x-accl      y-accl      z-accl      x-coor      y-coor      z-coor
    22626 -2.43620E-03-2.38441E-02-1.98067E+01 2.10107E-02 4.94060E-02-2.61099E+00 6.79159E-02 4.28272E-02 4.66656E-01 4.79617E+01-2.20536E+01-1.24682E+01



 n o d a l   p r i n t   o u t   f o r   t i m e  s t e p   12802                              ( at time 6.3998595E+00 )

 nodal point  x-rot      y-rot       z-rot       x-rot vel   y-rot vel   z-rot vel   x-rot acc   y-rot acc   z-rot acc
    22626  1.82541E-03 2.82269E-03-1.17400E-04 3.22077E-03 4.42266E-03-8.74831E-04 2.55096E-03 3.01604E-03-1.16669E-03



 n o d a l   p r i n t   o u t   f o r   t i m e  s t e p   13002                              ( at time 6.4998495E+00 )

 nodal point  x-disp     y-disp      z-disp      x-vel       y-vel       z-vel      x-accl      y-accl      z-accl      x-coor      y-coor      z-coor
    22626  4.78888E-05-1.85306E-02-2.00653E+01 2.83929E-02 5.71494E-02-2.56370E+00 7.38290E-02 7.74423E-02 4.72932E-01 4.79642E+01-2.20483E+01-1.27268E+01



 n o d a l   p r i n t   o u t   f o r   t i m e  s t e p   13002                              ( at time 6.4998495E+00 )

 nodal point  x-rot      y-rot       z-rot       x-rot vel   y-rot vel   z-rot vel   x-rot acc   y-rot acc   z-rot acc
    22626  2.16005E-03 3.27894E-03-2.11808E-04 3.47547E-03 4.70540E-03-1.01775E-03 2.54725E-03 2.82767E-03-1.42935E-03



 n o d a l   p r i n t   o u t   f o r   t i m e  s t e p   13202                              ( at time 6.5998395E+00 )

 nodal point  x-disp     y-disp      z-disp      x-vel       y-vel       z-vel      x-accl      y-accl      z-accl      x-coor      y-coor      z-coor
    22626  3.19439E-03-1.24849E-02-2.03192E+01 3.60674E-02 6.36133E-02-2.51463E+00 7.67524E-02 6.46453E-02 4.90689E-01 4.79674E+01-2.20423E+01-1.29807E+01



 n o d a l   p r i n t   o u t   f o r   t i m e  s t e p   13202                              ( at time 6.5998395E+00 )

 nodal point  x-rot      y-rot       z-rot       x-rot vel   y-rot vel   z-rot vel   x-rot acc   y-rot acc   z-rot acc
    22626  2.51944E-03 3.76353E-03-3.17659E-04 3.71268E-03 4.96968E-03-1.12945E-03 2.37227E-03 2.64298E-03-1.11707E-03



 n o d a l   p r i n t   o u t   f o r   t i m e  s t e p   13402                              ( at time 6.6998295E+00 )

 nodal point  x-disp     y-disp      z-disp      x-vel       y-vel       z-vel      x-accl      y-accl      z-accl      x-coor      y-coor      z-coor
    22626  7.20226E-03-5.90825E-03-2.05680E+01 4.47245E-02 6.77570E-02-2.46281E+00 8.65798E-02 4.14414E-02 5.18260E-01 4.79714E+01-2.20357E+01-1.32295E+01



 n o d a l   p r i n t   o u t   f o r   t i m e  s t e p   13402                              ( at time 6.6998295E+00 )

 nodal point  x-rot      y-rot       z-rot       x-rot vel   y-rot vel   z-rot vel   x-rot acc   y-rot acc   z-rot acc
    22626  2.90465E-03 4.27235E-03-4.36012E-04 3.98089E-03 5.19125E-03-1.24950E-03 2.68237E-03 2.21593E-03-1.20064E-03



 n o d a l   p r i n t   o u t   f o r   t i m e  s t e p   13602                              ( at time 6.7998195E+00 )

 nodal point  x-disp     y-disp      z-disp      x-vel       y-vel       z-vel      x-accl      y-accl      z-accl      x-coor      y-coor      z-coor
    22626  1.21076E-02 1.16800E-03-2.08115E+01 5.33312E-02 7.41821E-02-2.40716E+00 8.60765E-02 6.42570E-02 5.56544E-01 4.79763E+01-2.20286E+01-1.34730E+01



 n o d a l   p r i n t   o u t   f o r   t i m e  s t e p   13602                              ( at time 6.7998195E+00 )

 nodal point  x-rot      y-rot       z-rot       x-rot vel   y-rot vel   z-rot vel   x-rot acc   y-rot acc   z-rot acc
    22626  3.31761E-03 4.80291E-03-5.66589E-04 4.27991E-03 5.40693E-03-1.35963E-03 2.99050E-03 2.15710E-03-1.10139E-03



 n o d a l   p r i n t   o u t   f o r   t i m e  s t e p   13802                              ( at time 6.8998095E+00 )

 nodal point  x-disp     y-disp      z-disp      x-vel       y-vel       z-vel      x-accl      y-accl      z-accl      x-coor      y-coor      z-coor
    22626  1.78985E-02 8.94943E-03-2.10494E+01 6.15832E-02 8.17900E-02-2.34990E+00 8.25278E-02 7.60868E-02 5.72656E-01 4.79821E+01-2.20208E+01-1.37109E+01



 n o d a l   p r i n t   o u t   f o r   t i m e  s t e p   13802                              ( at time 6.8998095E+00 )

 nodal point  x-rot      y-rot       z-rot       x-rot vel   y-rot vel   z-rot vel   x-rot acc   y-rot acc   z-rot acc
    22626  3.76230E-03 5.35404E-03-7.07815E-04 4.61756E-03 5.61115E-03-1.48414E-03 3.37686E-03 2.04237E-03-1.24527E-03



 n o d a l   p r i n t   o u t   f o r   t i m e  s t e p   14002                              ( at time 6.9997995E+00 )

 nodal point  x-disp     y-disp      z-disp      x-vel       y-vel       z-vel      x-accl      y-accl      z-accl      x-coor      y-coor      z-coor
    22626  2.45285E-02 1.74667E-02-2.12813E+01 7.07366E-02 8.84054E-02-2.28808E+00 9.15438E-02 6.61605E-02 6.18353E-01 4.79887E+01-2.20123E+01-1.39428E+01



 n o d a l   p r i n t   o u t   f o r   t i m e  s t e p   14002                              ( at time 6.9997995E+00 )

 nodal point  x-rot      y-rot       z-rot       x-rot vel   y-rot vel   z-rot vel   x-rot acc   y-rot acc   z-rot acc
    22626  4.24043E-03 5.92599E-03-8.61017E-04 4.96754E-03 5.81932E-03-1.58483E-03 3.50015E-03 2.08190E-03-1.00702E-03



 n o d a l   p r i n t   o u t   f o r   t i m e  s t e p   14202                              ( at time 7.0997895E+00 )

 nodal point  x-disp     y-disp      z-disp      x-vel       y-vel       z-vel      x-accl      y-accl      z-accl      x-coor      y-coor      z-coor
    22626  3.21027E-02 2.67268E-02-2.15067E+01 8.06568E-02 9.79849E-02-2.22101E+00 9.92115E-02 9.58040E-02 6.70729E-01 4.79963E+01-2.20031E+01-1.41682E+01



 n o d a l   p r i n t   o u t   f o r   t i m e  s t e p   14202                              ( at time 7.0997895E+00 )

 nodal point  x-rot      y-rot       z-rot       x-rot vel   y-rot vel   z-rot vel   x-rot acc   y-rot acc   z-rot acc
    22626  4.75599E-03 6.51644E-03-1.02468E-03 5.36250E-03 5.98945E-03-1.71030E-03 3.95000E-03 1.70150E-03-1.25477E-03



 n o d a l   p r i n t   o u t   f o r   t i m e  s t e p   14402                              ( at time 7.1997794E+00 )

 nodal point  x-disp     y-disp      z-disp      x-vel       y-vel       z-vel      x-accl      y-accl      z-accl      x-coor      y-coor      z-coor
    22626  4.06363E-02 3.68142E-02-2.17253E+01 8.93047E-02 1.03782E-01-2.15102E+00 8.64869E-02 5.79790E-02 6.99970E-01 4.80048E+01-2.19930E+01-1.43868E+01



 n o d a l   p r i n t   o u t   f o r   t i m e  s t e p   14402                              ( at time 7.1997794E+00 )

 nodal point  x-rot      y-rot       z-rot       x-rot vel   y-rot vel   z-rot vel   x-rot acc   y-rot acc   z-rot acc
    22626  5.31264E-03 7.12481E-03-1.19945E-03 5.75873E-03 6.17342E-03-1.79946E-03 3.96273E-03 1.83984E-03-8.91726E-04



 n o d a l   p r i n t   o u t   f o r   t i m e  s t e p   14602                              ( at time 7.2997694E+00 )

 nodal point  x-disp     y-disp      z-disp      x-vel       y-vel       z-vel      x-accl      y-accl      z-accl      x-coor      y-coor      z-coor
    22626  5.00739E-02 4.75646E-02-2.19367E+01 9.93081E-02 1.11613E-01-2.07813E+00 1.00044E-01 7.83171E-02 7.28962E-01 4.80143E+01-2.19822E+01-1.45982E+01



 n o d a l   p r i n t   o u t   f o r   t i m e  s t e p   14602                              ( at time 7.2997694E+00 )

 nodal point  x-rot      y-rot       z-rot       x-rot vel   y-rot vel   z-rot vel   x-rot acc   y-rot acc   z-rot acc
    22626  5.91004E-03 7.75070E-03-1.38451E-03 6.19233E-03 6.32332E-03-1.89025E-03 4.33640E-03 1.49913E-03-9.07992E-04



 n o d a l   p r i n t   o u t   f o r   t i m e  s t e p   14802                              ( at time 7.3997594E+00 )

 nodal point  x-disp     y-disp      z-disp      x-vel       y-vel       z-vel      x-accl      y-accl      z-accl      x-coor      y-coor      z-coor
    22626  6.03706E-02 5.91011E-02-2.21407E+01 1.07047E-01 1.17538E-01-2.00291E+00 7.73964E-02 5.92541E-02 7.52275E-01 4.80246E+01-2.19707E+01-1.48022E+01



 n o d a l   p r i n t   o u t   f o r   t i m e  s t e p   14802                              ( at time 7.3997594E+00 )

 nodal point  x-rot      y-rot       z-rot       x-rot vel   y-rot vel   z-rot vel   x-rot acc   y-rot acc   z-rot acc
    22626  6.55172E-03 8.39040E-03-1.57972E-03 6.63679E-03 6.47642E-03-1.99518E-03 4.44504E-03 1.53119E-03-1.04944E-03



 n o d a l   p r i n t   o u t   f o r   t i m e  s t e p   15002                              ( at time 7.4997494E+00 )

 nodal point  x-disp     y-disp      z-disp      x-vel       y-vel       z-vel      x-accl      y-accl      z-accl      x-coor      y-coor      z-coor
    22626  7.14194E-02 7.10812E-02-2.23371E+01 1.13770E-01 1.21861E-01-1.92474E+00 6.72405E-02 4.32402E-02 7.81789E-01 4.80356E+01-2.19587E+01-1.49986E+01



 n o d a l   p r i n t   o u t   f o r   t i m e  s t e p   15002                              ( at time 7.4997494E+00 )

 nodal point  x-rot      y-rot       z-rot       x-rot vel   y-rot vel   z-rot vel   x-rot acc   y-rot acc   z-rot acc
    22626  7.23629E-03 9.04660E-03-1.78530E-03 7.05640E-03 6.65396E-03-2.10658E-03 4.19658E-03 1.77557E-03-1.11409E-03



 n o d a l   p r i n t   o u t   f o r   t i m e  s t e p   15202                              ( at time 7.5997394E+00 )

 nodal point  x-disp     y-disp      z-disp      x-vel       y-vel       z-vel      x-accl      y-accl      z-accl      x-coor      y-coor      z-coor
    22626  8.31547E-02 8.34549E-02-2.25257E+01 1.20459E-01 1.24471E-01-1.84647E+00 6.68900E-02 2.61027E-02 7.82760E-01 4.80473E+01-2.19463E+01-1.51872E+01



 n o d a l   p r i n t   o u t   f o r   t i m e  s t e p   15202                              ( at time 7.5997394E+00 )

 nodal point  x-rot      y-rot       z-rot       x-rot vel   y-rot vel   z-rot vel   x-rot acc   y-rot acc   z-rot acc
    22626  7.96301E-03 9.71733E-03-2.00058E-03 7.47976E-03 6.77943E-03-2.19157E-03 4.23394E-03 1.25485E-03-8.49978E-04



 n o d a l   p r i n t   o u t   f o r   t i m e  s t e p   15402                              ( at time 7.6997294E+00 )

 nodal point  x-disp     y-disp      z-disp      x-vel       y-vel       z-vel      x-accl      y-accl      z-accl      x-coor      y-coor      z-coor
    22626  9.55534E-02 9.58572E-02-2.27063E+01 1.27274E-01 1.24167E-01-1.76621E+00 6.81574E-02-3.04529E-03 8.02661E-01 4.80597E+01-2.19339E+01-1.53678E+01



 n o d a l   p r i n t   o u t   f o r   t i m e  s t e p   15402                              ( at time 7.6997294E+00 )

 nodal point  x-rot      y-rot       z-rot       x-rot vel   y-rot vel   z-rot vel   x-rot acc   y-rot acc   z-rot acc
    22626  8.73278E-03 1.04014E-02-2.22460E-03 7.89536E-03 6.92103E-03-2.29074E-03 4.15646E-03 1.41616E-03-9.91798E-04



 n o d a l   p r i n t   o u t   f o r   t i m e  s t e p   15602                              ( at time 7.7997194E+00 )

 nodal point  x-disp     y-disp      z-disp      x-vel       y-vel       z-vel      x-accl      y-accl      z-accl      x-coor      y-coor      z-coor
    22626  1.08551E-01 1.08340E-01-2.28789E+01 1.32986E-01 1.24508E-01-1.68842E+00 5.71331E-02 3.41465E-03 7.78049E-01 4.80727E+01-2.19214E+01-1.55404E+01



 n o d a l   p r i n t   o u t   f o r   t i m e  s t e p   15602                              ( at time 7.7997194E+00 )

 nodal point  x-rot      y-rot       z-rot       x-rot vel   y-rot vel   z-rot vel   x-rot acc   y-rot acc   z-rot acc
    22626  9.54210E-03 1.11004E-02-2.45907E-03 8.28937E-03 7.04605E-03-2.37535E-03 3.94045E-03 1.25029E-03-8.46145E-04



 n o d a l   p r i n t   o u t   f o r   t i m e  s t e p   15802                              ( at time 7.8997094E+00 )

 nodal point  x-disp     y-disp      z-disp      x-vel       y-vel       z-vel      x-accl      y-accl      z-accl      x-coor      y-coor      z-coor
    22626  1.22154E-01 1.20632E-01-2.30438E+01 1.39274E-01 1.20859E-01-1.60959E+00 6.28848E-02-3.65013E-02 7.88328E-01 4.80863E+01-2.19092E+01-1.57053E+01



 n o d a l   p r i n t   o u t   f o r   t i m e  s t e p   15802                              ( at time 7.8997094E+00 )

 nodal point  x-rot      y-rot       z-rot       x-rot vel   y-rot vel   z-rot vel   x-rot acc   y-rot acc   z-rot acc
    22626  1.03882E-02 1.18121E-02-2.70274E-03 8.64326E-03 7.18622E-03-2.47951E-03 3.53933E-03 1.40179E-03-1.04173E-03



 n o d a l   p r i n t   o u t   f o r   t i m e  s t e p   16002                              ( at time 7.9996994E+00 )

 nodal point  x-disp     y-disp      z-disp      x-vel       y-vel       z-vel      x-accl      y-accl      z-accl      x-coor      y-coor      z-coor
    22626  1.36428E-01 1.32551E-01-2.32009E+01 1.46075E-01 1.17146E-01-1.53262E+00 6.80187E-02-3.71255E-02 7.69786E-01 4.81006E+01-2.18972E+01-1.58624E+01



 n o d a l   p r i n t   o u t   f o r   t i m e  s t e p   16002                              ( at time 7.9996994E+00 )

 nodal point  x-rot      y-rot       z-rot       x-rot vel   y-rot vel   z-rot vel   x-rot acc   y-rot acc   z-rot acc
    22626  1.12702E-02 1.25360E-02-2.95530E-03 8.99683E-03 7.30986E-03-2.56146E-03 3.53602E-03 1.23660E-03-8.19589E-04



 n o d a l   p r i n t   o u t   f o r   t i m e  s t e p   16202                              ( at time 8.0996894E+00 )

 nodal point  x-disp     y-disp      z-disp      x-vel       y-vel       z-vel      x-accl      y-accl      z-accl      x-coor      y-coor      z-coor
    22626  1.51307E-01 1.44107E-01-2.33503E+01 1.51774E-01 1.13117E-01-1.45672E+00 5.69918E-02-4.02938E-02 7.59089E-01 4.81155E+01-2.18857E+01-1.60118E+01



 n o d a l   p r i n t   o u t   f o r   t i m e  s t e p   16202                              ( at time 8.0996894E+00 )

 nodal point  x-rot      y-rot       z-rot       x-rot vel   y-rot vel   z-rot vel   x-rot acc   y-rot acc   z-rot acc
    22626  1.21884E-02 1.32736E-02-3.21690E-03 9.34301E-03 7.43722E-03-2.65328E-03 3.46214E-03 1.27369E-03-9.18247E-04



 n o d a l   p r i n t   o u t   f o r   t i m e  s t e p   16402                              ( at time 8.1996794E+00 )

 nodal point  x-disp     y-disp      z-disp      x-vel       y-vel       z-vel      x-accl      y-accl      z-accl      x-coor      y-coor      z-coor
    22626  1.66893E-01 1.55296E-01-2.34921E+01 1.60289E-01 1.09761E-01-1.37911E+00 8.51571E-02-3.35659E-02 7.76158E-01 4.81311E+01-2.18745E+01-1.61536E+01



 n o d a l   p r i n t   o u t   f o r   t i m e  s t e p   16402                              ( at time 8.1996794E+00 )

 nodal point  x-rot      y-rot       z-rot       x-rot vel   y-rot vel   z-rot vel   x-rot acc   y-rot acc   z-rot acc
    22626  1.31387E-02 1.40229E-02-3.48688E-03 9.67099E-03 7.55613E-03-2.72434E-03 3.28010E-03 1.18926E-03-7.10722E-04



 n o d a l   p r i n t   o u t   f o r   t i m e  s t e p   16602                              ( at time 8.2996694E+00 )

 nodal point  x-disp     y-disp      z-disp      x-vel       y-vel       z-vel      x-accl      y-accl      z-accl      x-coor      y-coor      z-coor
    22626  1.83209E-01 1.66027E-01-2.36261E+01 1.67065E-01 1.05588E-01-1.29937E+00 6.77626E-02-4.17347E-02 7.97476E-01 4.81474E+01-2.18638E+01-1.62876E+01



 n o d a l   p r i n t   o u t   f o r   t i m e  s t e p   16602                              ( at time 8.2996694E+00 )

 nodal point  x-rot      y-rot       z-rot       x-rot vel   y-rot vel   z-rot vel   x-rot acc   y-rot acc   z-rot acc
    22626  1.41263E-02 1.47810E-02-3.76396E-03 1.00774E-02 7.63369E-03-2.81219E-03 4.06445E-03 7.75605E-04-8.78601E-04



 n o d a l   p r i n t   o u t   f o r   t i m e  s t e p   16802                              ( at time 8.3996594E+00 )

 nodal point  x-disp     y-disp      z-disp      x-vel       y-vel       z-vel      x-accl      y-accl      z-accl      x-coor      y-coor      z-coor
    22626  2.00243E-01 1.76391E-01-2.37520E+01 1.73544E-01 1.00225E-01-1.22002E+00 6.47996E-02-5.36370E-02 7.93590E-01 4.81644E+01-2.18534E+01-1.64135E+01



 n o d a l   p r i n t   o u t   f o r   t i m e  s t e p   16802                              ( at time 8.3996594E+00 )

 nodal point  x-rot      y-rot       z-rot       x-rot vel   y-rot vel   z-rot vel   x-rot acc   y-rot acc   z-rot acc
    22626  1.51518E-02 1.55505E-02-4.05136E-03 1.04363E-02 7.75184E-03-2.91010E-03 3.58902E-03 1.18164E-03-9.79140E-04



 n o d a l   p r i n t   o u t   f o r   t i m e  s t e p   17002                              ( at time 8.4996494E+00 )

 nodal point  x-disp     y-disp      z-disp      x-vel       y-vel       z-vel      x-accl      y-accl      z-accl      x-coor      y-coor      z-coor
    22626  2.17978E-01 1.86008E-01-2.38700E+01 1.80856E-01 9.25530E-02-1.14108E+00 7.31252E-02-7.67281E-02 7.89432E-01 4.81822E+01-2.18438E+01-1.65315E+01



 n o d a l   p r i n t   o u t   f o r   t i m e  s t e p   17002                              ( at time 8.4996494E+00 )

 nodal point  x-rot      y-rot       z-rot       x-rot vel   y-rot vel   z-rot vel   x-rot acc   y-rot acc   z-rot acc
    22626  1.62122E-02 1.63308E-02-4.34534E-03 1.07835E-02 7.85602E-03-2.97699E-03 3.47267E-03 1.04194E-03-6.69032E-04



 n o d a l   p r i n t   o u t   f o r   t i m e  s t e p   17202                              ( at time 8.5996394E+00 )

 nodal point  x-disp     y-disp      z-disp      x-vel       y-vel       z-vel      x-accl      y-accl      z-accl      x-coor      y-coor      z-coor
    22626  2.36415E-01 1.94819E-01-2.39801E+01 1.86531E-01 8.42357E-02-1.06140E+00 5.67613E-02-8.31813E-02 7.96928E-01 4.82006E+01-2.18350E+01-1.66416E+01



 n o d a l   p r i n t   o u t   f o r   t i m e  s t e p   17202                              ( at time 8.5996394E+00 )

 nodal point  x-rot      y-rot       z-rot       x-rot vel   y-rot vel   z-rot vel   x-rot acc   y-rot acc   z-rot acc
    22626  1.73072E-02 1.71225E-02-4.64512E-03 1.11204E-02 7.98652E-03-3.03990E-03 3.36958E-03 1.30509E-03-6.29167E-04



 n o d a l   p r i n t   o u t   f o r   t i m e  s t e p   17402                              ( at time 8.6996293E+00 )

 nodal point  x-disp     y-disp      z-disp      x-vel       y-vel       z-vel      x-accl      y-accl      z-accl      x-coor      y-coor      z-coor
    22626  2.55373E-01 2.02828E-01-2.40824E+01 1.92778E-01 7.43828E-02-9.84692E-01 6.24747E-02-9.85383E-02 7.67146E-01 4.82196E+01-2.18270E+01-1.67439E+01



 n o d a l   p r i n t   o u t   f o r   t i m e  s t e p   17402                              ( at time 8.6996293E+00 )

 nodal point  x-rot      y-rot       z-rot       x-rot vel   y-rot vel   z-rot vel   x-rot acc   y-rot acc   z-rot acc
    22626  1.84379E-02 1.79278E-02-4.95283E-03 1.14663E-02 8.11584E-03-3.10269E-03 3.45921E-03 1.29334E-03-6.27953E-04



 n o d a l   p r i n t   o u t   f o r   t i m e  s t e p   17602                              ( at time 8.7996193E+00 )

 nodal point  x-disp     y-disp      z-disp      x-vel       y-vel       z-vel      x-accl      y-accl      z-accl      x-coor      y-coor      z-coor
    22626  2.74922E-01 2.09727E-01-2.41768E+01 1.99777E-01 6.42608E-02-9.03439E-01 6.99960E-02-1.01230E-01 8.12617E-01 4.82391E+01-2.18201E+01-1.68383E+01



 n o d a l   p r i n t   o u t   f o r   t i m e  s t e p   17602                              ( at time 8.7996193E+00 )

 nodal point  x-rot      y-rot       z-rot       x-rot vel   y-rot vel   z-rot vel   x-rot acc   y-rot acc   z-rot acc
    22626  1.96011E-02 1.87445E-02-5.26630E-03 1.17999E-02 8.22775E-03-3.17092E-03 3.33681E-03 1.11925E-03-6.82288E-04



 n o d a l   p r i n t   o u t   f o r   t i m e  s t e p   17802                              ( at time 8.8996093E+00 )

 nodal point  x-disp     y-disp      z-disp      x-vel       y-vel       z-vel      x-accl      y-accl      z-accl      x-coor      y-coor      z-coor
    22626  2.95116E-01 2.15597E-01-2.42633E+01 2.05038E-01 5.40592E-02-8.25970E-01 5.26163E-02-1.02026E-01 7.74766E-01 4.82593E+01-2.18142E+01-1.69248E+01



 n o d a l   p r i n t   o u t   f o r   t i m e  s t e p   17802                              ( at time 8.8996093E+00 )

 nodal point  x-rot      y-rot       z-rot       x-rot vel   y-rot vel   z-rot vel   x-rot acc   y-rot acc   z-rot acc
    22626  2.07999E-02 1.95726E-02-5.58412E-03 1.21662E-02 8.34518E-03-3.20326E-03 3.66268E-03 1.17440E-03-3.23521E-04



 n o d a l   p r i n t   o u t   f o r   t i m e  s t e p   18002                              ( at time 8.9995993E+00 )

 nodal point  x-disp     y-disp      z-disp      x-vel       y-vel       z-vel      x-accl      y-accl      z-accl      x-coor      y-coor      z-coor
    22626  3.16027E-01 2.20541E-01-2.43417E+01 2.11714E-01 4.42827E-02-7.45180E-01 6.67647E-02-9.77754E-02 8.07979E-01 4.82802E+01-2.18092E+01-1.70032E+01



 n o d a l   p r i n t   o u t   f o r   t i m e  s t e p   18002                              ( at time 8.9995993E+00 )

 nodal point  x-rot      y-rot       z-rot       x-rot vel   y-rot vel   z-rot vel   x-rot acc   y-rot acc   z-rot acc
    22626  2.20329E-02 2.04147E-02-5.90633E-03 1.25168E-02 8.46119E-03-3.27335E-03 3.50623E-03 1.16020E-03-7.00896E-04



 n o d a l   p r i n t   o u t   f o r   t i m e  s t e p   18202                              ( at time 9.0995893E+00 )

 nodal point  x-disp     y-disp      z-disp      x-vel       y-vel       z-vel      x-accl      y-accl      z-accl      x-coor      y-coor      z-coor
    22626  3.37642E-01 2.24726E-01-2.44121E+01 2.20635E-01 3.86513E-02-6.65121E-01 8.92254E-02-5.63193E-02 8.00675E-01 4.83018E+01-2.18051E+01-1.70736E+01



 n o d a l   p r i n t   o u t   f o r   t i m e  s t e p   18202                              ( at time 9.0995893E+00 )

 nodal point  x-rot      y-rot       z-rot       x-rot vel   y-rot vel   z-rot vel   x-rot acc   y-rot acc   z-rot acc
    22626  2.33062E-02 2.12695E-02-6.23471E-03 1.29277E-02 8.61988E-03-3.30508E-03 4.10957E-03 1.58704E-03-3.17322E-04



 n o d a l   p r i n t   o u t   f o r   t i m e  s t e p   18402                              ( at time 9.1995793E+00 )

 nodal point  x-disp     y-disp      z-disp      x-vel       y-vel       z-vel      x-accl      y-accl      z-accl      x-coor      y-coor      z-coor
    22626  3.60240E-01 2.28175E-01-2.44746E+01 2.31448E-01 3.13658E-02-5.82283E-01 1.08132E-01-7.28628E-02 8.28461E-01 4.83244E+01-2.18016E+01-1.71361E+01



 n o d a l   p r i n t   o u t   f o r   t i m e  s t e p   18402                              ( at time 9.1995793E+00 )

 nodal point  x-rot      y-rot       z-rot       x-rot vel   y-rot vel   z-rot vel   x-rot acc   y-rot acc   z-rot acc
    22626  2.46121E-02 2.21361E-02-6.56431E-03 1.32372E-02 8.74729E-03-3.32641E-03 3.09563E-03 1.27429E-03-2.13334E-04



 n o d a l   p r i n t   o u t   f o r   t i m e  s t e p   18602                              ( at time 9.2995693E+00 )

 nodal point  x-disp     y-disp      z-disp      x-vel       y-vel       z-vel      x-accl      y-accl      z-accl      x-coor      y-coor      z-coor
    22626  3.83801E-01 2.31227E-01-2.45288E+01 2.40849E-01 3.07945E-02-5.04586E-01 9.40206E-02-5.71297E-03 7.77055E-01 4.83480E+01-2.17986E+01-1.71903E+01



 n o d a l   p r i n t   o u t   f o r   t i m e  s t e p   18602                              ( at time 9.2995693E+00 )

 nodal point  x-rot      y-rot       z-rot       x-rot vel   y-rot vel   z-rot vel   x-rot acc   y-rot acc   z-rot acc
    22626  2.59620E-02 2.30153E-02-6.90025E-03 1.37570E-02 8.82974E-03-3.38777E-03 5.19798E-03 8.24537E-04-6.13731E-04



 n o d a l   p r i n t   o u t   f o r   t i m e  s t e p   18802                              ( at time 9.3995593E+00 )

 nodal point  x-disp     y-disp      z-disp      x-vel       y-vel       z-vel      x-accl      y-accl      z-accl      x-coor      y-coor      z-coor
    22626  4.08475E-01 2.34114E-01-2.45752E+01 2.52513E-01 2.54962E-02-4.26208E-01 1.16656E-01-5.29887E-02 7.83853E-01 4.83727E+01-2.17957E+01-1.72367E+01



 n o d a l   p r i n t   o u t   f o r   t i m e  s t e p   18802                              ( at time 9.3995593E+00 )

 nodal point  x-rot      y-rot       z-rot       x-rot vel   y-rot vel   z-rot vel   x-rot acc   y-rot acc   z-rot acc
    22626  2.73498E-02 2.39094E-02-7.23994E-03 1.40087E-02 8.98718E-03-3.40951E-03 2.51772E-03 1.57459E-03-2.17346E-04



 n o d a l   p r i n t   o u t   f o r   t i m e  s t e p   19002                              ( at time 9.4995493E+00 )

 nodal point  x-disp     y-disp      z-disp      x-vel       y-vel       z-vel      x-accl      y-accl      z-accl      x-coor      y-coor      z-coor
    22626  4.34439E-01 2.36476E-01-2.46142E+01 2.65802E-01 2.63183E-02-3.50483E-01 1.32903E-01 8.22216E-03 7.57329E-01 4.83986E+01-2.17933E+01-1.72757E+01



 n o d a l   p r i n t   o u t   f o r   t i m e  s t e p   19002                              ( at time 9.4995493E+00 )

 nodal point  x-rot      y-rot       z-rot       x-rot vel   y-rot vel   z-rot vel   x-rot acc   y-rot acc   z-rot acc
    22626  2.87715E-02 2.48140E-02-7.58216E-03 1.44483E-02 9.12591E-03-3.47310E-03 4.39608E-03 1.38737E-03-6.35976E-04



 n o d a l   p r i n t   o u t   f o r   t i m e  s t e p   19202                              ( at time 9.5995393E+00 )

 nodal point  x-disp     y-disp      z-disp      x-vel       y-vel       z-vel      x-accl      y-accl      z-accl      x-coor      y-coor      z-coor
    22626  4.61457E-01 2.39346E-01-2.46459E+01 2.77413E-01 2.94550E-02-2.85169E-01 1.16120E-01 3.13698E-02 6.53199E-01 4.84256E+01-2.17904E+01-1.73074E+01



 n o d a l   p r i n t   o u t   f o r   t i m e  s t e p   19202                              ( at time 9.5995393E+00 )

 nodal point  x-rot      y-rot       z-rot       x-rot vel   y-rot vel   z-rot vel   x-rot acc   y-rot acc   z-rot acc
    22626  3.02392E-02 2.57359E-02-7.93198E-03 1.48181E-02 9.30475E-03-3.52650E-03 3.69863E-03 1.78863E-03-5.34086E-04



 n o d a l   p r i n t   o u t   f o r   t i m e  s t e p   19402                              ( at time 9.6995293E+00 )

 nodal point  x-disp     y-disp      z-disp      x-vel       y-vel       z-vel      x-accl      y-accl      z-accl      x-coor      y-coor      z-coor
    22626  4.89883E-01 2.42000E-01-2.46712E+01 2.90612E-01 2.35188E-02-2.19085E-01 1.32001E-01-5.93681E-02 6.60907E-01 4.84541E+01-2.17878E+01-1.73327E+01



 n o d a l   p r i n t   o u t   f o r   t i m e  s t e p   19402                              ( at time 9.6995293E+00 )

 nodal point  x-rot      y-rot       z-rot       x-rot vel   y-rot vel   z-rot vel   x-rot acc   y-rot acc   z-rot acc
    22626  3.17308E-02 2.66746E-02-8.28397E-03 1.50438E-02 9.45519E-03-3.55434E-03 2.25695E-03 1.50456E-03-2.78361E-04



 n o d a l   p r i n t   o u t   f o r   t i m e  s t e p   19602                              ( at time 9.7995193E+00 )

 nodal point  x-disp     y-disp      z-disp      x-vel       y-vel       z-vel      x-accl      y-accl      z-accl      x-coor      y-coor      z-coor
    22626  5.19328E-01 2.44956E-01-2.46901E+01 2.98503E-01 3.55342E-02-1.65225E-01 7.89156E-02 1.20167E-01 5.38661E-01 4.84835E+01-2.17848E+01-1.73516E+01



 n o d a l   p r i n t   o u t   f o r   t i m e  s t e p   19602                              ( at time 9.7995193E+00 )

 nodal point  x-rot      y-rot       z-rot       x-rot vel   y-rot vel   z-rot vel   x-rot acc   y-rot acc   z-rot acc
    22626  3.32638E-02 2.76259E-02-8.64238E-03 1.55443E-02 9.58818E-03-3.67330E-03 5.00603E-03 1.33003E-03-1.18972E-03



 n o d a l   p r i n t   o u t   f o r   t i m e  s t e p   19802                              ( at time 9.8995093E+00 )

 nodal point  x-disp     y-disp      z-disp      x-vel       y-vel       z-vel      x-accl      y-accl      z-accl      x-coor      y-coor      z-coor
    22626  5.49876E-01 2.48424E-01-2.47036E+01 3.10537E-01 3.16229E-02-1.06005E-01 1.20359E-01-3.91177E-02 5.92257E-01 4.85141E+01-2.17814E+01-1.73651E+01



 n o d a l   p r i n t   o u t   f o r   t i m e  s t e p   19802                              ( at time 9.8995093E+00 )

 nodal point  x-rot      y-rot       z-rot       x-rot vel   y-rot vel   z-rot vel   x-rot acc   y-rot acc   z-rot acc
    22626  3.48255E-02 2.85956E-02-9.00617E-03 1.56961E-02 9.75992E-03-3.64667E-03 1.51780E-03 1.71752E-03 2.66294E-04



 n o d a l   p r i n t   o u t   f o r   t i m e  s t e p   20003                              ( at time 9.9999992E+00 )

 nodal point  x-disp     y-disp      z-disp      x-vel       y-vel       z-vel      x-accl      y-accl      z-accl      x-coor      y-coor      z-coor
[...]
    22626  2.64988E-01 1.44244E-01-7.37663E-02 1.85704E-02 7.29396E-03-5.18922E-03 1.38780E-04-1.67057E-04 6.15712E-04



 n o d a l   p r i n t   o u t   f o r   t i m e  s t e p   45205                              ( at time 2.2599738E+01 )

 nodal point  x-disp     y-disp      z-disp      x-vel       y-vel       z-vel      x-accl      y-accl      z-accl      x-coor      y-coor      z-coor
    22626  4.89568E+00-1.65536E-01-1.91748E+01 3.28131E-01-8.32601E-02 4.87444E-01 3.48391E-03-1.21263E-02 3.67377E-03 5.28599E+01-2.21953E+01-1.18363E+01



 n o d a l   p r i n t   o u t   f o r   t i m e  s t e p   45205                              ( at time 2.2599738E+01 )

 nodal point  x-rot      y-rot       z-rot       x-rot vel   y-rot vel   z-rot vel   x-rot acc   y-rot acc   z-rot acc
    22626  2.66845E-01 1.44972E-01-7.42820E-02 1.85767E-02 7.27670E-03-5.12879E-03 6.36152E-05-1.72674E-04 6.04363E-04



 n o d a l   p r i n t   o u t   f o r   t i m e  s t e p   45405                              ( at time 2.2699728E+01 )

 nodal point  x-disp     y-disp      z-disp      x-vel       y-vel       z-vel      x-accl      y-accl      z-accl      x-coor      y-coor      z-coor
    22626  4.92851E+00-1.73883E-01-1.91260E+01 3.29049E-01-8.40510E-02 4.88031E-01 9.17983E-03-7.91011E-03 5.86992E-03 5.28927E+01-2.22037E+01-1.17875E+01



 n o d a l   p r i n t   o u t   f o r   t i m e  s t e p   45405                              ( at time 2.2699728E+01 )

 nodal point  x-rot      y-rot       z-rot       x-rot vel   y-rot vel   z-rot vel   x-rot acc   y-rot acc   z-rot acc
    22626  2.68704E-01 1.45699E-01-7.47922E-02 1.85981E-02 7.26013E-03-5.08131E-03 2.13408E-04-1.65687E-04 4.74887E-04



 n o d a l   p r i n t   o u t   f o r   t i m e  s t e p   45605                              ( at time 2.2799718E+01 )

 nodal point  x-disp     y-disp      z-disp      x-vel       y-vel       z-vel      x-accl      y-accl      z-accl      x-coor      y-coor      z-coor
    22626  4.96146E+00-1.82335E-01-1.90773E+01 3.30342E-01-8.47498E-02 4.87455E-01 1.29288E-02-6.98884E-03-5.76668E-03 5.29256E+01-2.22121E+01-1.17388E+01



 n o d a l   p r i n t   o u t   f o r   t i m e  s t e p   45605                              ( at time 2.2799718E+01 )

 nodal point  x-rot      y-rot       z-rot       x-rot vel   y-rot vel   z-rot vel   x-rot acc   y-rot acc   z-rot acc
    22626  2.70564E-01 1.46424E-01-7.52979E-02 1.86005E-02 7.24400E-03-5.05356E-03 2.44960E-05-1.61306E-04 2.77480E-04



 n o d a l   p r i n t   o u t   f o r   t i m e  s t e p   45805                              ( at time 2.2899708E+01 )

 nodal point  x-disp     y-disp      z-disp      x-vel       y-vel       z-vel      x-accl      y-accl      z-accl      x-coor      y-coor      z-coor
    22626  4.99454E+00-1.90847E-01-1.90284E+01 3.31314E-01-8.56555E-02 4.88319E-01 9.72349E-03-9.05733E-03 8.63946E-03 5.29587E+01-2.22206E+01-1.16899E+01



 n o d a l   p r i n t   o u t   f o r   t i m e  s t e p   45805                              ( at time 2.2899708E+01 )

 nodal point  x-rot      y-rot       z-rot       x-rot vel   y-rot vel   z-rot vel   x-rot acc   y-rot acc   z-rot acc
    22626  2.72425E-01 1.47149E-01-7.57996E-02 1.86280E-02 7.24519E-03-5.00582E-03 2.74622E-04 1.18477E-05 4.77486E-04



 n o d a l   p r i n t   o u t   f o r   t i m e  s t e p   46005                              ( at time 2.2999698E+01 )

 nodal point  x-disp     y-disp      z-disp      x-vel       y-vel       z-vel      x-accl      y-accl      z-accl      x-coor      y-coor      z-coor
    22626  5.02766E+00-1.99414E-01-1.89796E+01 3.31263E-01-8.60109E-02 4.88261E-01-5.16223E-04-3.55500E-03-5.72853E-04 5.29918E+01-2.22292E+01-1.16411E+01



 n o d a l   p r i n t   o u t   f o r   t i m e  s t e p   46005                              ( at time 2.2999698E+01 )

 nodal point  x-rot      y-rot       z-rot       x-rot vel   y-rot vel   z-rot vel   x-rot acc   y-rot acc   z-rot acc
    22626  2.74289E-01 1.47871E-01-7.62963E-02 1.86387E-02 7.19968E-03-4.94574E-03 1.07075E-04-4.55146E-04 6.00851E-04



 n o d a l   p r i n t   o u t   f o r   t i m e  s t e p   46205                              ( at time 2.3099688E+01 )

 nodal point  x-disp     y-disp      z-disp      x-vel       y-vel       z-vel      x-accl      y-accl      z-accl      x-coor      y-coor      z-coor
    22626  5.06084E+00-2.08026E-01-1.89309E+01 3.33015E-01-8.62662E-02 4.86741E-01 1.75236E-02-2.55330E-03-1.52098E-02 5.30250E+01-2.22378E+01-1.15924E+01



 n o d a l   p r i n t   o u t   f o r   t i m e  s t e p   46205                              ( at time 2.3099688E+01 )

 nodal point  x-rot      y-rot       z-rot       x-rot vel   y-rot vel   z-rot vel   x-rot acc   y-rot acc   z-rot acc
    22626  2.76153E-01 1.48591E-01-7.67893E-02 1.86596E-02 7.20312E-03-4.93255E-03 2.09552E-04 3.44022E-05 1.31950E-04



 n o d a l   p r i n t   o u t   f o r   t i m e  s t e p   46405                              ( at time 2.3199678E+01 )

 nodal point  x-disp     y-disp      z-disp      x-vel       y-vel       z-vel      x-accl      y-accl      z-accl      x-coor      y-coor      z-coor
    22626  5.09417E+00-2.16717E-01-1.88822E+01 3.33980E-01-8.73781E-02 4.86976E-01 9.65415E-03-1.11192E-02 2.35698E-03 5.30584E+01-2.22465E+01-1.15437E+01



 n o d a l   p r i n t   o u t   f o r   t i m e  s t e p   46405                              ( at time 2.3199678E+01 )

 nodal point  x-rot      y-rot       z-rot       x-rot vel   y-rot vel   z-rot vel   x-rot acc   y-rot acc   z-rot acc
    22626  2.78021E-01 1.49312E-01-7.72794E-02 1.86999E-02 7.19540E-03-4.88428E-03 4.02704E-04-7.71858E-05 4.82660E-04



 n o d a l   p r i n t   o u t   f o r   t i m e  s t e p   46605                              ( at time 2.3299668E+01 )

 nodal point  x-disp     y-disp      z-disp      x-vel       y-vel       z-vel      x-accl      y-accl      z-accl      x-coor      y-coor      z-coor
    22626  5.12758E+00-2.25390E-01-1.88335E+01 3.33414E-01-8.64861E-02 4.86216E-01-5.66158E-03 8.92082E-03-7.60580E-03 5.30918E+01-2.22552E+01-1.14950E+01



 n o d a l   p r i n t   o u t   f o r   t i m e  s t e p   46605                              ( at time 2.3299668E+01 )

 nodal point  x-rot      y-rot       z-rot       x-rot vel   y-rot vel   z-rot vel   x-rot acc   y-rot acc   z-rot acc
    22626  2.79891E-01 1.50029E-01-7.77656E-02 1.87043E-02 7.16344E-03-4.85018E-03 4.39260E-05-3.19637E-04 3.41065E-04



 n o d a l   p r i n t   o u t   f o r   t i m e  s t e p   46805                              ( at time 2.3399658E+01 )

 nodal point  x-disp     y-disp      z-disp      x-vel       y-vel       z-vel      x-accl      y-accl      z-accl      x-coor      y-coor      z-coor
    22626  5.16096E+00-2.34042E-01-1.87850E+01 3.34448E-01-8.57747E-02 4.85012E-01 1.03391E-02 7.11439E-03-1.20406E-02 5.31251E+01-2.22638E+01-1.14465E+01



 n o d a l   p r i n t   o u t   f o r   t i m e  s t e p   46805                              ( at time 2.3399658E+01 )

 nodal point  x-rot      y-rot       z-rot       x-rot vel   y-rot vel   z-rot vel   x-rot acc   y-rot acc   z-rot acc
    22626  2.81762E-01 1.50745E-01-7.82479E-02 1.87388E-02 7.14591E-03-4.81493E-03 3.44956E-04-1.75263E-04 3.52594E-04



 n o d a l   p r i n t   o u t   f o r   t i m e  s t e p   47005                              ( at time 2.3499648E+01 )

 nodal point  x-disp     y-disp      z-disp      x-vel       y-vel       z-vel      x-accl      y-accl      z-accl      x-coor      y-coor      z-coor
    22626  5.19449E+00-2.42676E-01-1.87365E+01 3.35880E-01-8.68712E-02 4.84219E-01 1.43219E-02-1.09662E-02-7.92397E-03 5.31587E+01-2.22725E+01-1.13980E+01



 n o d a l   p r i n t   o u t   f o r   t i m e  s t e p   47005                              ( at time 2.3499648E+01 )

 nodal point  x-rot      y-rot       z-rot       x-rot vel   y-rot vel   z-rot vel   x-rot acc   y-rot acc   z-rot acc
    22626  2.83638E-01 1.51460E-01-7.87286E-02 1.87654E-02 7.14766E-03-4.79359E-03 2.66215E-04 1.74127E-05 2.13334E-04



 n o d a l   p r i n t   o u t   f o r   t i m e  s t e p   47205                              ( at time 2.3599638E+01 )

 nodal point  x-disp     y-disp      z-disp      x-vel       y-vel       z-vel      x-accl      y-accl      z-accl      x-coor      y-coor      z-coor
    22626  5.22802E+00-2.51315E-01-1.86882E+01 3.35194E-01-8.57315E-02 4.82600E-01-6.86006E-03 1.13989E-02-1.62002E-02 5.31922E+01-2.22811E+01-1.13497E+01



 n o d a l   p r i n t   o u t   f o r   t i m e  s t e p   47205                              ( at time 2.3599638E+01 )

 nodal point  x-rot      y-rot       z-rot       x-rot vel   y-rot vel   z-rot vel   x-rot acc   y-rot acc   z-rot acc
    22626  2.85516E-01 1.52173E-01-7.92072E-02 1.87985E-02 7.11776E-03-4.76642E-03 3.31196E-04-2.98997E-04 2.71809E-04



 n o d a l   p r i n t   o u t   f o r   t i m e  s t e p   47405                              ( at time 2.3699628E+01 )

 nodal point  x-disp     y-disp      z-disp      x-vel       y-vel       z-vel      x-accl      y-accl      z-accl      x-coor      y-coor      z-coor
    22626  5.26153E+00-2.59858E-01-1.86400E+01 3.35145E-01-8.52639E-02 4.81702E-01-4.89697E-04 4.67597E-03-8.97758E-03 5.32257E+01-2.22896E+01-1.13015E+01



 n o d a l   p r i n t   o u t   f o r   t i m e  s t e p   47405                              ( at time 2.3699628E+01 )

 nodal point  x-rot      y-rot       z-rot       x-rot vel   y-rot vel   z-rot vel   x-rot acc   y-rot acc   z-rot acc
    22626  2.87397E-01 1.52883E-01-7.96821E-02 1.88275E-02 7.09188E-03-4.74534E-03 2.89612E-04-2.58820E-04 2.10736E-04



 n o d a l   p r i n t   o u t   f o r   t i m e  s t e p   47605                              ( at time 2.3799618E+01 )

 nodal point  x-disp     y-disp      z-disp      x-vel       y-vel       z-vel      x-accl      y-accl      z-accl      x-coor      y-coor      z-coor
    22626  5.29515E+00-2.68363E-01-1.85919E+01 3.36522E-01-8.50790E-02 4.79530E-01 1.37663E-02 1.84929E-03-2.17226E-02 5.32593E+01-2.22982E+01-1.12534E+01



 n o d a l   p r i n t   o u t   f o r   t i m e  s t e p   47605                              ( at time 2.3799618E+01 )

 nodal point  x-rot      y-rot       z-rot       x-rot vel   y-rot vel   z-rot vel   x-rot acc   y-rot acc   z-rot acc
    22626  2.89282E-01 1.53592E-01-8.01565E-02 1.88707E-02 7.08181E-03-4.74955E-03 4.32312E-04-1.00734E-04-4.20865E-05



 n o d a l   p r i n t   o u t   f o r   t i m e  s t e p   47805                              ( at time 2.3899608E+01 )

 nodal point  x-disp     y-disp      z-disp      x-vel       y-vel       z-vel      x-accl      y-accl      z-accl      x-coor      y-coor      z-coor
    22626  5.32876E+00-2.76764E-01-1.85440E+01 3.35474E-01-8.30608E-02 4.78702E-01-1.04771E-02 2.01834E-02-8.28074E-03 5.32929E+01-2.23066E+01-1.12055E+01



 n o d a l   p r i n t   o u t   f o r   t i m e  s t e p   47805                              ( at time 2.3899608E+01 )

 nodal point  x-rot      y-rot       z-rot       x-rot vel   y-rot vel   z-rot vel   x-rot acc   y-rot acc   z-rot acc
    22626  2.91170E-01 1.54300E-01-8.06295E-02 1.88913E-02 7.05934E-03-4.71325E-03 2.05972E-04-2.24697E-04 3.63049E-04



 n o d a l   p r i n t   o u t   f o r   t i m e  s t e p   48005                              ( at time 2.3999598E+01 )

 nodal point  x-disp     y-disp      z-disp      x-vel       y-vel       z-vel      x-accl      y-accl      z-accl      x-coor      y-coor      z-coor
    22626  5.36231E+00-2.85017E-01-1.84963E+01 3.35831E-01-8.20395E-02 4.75987E-01 3.57608E-03 1.02147E-02-2.71476E-02 5.33265E+01-2.23148E+01-1.11578E+01



 n o d a l   p r i n t   o u t   f o r   t i m e  s t e p   48005                              ( at time 2.3999598E+01 )

 nodal point  x-rot      y-rot       z-rot       x-rot vel   y-rot vel   z-rot vel   x-rot acc   y-rot acc   z-rot acc
    22626  2.93061E-01 1.55004E-01-8.10997E-02 1.89346E-02 7.03354E-03-4.69897E-03 4.32591E-04-2.58024E-04 1.42811E-04



 n o d a l   p r i n t   o u t   f o r   t i m e  s t e p   48205                              ( at time 2.4099588E+01 )

 nodal point  x-disp     y-disp      z-disp      x-vel       y-vel       z-vel      x-accl      y-accl      z-accl      x-coor      y-coor      z-coor
    22626  5.39596E+00-2.93156E-01-1.84487E+01 3.36642E-01-8.09899E-02 4.75188E-01 8.10161E-03 1.04971E-02-7.99968E-03 5.33601E+01-2.23229E+01-1.11102E+01



 n o d a l   p r i n t   o u t   f o r   t i m e  s t e p   48205                              ( at time 2.4099588E+01 )

 nodal point  x-rot      y-rot       z-rot       x-rot vel   y-rot vel   z-rot vel   x-rot acc   y-rot acc   z-rot acc
    22626  2.94956E-01 1.55707E-01-8.15699E-02 1.89706E-02 7.03280E-03-4.70404E-03 3.60306E-04-7.43263E-06-5.06919E-05



 n o d a l   p r i n t   o u t   f o r   t i m e  s t e p   48405                              ( at time 2.4199578E+01 )

 nodal point  x-disp     y-disp      z-disp      x-vel       y-vel       z-vel      x-accl      y-accl      z-accl      x-coor      y-coor      z-coor
    22626  5.42961E+00-3.01117E-01-1.84013E+01 3.36112E-01-7.85846E-02 4.73054E-01-5.29348E-03 2.40556E-02-2.13384E-02 5.33938E+01-2.23309E+01-1.10628E+01



 n o d a l   p r i n t   o u t   f o r   t i m e  s t e p   48405                              ( at time 2.4199578E+01 )

 nodal point  x-rot      y-rot       z-rot       x-rot vel   y-rot vel   z-rot vel   x-rot acc   y-rot acc   z-rot acc
    22626  2.96855E-01 1.56409E-01-8.20399E-02 1.90045E-02 7.00164E-03-4.68689E-03 3.39169E-04-3.11590E-04 1.71503E-04



 n o d a l   p r i n t   o u t   f o r   t i m e  s t e p   48605                              ( at time 2.4299568E+01 )

 nodal point  x-disp     y-disp      z-disp      x-vel       y-vel       z-vel      x-accl      y-accl      z-accl      x-coor      y-coor      z-coor
    22626  5.46318E+00-3.08895E-01-1.83542E+01 3.35864E-01-7.64494E-02 4.70933E-01-2.48574E-03 2.13536E-02-2.12146E-02 5.34274E+01-2.23387E+01-1.10157E+01



 n o d a l   p r i n t   o u t   f o r   t i m e  s t e p   48605                              ( at time 2.4299568E+01 )

 nodal point  x-rot      y-rot       z-rot       x-rot vel   y-rot vel   z-rot vel   x-rot acc   y-rot acc   z-rot acc
    22626  2.98757E-01 1.57107E-01-8.25080E-02 1.90516E-02 6.98386E-03-4.68075E-03 4.71143E-04-1.77848E-04 6.14357E-05



 n o d a l   p r i n t   o u t   f o r   t i m e  s t e p   48805                              ( at time 2.4399558E+01 )

 nodal point  x-disp     y-disp      z-disp      x-vel       y-vel       z-vel      x-accl      y-accl      z-accl      x-coor      y-coor      z-coor
    22626  5.49677E+00-3.16453E-01-1.83071E+01 3.36142E-01-7.48609E-02 4.68610E-01 2.77902E-03 1.58871E-02-2.32253E-02 5.34610E+01-2.23462E+01-1.09686E+01



 n o d a l   p r i n t   o u t   f o r   t i m e  s t e p   48805                              ( at time 2.4399558E+01 )

 nodal point  x-rot      y-rot       z-rot       x-rot vel   y-rot vel   z-rot vel   x-rot acc   y-rot acc   z-rot acc
    22626  3.00663E-01 1.57805E-01-8.29766E-02 1.90896E-02 6.96565E-03-4.68395E-03 3.80312E-04-1.82146E-04-3.20591E-05



 n o d a l   p r i n t   o u t   f o r   t i m e  s t e p   49006                              ( at time 2.4500048E+01 )

 nodal point  x-disp     y-disp      z-disp      x-vel       y-vel       z-vel      x-accl      y-accl      z-accl      x-coor      y-coor      z-coor
    22626  5.53053E+00-3.23833E-01-1.82601E+01 3.35475E-01-7.23385E-02 4.66735E-01-6.63673E-03 2.51008E-02-1.86616E-02 5.34947E+01-2.23536E+01-1.09216E+01



 n o d a l   p r i n t   o u t   f o r   t i m e  s t e p   49006                              ( at time 2.4500048E+01 )

 nodal point  x-rot      y-rot       z-rot       x-rot vel   y-rot vel   z-rot vel   x-rot acc   y-rot acc   z-rot acc
    22626  3.02583E-01 1.58503E-01-8.34478E-02 1.91198E-02 6.93805E-03-4.68169E-03 3.00448E-04-2.74627E-04 2.24933E-05



 n o d a l   p r i n t   o u t   f o r   t i m e  s t e p   49206                              ( at time 2.4600038E+01 )

 nodal point  x-disp     y-disp      z-disp      x-vel       y-vel       z-vel      x-accl      y-accl      z-accl      x-coor      y-coor      z-coor
    22626  5.56406E+00-3.30898E-01-1.82136E+01 3.35241E-01-6.95721E-02 4.64715E-01-2.33374E-03 2.76665E-02-2.02031E-02 5.35282E+01-2.23607E+01-1.08751E+01



 n o d a l   p r i n t   o u t   f o r   t i m e  s t e p   49206                              ( at time 2.4600038E+01 )

 nodal point  x-rot      y-rot       z-rot       x-rot vel   y-rot vel   z-rot vel   x-rot acc   y-rot acc   z-rot acc
    22626  3.04497E-01 1.59197E-01-8.39160E-02 1.91637E-02 6.93251E-03-4.68288E-03 4.38302E-04-5.53862E-05-1.18149E-05



 n o d a l   p r i n t   o u t   f o r   t i m e  s t e p   49406                              ( at time 2.4700028E+01 )

 nodal point  x-disp     y-disp      z-disp      x-vel       y-vel       z-vel      x-accl      y-accl      z-accl      x-coor      y-coor      z-coor
    22626  5.59759E+00-3.37769E-01-1.81672E+01 3.35660E-01-6.76027E-02 4.62754E-01 4.19097E-03 1.96966E-02-1.96121E-02 5.35618E+01-2.23676E+01-1.08287E+01



 n o d a l   p r i n t   o u t   f o r   t i m e  s t e p   49406                              ( at time 2.4700028E+01 )

 nodal point  x-rot      y-rot       z-rot       x-rot vel   y-rot vel   z-rot vel   x-rot acc   y-rot acc   z-rot acc
    22626  3.06416E-01 1.59889E-01-8.43848E-02 1.92040E-02 6.91131E-03-4.68989E-03 4.03531E-04-2.12044E-04-7.01177E-05



 n o d a l   p r i n t   o u t   f o r   t i m e  s t e p   49606                              ( at time 2.4800018E+01 )

 nodal point  x-disp     y-disp      z-disp      x-vel       y-vel       z-vel      x-accl      y-accl      z-accl      x-coor      y-coor      z-coor
    22626  5.63110E+00-3.44397E-01-1.81211E+01 3.34516E-01-6.54863E-02 4.61213E-01-1.14425E-02 2.11661E-02-1.54137E-02 5.35953E+01-2.23742E+01-1.07826E+01



 n o d a l   p r i n t   o u t   f o r   t i m e  s t e p   49606                              ( at time 2.4800018E+01 )

 nodal point  x-rot      y-rot       z-rot       x-rot vel   y-rot vel   z-rot vel   x-rot acc   y-rot acc   z-rot acc
    22626  3.08337E-01 1.60579E-01-8.48544E-02 1.92198E-02 6.89987E-03-4.70025E-03 1.57557E-04-1.14423E-04-1.03605E-04



 n o d a l   p r i n t   o u t   f o r   t i m e  s t e p   49806                              ( at time 2.4900008E+01 )

 nodal point  x-disp     y-disp      z-disp      x-vel       y-vel       z-vel      x-accl      y-accl      z-accl      x-coor      y-coor      z-coor
    22626  5.66454E+00-3.50905E-01-1.80751E+01 3.34079E-01-6.42994E-02 4.58802E-01-4.37696E-03 1.18701E-02-2.41101E-02 5.36287E+01-2.23807E+01-1.07366E+01



 n o d a l   p r i n t   o u t   f o r   t i m e  s t e p   49806                              ( at time 2.4900008E+01 )

 nodal point  x-rot      y-rot       z-rot       x-rot vel   y-rot vel   z-rot vel   x-rot acc   y-rot acc   z-rot acc
    22626  3.10260E-01 1.61268E-01-8.53241E-02 1.92589E-02 6.87928E-03-4.70774E-03 3.91553E-04-2.05887E-04-7.49798E-05



 n o d a l   p r i n t   o u t   f o r   t i m e  s t e p   50006                              ( at time 2.4999998E+01 )

 nodal point  x-disp     y-disp      z-disp      x-vel       y-vel       z-vel      x-accl      y-accl      z-accl      x-coor      y-coor      z-coor
    22626  5.69794E+00-3.57241E-01-1.80292E+01 3.33631E-01-6.27237E-02 4.57879E-01-4.47821E-03 1.57582E-02-9.23420E-03 5.36621E+01-2.23870E+01-1.06907E+01



 n o d a l   p r i n t   o u t   f o r   t i m e  s t e p   50006                              ( at time 2.4999998E+01 )

 nodal point  x-rot      y-rot       z-rot       x-rot vel   y-rot vel   z-rot vel   x-rot acc   y-rot acc   z-rot acc
    22626  3.12187E-01 1.61955E-01-8.57954E-02 1.92746E-02 6.87704E-03-4.72333E-03 1.56775E-04-2.23584E-05-1.55852E-04
