 LSTC 50th% Full_FE H-III Dummy (Beta Version, February 17, 2019)        
                    ls-dyna smp s R16 R16.0_619_d222963 date 03/18/2025

{BEGIN LEGEND}
 Entity #        Title
    22626                                                                                     
{END LEGEND}




 n o d a l   p r i n t   o u t   f o r   t i m e  s t e p       1                              ( at time 0.0000000E+00 )

 nodal point  x-disp     y-disp      z-disp      x-vel       y-vel       z-vel      x-accl      y-accl      z-accl      x-coor      y-coor      z-coor
    22626  0.00000E+00 0.00000E+00 0.00000E+00 0.00000E+00 0.00000E+00 0.00000E+00 0.00000E+00 0.00000E+00 0.00000E+00 4.65938E+00-2.81908E+01-4.49817E+01



 n o d a l   p r i n t   o u t   f o r   t i m e  s t e p       1                              ( at time 0.0000000E+00 )

 nodal point  x-rot      y-rot       z-rot       x-rot vel   y-rot vel   z-rot vel   x-rot acc   y-rot acc   z-rot acc
    22626  0.00000E+00 0.00000E+00 0.00000E+00 0.00000E+00 0.00000E+00 0.00000E+00 0.00000E+00 0.00000E+00 0.00000E+00



 n o d a l   p r i n t   o u t   f o r   t i m e  s t e p     201                              ( at time 9.9989993E-02 )

 nodal point  x-disp     y-disp      z-disp      x-vel       y-vel       z-vel      x-accl      y-accl      z-accl      x-coor      y-coor      z-coor
    22626  2.73648E-07 1.73569E-06-5.34266E-05 4.19772E-05 2.55506E-04-1.46808E-03 4.19814E-04 2.55531E-03-1.46822E-02 4.65938E+00-2.81908E+01-4.49818E+01



 n o d a l   p r i n t   o u t   f o r   t i m e  s t e p     201                              ( at time 9.9989993E-02 )

 nodal point  x-rot      y-rot       z-rot       x-rot vel   y-rot vel   z-rot vel   x-rot acc   y-rot acc   z-rot acc
    22626 -5.99189E-08-8.39269E-09-5.46670E-09-5.87045E-06-9.70428E-07-9.27727E-07-5.87103E-05-9.70525E-06-9.27820E-06



 n o d a l   p r i n t   o u t   f o r   t i m e  s t e p     401                              ( at time 1.9997999E-01 )

 nodal point  x-disp     y-disp      z-disp      x-vel       y-vel       z-vel      x-accl      y-accl      z-accl      x-coor      y-coor      z-coor
    22626  1.73036E-05 3.61701E-04-6.67521E-04 2.98690E-05 7.80939E-03-1.21509E-02-1.21094E-04 7.55464E-02-1.06839E-01 4.65939E+00-2.81905E+01-4.49824E+01



 n o d a l   p r i n t   o u t   f o r   t i m e  s t e p     401                              ( at time 1.9997999E-01 )

 nodal point  x-rot      y-rot       z-rot       x-rot vel   y-rot vel   z-rot vel   x-rot acc   y-rot acc   z-rot acc
    22626 -2.82019E-06-3.37171E-07-3.34592E-07-3.94184E-05-1.74548E-06-2.26904E-06-3.35513E-04-7.75126E-06-1.34145E-05



 n o d a l   p r i n t   o u t   f o r   t i m e  s t e p     601                              ( at time 2.9996998E-01 )

 nodal point  x-disp     y-disp      z-disp      x-vel       y-vel       z-vel      x-accl      y-accl      z-accl      x-coor      y-coor      z-coor
    22626  2.74040E-05 1.23958E-03-2.33773E-03 4.19982E-04 8.43754E-03-1.92402E-02 3.90152E-03 6.28209E-03-7.09001E-02 4.65940E+00-2.81896E+01-4.49841E+01



 n o d a l   p r i n t   o u t   f o r   t i m e  s t e p     601                              ( at time 2.9996998E-01 )

 nodal point  x-rot      y-rot       z-rot       x-rot vel   y-rot vel   z-rot vel   x-rot acc   y-rot acc   z-rot acc
    22626 -5.39390E-06-3.90711E-07-6.42338E-07-1.56270E-05-5.40966E-06-6.73071E-06 2.37938E-04-3.66455E-05-4.46211E-05



 n o d a l   p r i n t   o u t   f o r   t i m e  s t e p     801                              ( at time 3.9995997E-01 )

 nodal point  x-disp     y-disp      z-disp      x-vel       y-vel       z-vel      x-accl      y-accl      z-accl      x-coor      y-coor      z-coor
    22626  2.60827E-05 2.16095E-03-4.28053E-03-3.13752E-04 1.07361E-02-2.10675E-02-7.33807E-03 2.29875E-02-1.82741E-02 4.65940E+00-2.81887E+01-4.49860E+01



 n o d a l   p r i n t   o u t   f o r   t i m e  s t e p     801                              ( at time 3.9995997E-01 )

 nodal point  x-rot      y-rot       z-rot       x-rot vel   y-rot vel   z-rot vel   x-rot acc   y-rot acc   z-rot acc
    22626 -7.63613E-06-1.25221E-06-9.83450E-07-4.49475E-05-6.26043E-06-1.46207E-06-2.93235E-04-8.50862E-06 5.26916E-05



 n o d a l   p r i n t   o u t   f o r   t i m e  s t e p    1001                              ( at time 4.9994997E-01 )

 nodal point  x-disp     y-disp      z-disp      x-vel       y-vel       z-vel      x-accl      y-accl      z-accl      x-coor      y-coor      z-coor
    22626  4.05599E-06 3.43383E-03-6.73886E-03-2.33709E-04 1.41255E-02-2.86465E-02 8.00511E-04 3.38974E-02-7.57982E-02 4.65938E+00-2.81874E+01-4.49885E+01



 n o d a l   p r i n t   o u t   f o r   t i m e  s t e p    1001                              ( at time 4.9994997E-01 )

 nodal point  x-rot      y-rot       z-rot       x-rot vel   y-rot vel   z-rot vel   x-rot acc   y-rot acc   z-rot acc
    22626 -1.35991E-05-1.17121E-06-9.55328E-07-8.45877E-05 3.16659E-06 4.03894E-06-3.96441E-04 9.42797E-05 5.50156E-05



 n o d a l   p r i n t   o u t   f o r   t i m e  s t e p    1201                              ( at time 5.9993996E-01 )

 nodal point  x-disp     y-disp      z-disp      x-vel       y-vel       z-vel      x-accl      y-accl      z-accl      x-coor      y-coor      z-coor
    22626 -1.05164E-06 5.00254E-03-9.70056E-03 3.96464E-05 1.65875E-02-3.08567E-02 2.73383E-03 2.46229E-02-2.21038E-02 4.65937E+00-2.81858E+01-4.49914E+01



 n o d a l   p r i n t   o u t   f o r   t i m e  s t e p    1201                              ( at time 5.9993996E-01 )

 nodal point  x-rot      y-rot       z-rot       x-rot vel   y-rot vel   z-rot vel   x-rot acc   y-rot acc   z-rot acc
    22626 -2.04308E-05-8.95152E-07-9.71422E-07-6.05139E-05 3.70171E-06-2.29192E-06 2.40762E-04 5.35175E-06-6.33149E-05



 n o d a l   p r i n t   o u t   f o r   t i m e  s t e p    1401                              ( at time 6.9992995E-01 )

 nodal point  x-disp     y-disp      z-disp      x-vel       y-vel       z-vel      x-accl      y-accl      z-accl      x-coor      y-coor      z-coor
    22626 -4.99873E-05 6.82760E-03-1.31368E-02-4.67200E-04 1.95084E-02-3.87041E-02-5.06897E-03 2.92121E-02-7.84819E-02 4.65933E+00-2.81840E+01-4.49949E+01



 n o d a l   p r i n t   o u t   f o r   t i m e  s t e p    1401                              ( at time 6.9992995E-01 )

 nodal point  x-rot      y-rot       z-rot       x-rot vel   y-rot vel   z-rot vel   x-rot acc   y-rot acc   z-rot acc
    22626 -2.65288E-05-9.43250E-07-6.87843E-07-7.25763E-05-1.45573E-07 3.30975E-06-1.20637E-04-3.84767E-05 5.60223E-05



 n o d a l   p r i n t   o u t   f o r   t i m e  s t e p    1601                              ( at time 7.9991994E-01 )

 nodal point  x-disp     y-disp      z-disp      x-vel       y-vel       z-vel      x-accl      y-accl      z-accl      x-coor      y-coor      z-coor
    22626 -7.81423E-05 8.94465E-03-1.73950E-02-4.92550E-04 2.19317E-02-4.46696E-02-2.53518E-04 2.42348E-02-5.96607E-02 4.65930E+00-2.81819E+01-4.49991E+01



 n o d a l   p r i n t   o u t   f o r   t i m e  s t e p    1601                              ( at time 7.9991994E-01 )

 nodal point  x-rot      y-rot       z-rot       x-rot vel   y-rot vel   z-rot vel   x-rot acc   y-rot acc   z-rot acc
    22626 -3.49466E-05-9.58514E-07-6.39662E-07-9.48353E-05-5.35145E-06 6.93333E-07-2.22611E-04-5.20640E-05-2.61668E-05



 n o d a l   p r i n t   o u t   f o r   t i m e  s t e p    1801                              ( at time 8.9990994E-01 )

 nodal point  x-disp     y-disp      z-disp      x-vel       y-vel       z-vel      x-accl      y-accl      z-accl      x-coor      y-coor      z-coor
    22626 -1.13843E-04 1.11824E-02-2.18636E-02-2.71832E-04 2.36630E-02-4.48684E-02 2.20740E-03 1.73152E-02-1.98842E-03 4.65926E+00-2.81796E+01-4.50036E+01



 n o d a l   p r i n t   o u t   f o r   t i m e  s t e p    1801                              ( at time 8.9990994E-01 )

 nodal point  x-rot      y-rot       z-rot       x-rot vel   y-rot vel   z-rot vel   x-rot acc   y-rot acc   z-rot acc
    22626 -4.37525E-05-1.12533E-06-7.71274E-07-8.74023E-05 6.89992E-07-2.54705E-06 7.43370E-05 6.04205E-05-3.24071E-05



 n o d a l   p r i n t   o u t   f o r   t i m e  s t e p    2001                              ( at time 9.9989993E-01 )

 nodal point  x-disp     y-disp      z-disp      x-vel       y-vel       z-vel      x-accl      y-accl      z-accl      x-coor      y-coor      z-coor
    22626 -1.45289E-04 1.36694E-02-2.65101E-02 2.60493E-05 2.58603E-02-4.88635E-02 2.97911E-03 2.19748E-02-3.99548E-02 4.65923E+00-2.81772E+01-4.50082E+01



 n o d a l   p r i n t   o u t   f o r   t i m e  s t e p    2001                              ( at time 9.9989993E-01 )

 nodal point  x-rot      y-rot       z-rot       x-rot vel   y-rot vel   z-rot vel   x-rot acc   y-rot acc   z-rot acc
    22626 -5.34408E-05-1.23893E-06-9.42783E-07-1.13999E-04-8.40909E-07-6.01840E-06-2.65997E-04-1.53105E-05-3.47169E-05



 n o d a l   p r i n t   o u t   f o r   t i m e  s t e p    2201                              ( at time 1.0998899E+00 )

 nodal point  x-disp     y-disp      z-disp      x-vel       y-vel       z-vel      x-accl      y-accl      z-accl      x-coor      y-coor      z-coor
    22626 -1.46417E-04 1.63369E-02-3.16945E-02-2.69478E-04 2.80769E-02-5.44277E-02-2.95557E-03 2.21687E-02-5.56478E-02 4.65923E+00-2.81745E+01-4.50134E+01



 n o d a l   p r i n t   o u t   f o r   t i m e  s t e p    2201                              ( at time 1.0998899E+00 )

 nodal point  x-rot      y-rot       z-rot       x-rot vel   y-rot vel   z-rot vel   x-rot acc   y-rot acc   z-rot acc
    22626 -6.54120E-05-1.60145E-06-1.64066E-06-1.13083E-04-1.09064E-05-6.78739E-06 9.16171E-06-1.00665E-04-7.69072E-06



 n o d a l   p r i n t   o u t   f o r   t i m e  s t e p    2401                              ( at time 1.1998799E+00 )

 nodal point  x-disp     y-disp      z-disp      x-vel       y-vel       z-vel      x-accl      y-accl      z-accl      x-coor      y-coor      z-coor
    22626 -1.66165E-04 1.91844E-02-3.73758E-02-6.91355E-05 2.90478E-02-5.88626E-02 2.00363E-03 9.70997E-03-4.43535E-02 4.65921E+00-2.81716E+01-4.50191E+01



 n o d a l   p r i n t   o u t   f o r   t i m e  s t e p    2401                              ( at time 1.1998799E+00 )

 nodal point  x-rot      y-rot       z-rot       x-rot vel   y-rot vel   z-rot vel   x-rot acc   y-rot acc   z-rot acc
    22626 -7.66094E-05-2.64710E-06-2.45045E-06-1.16537E-04-1.27515E-05-1.00103E-05-3.45453E-05-1.84527E-05-3.22319E-05



 n o d a l   p r i n t   o u t   f o r   t i m e  s t e p    2601                              ( at time 1.2998699E+00 )

 nodal point  x-disp     y-disp      z-disp      x-vel       y-vel       z-vel      x-accl      y-accl      z-accl      x-coor      y-coor      z-coor
    22626 -1.79045E-04 2.21950E-02-4.33774E-02 4.89364E-05 3.10583E-02-6.09121E-02 1.18084E-03 2.01068E-02-2.04966E-02 4.65920E+00-2.81686E+01-4.50251E+01



 n o d a l   p r i n t   o u t   f o r   t i m e  s t e p    2601                              ( at time 1.2998699E+00 )

 nodal point  x-rot      y-rot       z-rot       x-rot vel   y-rot vel   z-rot vel   x-rot acc   y-rot acc   z-rot acc
    22626 -8.93577E-05-3.94175E-06-3.53331E-06-1.49799E-04-9.27108E-06-1.11066E-05-3.32652E-04 3.48076E-05-1.09641E-05



 n o d a l   p r i n t   o u t   f o r   t i m e  s t e p    2801                              ( at time 1.3998599E+00 )

 nodal point  x-disp     y-disp      z-disp      x-vel       y-vel       z-vel      x-accl      y-accl      z-accl      x-coor      y-coor      z-coor
    22626 -1.73082E-04 2.53777E-02-4.95151E-02-7.35075E-05 3.24104E-02-6.24609E-02-1.22456E-03 1.35220E-02-1.54902E-02 4.65920E+00-2.81655E+01-4.50312E+01



 n o d a l   p r i n t   o u t   f o r   t i m e  s t e p    2801                              ( at time 1.3998599E+00 )

 nodal point  x-rot      y-rot       z-rot       x-rot vel   y-rot vel   z-rot vel   x-rot acc   y-rot acc   z-rot acc
    22626 -1.05040E-04-4.79493E-06-4.75262E-06-1.62541E-04-1.07405E-05-9.85370E-06-1.27428E-04-1.46955E-05 1.25298E-05



 n o d a l   p r i n t   o u t   f o r   t i m e  s t e p    3001                              ( at time 1.4998499E+00 )

 nodal point  x-disp     y-disp      z-disp      x-vel       y-vel       z-vel      x-accl      y-accl      z-accl      x-coor      y-coor      z-coor
    22626 -1.85773E-04 2.87403E-02-5.60517E-02-1.39005E-04 3.46442E-02-6.87378E-02-6.55043E-04 2.23405E-02-6.27751E-02 4.65919E+00-2.81621E+01-4.50378E+01



 n o d a l   p r i n t   o u t   f o r   t i m e  s t e p    3001                              ( at time 1.4998499E+00 )

 nodal point  x-rot      y-rot       z-rot       x-rot vel   y-rot vel   z-rot vel   x-rot acc   y-rot acc   z-rot acc
    22626 -1.21198E-04-5.96382E-06-5.98490E-06-1.58821E-04-1.24306E-05-1.57574E-05 3.72022E-05-1.69025E-05-5.90427E-05



 n o d a l   p r i n t   o u t   f o r   t i m e  s t e p    3201                              ( at time 1.5998399E+00 )

 nodal point  x-disp     y-disp      z-disp      x-vel       y-vel       z-vel      x-accl      y-accl      z-accl      x-coor      y-coor      z-coor
    22626 -2.16407E-04 3.23574E-02-6.31907E-02-1.61292E-04 3.75538E-02-7.32051E-02-2.22893E-04 2.90991E-02-4.46772E-02 4.65916E+00-2.81585E+01-4.50449E+01



 n o d a l   p r i n t   o u t   f o r   t i m e  s t e p    3201                              ( at time 1.5998399E+00 )

 nodal point  x-rot      y-rot       z-rot       x-rot vel   y-rot vel   z-rot vel   x-rot acc   y-rot acc   z-rot acc
    22626 -1.37152E-04-7.47016E-06-7.58974E-06-1.69703E-04-2.09695E-05-1.75464E-05-1.08832E-04-8.53975E-05-1.78923E-05



 n o d a l   p r i n t   o u t   f o r   t i m e  s t e p    3401                              ( at time 1.6998299E+00 )

 nodal point  x-disp     y-disp      z-disp      x-vel       y-vel       z-vel      x-accl      y-accl      z-accl      x-coor      y-coor      z-coor
    22626 -2.12824E-04 3.61883E-02-7.06346E-02-3.58002E-05 3.88494E-02-7.52689E-02 1.25505E-03 1.29567E-02-2.06402E-02 4.65916E+00-2.81546E+01-4.50524E+01



 n o d a l   p r i n t   o u t   f o r   t i m e  s t e p    3401                              ( at time 1.6998299E+00 )

 nodal point  x-rot      y-rot       z-rot       x-rot vel   y-rot vel   z-rot vel   x-rot acc   y-rot acc   z-rot acc
    22626 -1.55335E-04-9.45628E-06-9.47674E-06-1.89592E-04-1.93817E-05-1.77029E-05-1.98909E-04 1.58787E-05-1.56451E-06



 n o d a l   p r i n t   o u t   f o r   t i m e  s t e p    3601                              ( at time 1.7998199E+00 )

 nodal point  x-disp     y-disp      z-disp      x-vel       y-vel       z-vel      x-accl      y-accl      z-accl      x-coor      y-coor      z-coor
    22626 -2.17679E-04 4.00863E-02-7.82389E-02 9.45315E-05 3.94738E-02-7.68964E-02 1.30345E-03 6.24526E-03-1.62767E-02 4.65916E+00-2.81507E+01-4.50600E+01



 n o d a l   p r i n t   o u t   f o r   t i m e  s t e p    3601                              ( at time 1.7998199E+00 )

 nodal point  x-rot      y-rot       z-rot       x-rot vel   y-rot vel   z-rot vel   x-rot acc   y-rot acc   z-rot acc
    22626 -1.74939E-04-1.14804E-05-1.15390E-05-1.96260E-04-2.00370E-05-2.62975E-05-6.66840E-05-6.55286E-06-8.59548E-05



 n o d a l   p r i n t   o u t   f o r   t i m e  s t e p    3801                              ( at time 1.8998099E+00 )

 nodal point  x-disp     y-disp      z-disp      x-vel       y-vel       z-vel      x-accl      y-accl      z-accl      x-coor      y-coor      z-coor
    22626 -1.93524E-04 4.41517E-02-8.60987E-02 3.11873E-04 4.17349E-02-8.06016E-02 2.17363E-03 2.26129E-02-3.70552E-02 4.65918E+00-2.81467E+01-4.50678E+01



 n o d a l   p r i n t   o u t   f o r   t i m e  s t e p    3801                              ( at time 1.8998099E+00 )

 nodal point  x-rot      y-rot       z-rot       x-rot vel   y-rot vel   z-rot vel   x-rot acc   y-rot acc   z-rot acc
    22626 -1.94804E-04-1.36676E-05-1.41282E-05-2.01920E-04-2.41523E-05-2.55921E-05-5.66033E-05-4.11577E-05 7.05500E-06



 n o d a l   p r i n t   o u t   f o r   t i m e  s t e p    4001                              ( at time 1.9997999E+00 )

 nodal point  x-disp     y-disp      z-disp      x-vel       y-vel       z-vel      x-accl      y-accl      z-accl      x-coor      y-coor      z-coor
    22626 -1.88056E-04 4.83494E-02-9.43786E-02-8.84151E-05 4.24954E-02-8.47654E-02-4.00328E-03 7.60616E-03-4.16430E-02 4.65919E+00-2.81425E+01-4.50761E+01



 n o d a l   p r i n t   o u t   f o r   t i m e  s t e p    4001                              ( at time 1.9997999E+00 )

 nodal point  x-rot      y-rot       z-rot       x-rot vel   y-rot vel   z-rot vel   x-rot acc   y-rot acc   z-rot acc
    22626 -2.15484E-04-1.61078E-05-1.66990E-05-2.10593E-04-2.40283E-05-2.55710E-05-8.67420E-05 1.24053E-06 2.10205E-07



 n o d a l   p r i n t   o u t   f o r   t i m e  s t e p    4201                              ( at time 2.0997899E+00 )

 nodal point  x-disp     y-disp      z-disp      x-vel       y-vel       z-vel      x-accl      y-accl      z-accl      x-coor      y-coor      z-coor
    22626 -1.89743E-04 5.26105E-02-1.02953E-01 1.84216E-04 4.28414E-02-8.66987E-02 2.72658E-03 3.46058E-03-1.93343E-02 4.65919E+00-2.81382E+01-4.50847E+01



 n o d a l   p r i n t   o u t   f o r   t i m e  s t e p    4201                              ( at time 2.0997899E+00 )

 nodal point  x-rot      y-rot       z-rot       x-rot vel   y-rot vel   z-rot vel   x-rot acc   y-rot acc   z-rot acc
    22626 -2.36901E-04-1.90648E-05-1.96032E-05-2.12928E-04-3.38538E-05-3.00492E-05-2.33571E-05-9.82650E-05-4.47858E-05



 n o d a l   p r i n t   o u t   f o r   t i m e  s t e p    4401                              ( at time 2.1997798E+00 )

 nodal point  x-disp     y-disp      z-disp      x-vel       y-vel       z-vel      x-accl      y-accl      z-accl      x-coor      y-coor      z-coor
    22626 -1.44215E-04 5.69603E-02-1.11667E-01 4.82481E-04 4.34528E-02-8.75372E-02 2.98296E-03 6.11378E-03-8.38573E-03 4.65923E+00-2.81339E+01-4.50934E+01



 n o d a l   p r i n t   o u t   f o r   t i m e  s t e p    4401                              ( at time 2.1997798E+00 )

 nodal point  x-rot      y-rot       z-rot       x-rot vel   y-rot vel   z-rot vel   x-rot acc   y-rot acc   z-rot acc
    22626 -2.59039E-04-2.21242E-05-2.24456E-05-2.23610E-04-3.21833E-05-3.09631E-05-1.06823E-04 1.67065E-05-9.14055E-06



 n o d a l   p r i n t   o u t   f o r   t i m e  s t e p    4601                              ( at time 2.2997698E+00 )

 nodal point  x-disp     y-disp      z-disp      x-vel       y-vel       z-vel      x-accl      y-accl      z-accl      x-coor      y-coor      z-coor
    22626 -8.39471E-05 6.13405E-02-1.20459E-01 6.40570E-04 4.43627E-02-8.88424E-02 1.58104E-03 9.10074E-03-1.30536E-02 4.65929E+00-2.81295E+01-4.51022E+01



 n o d a l   p r i n t   o u t   f o r   t i m e  s t e p    4601                              ( at time 2.2997698E+00 )

 nodal point  x-rot      y-rot       z-rot       x-rot vel   y-rot vel   z-rot vel   x-rot acc   y-rot acc   z-rot acc
    22626 -2.82646E-04-2.50278E-05-2.52440E-05-2.32225E-04-2.60794E-05-3.17782E-05-8.61672E-05 6.10453E-05-8.15137E-06



 n o d a l   p r i n t   o u t   f o r   t i m e  s t e p    4801                              ( at time 2.3997598E+00 )

 nodal point  x-disp     y-disp      z-disp      x-vel       y-vel       z-vel      x-accl      y-accl      z-accl      x-coor      y-coor      z-coor
    22626 -8.13730E-05 6.58464E-02-1.29555E-01-3.33400E-04 4.54579E-02-9.31534E-02-9.74068E-03 1.09526E-02-4.31148E-02 4.65929E+00-2.81250E+01-4.51113E+01



 n o d a l   p r i n t   o u t   f o r   t i m e  s t e p    4801                              ( at time 2.3997598E+00 )

 nodal point  x-rot      y-rot       z-rot       x-rot vel   y-rot vel   z-rot vel   x-rot acc   y-rot acc   z-rot acc
    22626 -3.06564E-04-2.76714E-05-2.83454E-05-2.45683E-04-2.27470E-05-2.53964E-05-1.34589E-04 3.33272E-05 6.38247E-05



 n o d a l   p r i n t   o u t   f o r   t i m e  s t e p    5001                              ( at time 2.4997498E+00 )

 nodal point  x-disp     y-disp      z-disp      x-vel       y-vel       z-vel      x-accl      y-accl      z-accl      x-coor      y-coor      z-coor
    22626 -1.19423E-04 7.04339E-02-1.38984E-01-6.02241E-04 4.60008E-02-9.49321E-02-2.68868E-03 5.42992E-03-1.77885E-02 4.65926E+00-2.81204E+01-4.51207E+01



 n o d a l   p r i n t   o u t   f o r   t i m e  s t e p    5001                              ( at time 2.4997498E+00 )

 nodal point  x-rot      y-rot       z-rot       x-rot vel   y-rot vel   z-rot vel   x-rot acc   y-rot acc   z-rot acc
    22626 -3.31166E-04-2.98366E-05-3.11637E-05-2.48915E-04-2.12046E-05-2.75073E-05-3.23262E-05 1.54258E-05-2.11110E-05



 n o d a l   p r i n t   o u t   f o r   t i m e  s t e p    5201                              ( at time 2.5997398E+00 )

 nodal point  x-disp     y-disp      z-disp      x-vel       y-vel       z-vel      x-accl      y-accl      z-accl      x-coor      y-coor      z-coor
    22626 -1.81052E-04 7.49867E-02-1.48470E-01-5.65261E-04 4.52976E-02-9.46848E-02 3.69834E-04-7.03331E-03 2.47362E-03 4.65919E+00-2.81158E+01-4.51302E+01



 n o d a l   p r i n t   o u t   f o r   t i m e  s t e p    5201                              ( at time 2.5997398E+00 )

 nodal point  x-rot      y-rot       z-rot       x-rot vel   y-rot vel   z-rot vel   x-rot acc   y-rot acc   z-rot acc
    22626 -3.56874E-04-3.13298E-05-3.38189E-05-2.52945E-04-1.51738E-05-3.09006E-05-4.03056E-05 6.03144E-05-3.39368E-05



 n o d a l   p r i n t   o u t   f o r   t i m e  s t e p    5401                              ( at time 2.6997298E+00 )

 nodal point  x-disp     y-disp      z-disp      x-vel       y-vel       z-vel      x-accl      y-accl      z-accl      x-coor      y-coor      z-coor
    22626 -2.15774E-04 7.94986E-02-1.57953E-01-4.69961E-04 4.53133E-02-9.48449E-02 9.53102E-04 1.56850E-04-1.60106E-03 4.65916E+00-2.81113E+01-4.51397E+01



 n o d a l   p r i n t   o u t   f o r   t i m e  s t e p    5401                              ( at time 2.6997298E+00 )

 nodal point  x-rot      y-rot       z-rot       x-rot vel   y-rot vel   z-rot vel   x-rot acc   y-rot acc   z-rot acc
    22626 -3.83593E-04-3.27854E-05-3.65859E-05-2.74778E-04-1.50586E-05-2.77368E-05-2.18343E-04 1.15142E-06 3.16408E-05



 n o d a l   p r i n t   o u t   f o r   t i m e  s t e p    5601                              ( at time 2.7997198E+00 )

 nodal point  x-disp     y-disp      z-disp      x-vel       y-vel       z-vel      x-accl      y-accl      z-accl      x-coor      y-coor      z-coor
    22626 -2.50524E-04 8.40247E-02-1.67453E-01 1.91570E-04 4.51227E-02-9.56376E-02 6.61597E-03-1.90590E-03-7.92770E-03 4.65912E+00-2.81068E+01-4.51492E+01



 n o d a l   p r i n t   o u t   f o r   t i m e  s t e p    5601                              ( at time 2.7997198E+00 )

 nodal point  x-rot      y-rot       z-rot       x-rot vel   y-rot vel   z-rot vel   x-rot acc   y-rot acc   z-rot acc
    22626 -4.11189E-04-3.49432E-05-3.96985E-05-2.72916E-04-2.60794E-05-3.27367E-05 1.86205E-05-1.10219E-04-5.00038E-05



 n o d a l   p r i n t   o u t   f o r   t i m e  s t e p    5801                              ( at time 2.8997098E+00 )

 nodal point  x-disp     y-disp      z-disp      x-vel       y-vel       z-vel      x-accl      y-accl      z-accl      x-coor      y-coor      z-coor
    22626 -2.32932E-04 8.85536E-02-1.77096E-01 4.64995E-04 4.53119E-02-9.76116E-02 2.73453E-03 1.89186E-03-1.97424E-02 4.65914E+00-2.81023E+01-4.51588E+01



 n o d a l   p r i n t   o u t   f o r   t i m e  s t e p    5801                              ( at time 2.8997098E+00 )

 nodal point  x-rot      y-rot       z-rot       x-rot vel   y-rot vel   z-rot vel   x-rot acc   y-rot acc   z-rot acc
    22626 -4.38189E-04-3.81086E-05-4.31827E-05-2.63648E-04-3.17203E-05-3.16036E-05 9.26835E-05-5.64147E-05 1.13324E-05



 n o d a l   p r i n t   o u t   f o r   t i m e  s t e p    6001                              ( at time 2.9996998E+00 )

 nodal point  x-disp     y-disp      z-disp      x-vel       y-vel       z-vel      x-accl      y-accl      z-accl      x-coor      y-coor      z-coor
    22626 -1.88352E-04 9.31503E-02-1.86898E-01-2.49622E-04 4.59032E-02-9.74568E-02-7.14687E-03 5.91433E-03 1.54816E-03 4.65919E+00-2.80977E+01-4.51686E+01



 n o d a l   p r i n t   o u t   f o r   t i m e  s t e p    6001                              ( at time 2.9996998E+00 )

 nodal point  x-rot      y-rot       z-rot       x-rot vel   y-rot vel   z-rot vel   x-rot acc   y-rot acc   z-rot acc
    22626 -4.66593E-04-4.03997E-05-4.60897E-05-2.90976E-04-2.37747E-05-2.73983E-05-2.73304E-04 7.94636E-05 4.20568E-05



 n o d a l   p r i n t   o u t   f o r   t i m e  s t e p    6201                              ( at time 3.0996898E+00 )

 nodal point  x-disp     y-disp      z-disp      x-vel       y-vel       z-vel      x-accl      y-accl      z-accl      x-coor      y-coor      z-coor
    22626 -2.22925E-04 9.77641E-02-1.96576E-01-2.85507E-04 4.68100E-02-9.70767E-02-3.58893E-04 9.06868E-03 3.80115E-03 4.65915E+00-2.80931E+01-4.51783E+01



 n o d a l   p r i n t   o u t   f o r   t i m e  s t e p    6201                              ( at time 3.0996898E+00 )

 nodal point  x-rot      y-rot       z-rot       x-rot vel   y-rot vel   z-rot vel   x-rot acc   y-rot acc   z-rot acc
    22626 -4.97004E-04-4.27835E-05-4.94051E-05-3.18328E-04-2.41523E-05-3.21814E-05-2.73547E-04-3.77579E-06-4.78360E-05



 n o d a l   p r i n t   o u t   f o r   t i m e  s t e p    6401                              ( at time 3.1996798E+00 )

 nodal point  x-disp     y-disp      z-disp      x-vel       y-vel       z-vel      x-accl      y-accl      z-accl      x-coor      y-coor      z-coor
    22626 -2.45946E-04 1.02555E-01-2.06391E-01 8.62797E-05 4.95109E-02-9.92512E-02 3.71824E-03 2.70115E-02-2.17471E-02 4.65913E+00-2.80883E+01-4.51881E+01



 n o d a l   p r i n t   o u t   f o r   t i m e  s t e p    6401                              ( at time 3.1996798E+00 )

 nodal point  x-rot      y-rot       z-rot       x-rot vel   y-rot vel   z-rot vel   x-rot acc   y-rot acc   z-rot acc
    22626 -5.29463E-04-4.49620E-05-5.28322E-05-3.17724E-04-1.26182E-05-2.56055E-05 6.03993E-06 1.15352E-04 6.57656E-05



 n o d a l   p r i n t   o u t   f o r   t i m e  s t e p    6601                              ( at time 3.2996698E+00 )

 nodal point  x-disp     y-disp      z-disp      x-vel       y-vel       z-vel      x-accl      y-accl      z-accl      x-coor      y-coor      z-coor
    22626 -2.99607E-04 1.07657E-01-2.16462E-01-9.39691E-04 5.23912E-02-1.01920E-01-1.02607E-02 2.88056E-02-2.66892E-02 4.65908E+00-2.80832E+01-4.51982E+01



 n o d a l   p r i n t   o u t   f o r   t i m e  s t e p    6601                              ( at time 3.2996698E+00 )

 nodal point  x-rot      y-rot       z-rot       x-rot vel   y-rot vel   z-rot vel   x-rot acc   y-rot acc   z-rot acc
    22626 -5.62780E-04-4.57648E-05-5.54720E-05-3.44102E-04-1.45741E-05-3.23017E-05-2.63807E-04-1.95605E-05-6.69686E-05



 n o d a l   p r i n t   o u t   f o r   t i m e  s t e p    6801                              ( at time 3.3996598E+00 )

 nodal point  x-disp     y-disp      z-disp      x-vel       y-vel       z-vel      x-accl      y-accl      z-accl      x-coor      y-coor      z-coor
    22626 -3.83817E-04 1.13062E-01-2.26698E-01-6.77193E-04 5.54777E-02-1.02467E-01 2.62524E-03 3.08685E-02-5.46860E-03 4.65899E+00-2.80778E+01-4.52084E+01



 n o d a l   p r i n t   o u t   f o r   t i m e  s t e p    6801                              ( at time 3.3996598E+00 )

 nodal point  x-rot      y-rot       z-rot       x-rot vel   y-rot vel   z-rot vel   x-rot acc   y-rot acc   z-rot acc
    22626 -5.99155E-04-4.71531E-05-5.85866E-05-3.77977E-04-1.97205E-05-3.71203E-05-3.38787E-04-5.14692E-05-4.81906E-05



 n o d a l   p r i n t   o u t   f o r   t i m e  s t e p    7001                              ( at time 3.4996498E+00 )

 nodal point  x-disp     y-disp      z-disp      x-vel       y-vel       z-vel      x-accl      y-accl      z-accl      x-coor      y-coor      z-coor
    22626 -4.29561E-04 1.18752E-01-2.36912E-01-5.86135E-05 5.87236E-02-1.01521E-01 6.18642E-03 3.24622E-02 9.45321E-03 4.65895E+00-2.80721E+01-4.52186E+01



 n o d a l   p r i n t   o u t   f o r   t i m e  s t e p    7001                              ( at time 3.4996498E+00 )

 nodal point  x-rot      y-rot       z-rot       x-rot vel   y-rot vel   z-rot vel   x-rot acc   y-rot acc   z-rot acc
    22626 -6.39169E-04-4.90962E-05-6.19000E-05-4.12180E-04-2.12656E-05-2.64358E-05-3.42065E-04-1.54530E-05 1.06855E-04



 n o d a l   p r i n t   o u t   f o r   t i m e  s t e p    7201                              ( at time 3.5996397E+00 )

 nodal point  x-disp     y-disp      z-disp      x-vel       y-vel       z-vel      x-accl      y-accl      z-accl      x-coor      y-coor      z-coor
    22626 -4.36189E-04 1.24867E-01-2.47051E-01-1.10058E-04 6.35397E-02-1.01664E-01-5.14502E-04 4.81659E-02-1.42492E-03 4.65894E+00-2.80660E+01-4.52288E+01



 n o d a l   p r i n t   o u t   f o r   t i m e  s t e p    7201                              ( at time 3.5996397E+00 )

 nodal point  x-rot      y-rot       z-rot       x-rot vel   y-rot vel   z-rot vel   x-rot acc   y-rot acc   z-rot acc
    22626 -6.82411E-04-5.07183E-05-6.46741E-05-4.59384E-04-1.15734E-05-2.97267E-05-4.72083E-04 9.69317E-05-3.29121E-05



 n o d a l   p r i n t   o u t   f o r   t i m e  s t e p    7401                              ( at time 3.6996297E+00 )

 nodal point  x-disp     y-disp      z-disp      x-vel       y-vel       z-vel      x-accl      y-accl      z-accl      x-coor      y-coor      z-coor
    22626 -5.07147E-04 1.31395E-01-2.57197E-01-6.20406E-04 6.74302E-02-1.01488E-01-5.10398E-03 3.89084E-02 1.76097E-03 4.65887E+00-2.80594E+01-4.52389E+01



 n o d a l   p r i n t   o u t   f o r   t i m e  s t e p    7401                              ( at time 3.6996297E+00 )

 nodal point  x-rot      y-rot       z-rot       x-rot vel   y-rot vel   z-rot vel   x-rot acc   y-rot acc   z-rot acc
    22626 -7.30843E-04-5.21682E-05-6.79830E-05-5.09025E-04-1.01396E-05-3.43846E-05-4.96457E-04 1.43397E-05-4.65841E-05



 n o d a l   p r i n t   o u t   f o r   t i m e  s t e p    7601                              ( at time 3.7996197E+00 )

 nodal point  x-disp     y-disp      z-disp      x-vel       y-vel       z-vel      x-accl      y-accl      z-accl      x-coor      y-coor      z-coor
    22626 -5.41324E-04 1.38476E-01-2.67355E-01-4.35743E-04 7.37457E-02-1.02200E-01 1.84682E-03 6.31621E-02-7.12064E-03 4.65883E+00-2.80524E+01-4.52491E+01



 n o d a l   p r i n t   o u t   f o r   t i m e  s t e p    7601                              ( at time 3.7996197E+00 )

 nodal point  x-rot      y-rot       z-rot       x-rot vel   y-rot vel   z-rot vel   x-rot acc   y-rot acc   z-rot acc
    22626 -7.84123E-04-5.28865E-05-7.07412E-05-5.55718E-04-1.20059E-05-2.34083E-05-4.66986E-04-1.86654E-05 1.09775E-04



 n o d a l   p r i n t   o u t   f o r   t i m e  s t e p    7801                              ( at time 3.8996097E+00 )

 nodal point  x-disp     y-disp      z-disp      x-vel       y-vel       z-vel      x-accl      y-accl      z-accl      x-coor      y-coor      z-coor
    22626 -5.82127E-04 1.46184E-01-2.77544E-01-5.31150E-04 8.01335E-02-1.00920E-01-9.54168E-04 6.38836E-02 1.28008E-02 4.65879E+00-2.80446E+01-4.52593E+01



 n o d a l   p r i n t   o u t   f o r   t i m e  s t e p    7801                              ( at time 3.8996097E+00 )

 nodal point  x-rot      y-rot       z-rot       x-rot vel   y-rot vel   z-rot vel   x-rot acc   y-rot acc   z-rot acc
    22626 -8.43244E-04-5.41544E-05-7.33257E-05-6.32353E-04-1.69587E-05-3.14408E-05-7.66420E-04-4.95321E-05-8.03337E-05



 n o d a l   p r i n t   o u t   f o r   t i m e  s t e p    8001                              ( at time 3.9995997E+00 )

 nodal point  x-disp     y-disp      z-disp      x-vel       y-vel       z-vel      x-accl      y-accl      z-accl      x-coor      y-coor      z-coor
    22626 -6.15627E-04 1.54546E-01-2.87542E-01 2.75671E-04 8.73266E-02-9.97586E-02 8.06903E-03 7.19387E-02 1.16139E-02 4.65876E+00-2.80363E+01-4.52693E+01



 n o d a l   p r i n t   o u t   f o r   t i m e  s t e p    8001                              ( at time 3.9995997E+00 )

 nodal point  x-rot      y-rot       z-rot       x-rot vel   y-rot vel   z-rot vel   x-rot acc   y-rot acc   z-rot acc
    22626 -9.09695E-04-5.53228E-05-7.64762E-05-6.93497E-04-9.29297E-07-2.89888E-05-6.11507E-04 1.60310E-04 2.45231E-05



 n o d a l   p r i n t   o u t   f o r   t i m e  s t e p    8201                              ( at time 4.0995897E+00 )

 nodal point  x-disp     y-disp      z-disp      x-vel       y-vel       z-vel      x-accl      y-accl      z-accl      x-coor      y-coor      z-coor
    22626 -5.88341E-04 1.63723E-01-2.97515E-01 1.71980E-04 9.60560E-02-1.00089E-01-1.03701E-03 8.73024E-02-3.29952E-03 4.65879E+00-2.80271E+01-4.52792E+01



 n o d a l   p r i n t   o u t   f o r   t i m e  s t e p    8201                              ( at time 4.0995897E+00 )

 nodal point  x-rot      y-rot       z-rot       x-rot vel   y-rot vel   z-rot vel   x-rot acc   y-rot acc   z-rot acc
    22626 -9.81729E-04-5.62375E-05-7.94463E-05-7.46766E-04-1.04228E-05-2.58262E-05-5.32738E-04-9.49444E-05 3.16284E-05



 n o d a l   p r i n t   o u t   f o r   t i m e  s t e p    8401                              ( at time 4.1995797E+00 )

 nodal point  x-disp     y-disp      z-disp      x-vel       y-vel       z-vel      x-accl      y-accl      z-accl      x-coor      y-coor      z-coor
    22626 -5.87271E-04 1.73844E-01-3.07571E-01-2.29633E-04 1.06227E-01-1.00591E-01-4.01653E-03 1.01717E-01-5.02361E-03 4.65879E+00-2.80170E+01-4.52893E+01



 n o d a l   p r i n t   o u t   f o r   t i m e  s t e p    8401                              ( at time 4.1995797E+00 )

 nodal point  x-rot      y-rot       z-rot       x-rot vel   y-rot vel   z-rot vel   x-rot acc   y-rot acc   z-rot acc
    22626 -1.06114E-03-5.76429E-05-8.28230E-05-8.28352E-04-1.27445E-05-3.28133E-05-8.15947E-04-2.32196E-05-6.98775E-05



 n o d a l   p r i n t   o u t   f o r   t i m e  s t e p    8601                              ( at time 4.2995697E+00 )

 nodal point  x-disp     y-disp      z-disp      x-vel       y-vel       z-vel      x-accl      y-accl      z-accl      x-coor      y-coor      z-coor
    22626 -6.18311E-04 1.84989E-01-3.17610E-01-6.31508E-05 1.17243E-01-9.99363E-02 1.66499E-03 1.10172E-01 6.54637E-03 4.65876E+00-2.80058E+01-4.52993E+01



 n o d a l   p r i n t   o u t   f o r   t i m e  s t e p    8601                              ( at time 4.2995697E+00 )

 nodal point  x-rot      y-rot       z-rot       x-rot vel   y-rot vel   z-rot vel   x-rot acc   y-rot acc   z-rot acc
    22626 -1.14815E-03-5.84870E-05-8.55845E-05-9.12169E-04-8.16508E-06-3.21220E-05-8.38249E-04 4.57991E-05 6.91384E-06



 n o d a l   p r i n t   o u t   f o r   t i m e  s t e p    8801                              ( at time 4.3995597E+00 )

 nodal point  x-disp     y-disp      z-disp      x-vel       y-vel       z-vel      x-accl      y-accl      z-accl      x-coor      y-coor      z-coor
    22626 -6.77602E-04 1.97215E-01-3.27543E-01-9.26427E-04 1.27745E-01-9.85218E-02-8.63363E-03 1.05029E-01 1.41462E-02 4.65870E+00-2.79936E+01-4.53093E+01



 n o d a l   p r i n t   o u t   f o r   t i m e  s t e p    8801                              ( at time 4.3995597E+00 )

 nodal point  x-rot      y-rot       z-rot       x-rot vel   y-rot vel   z-rot vel   x-rot acc   y-rot acc   z-rot acc
    22626 -1.24345E-03-5.87500E-05-8.90049E-05-9.99202E-04-6.68244E-06-3.42840E-05-8.70422E-04 1.48279E-05-2.16227E-05



 n o d a l   p r i n t   o u t   f o r   t i m e  s t e p    9001                              ( at time 4.4995497E+00 )

 nodal point  x-disp     y-disp      z-disp      x-vel       y-vel       z-vel      x-accl      y-accl      z-accl      x-coor      y-coor      z-coor
    22626 -7.10213E-04 2.10659E-01-3.37390E-01-6.03576E-05 1.41156E-01-9.91961E-02 8.66152E-03 1.34127E-01-6.74335E-03 4.65866E+00-2.79802E+01-4.53191E+01



 n o d a l   p r i n t   o u t   f o r   t i m e  s t e p    9001                              ( at time 4.4995497E+00 )

 nodal point  x-rot      y-rot       z-rot       x-rot vel   y-rot vel   z-rot vel   x-rot acc   y-rot acc   z-rot acc
    22626 -1.34826E-03-5.87743E-05-9.19338E-05-1.09292E-03-7.01184E-07-2.54973E-05-9.37270E-04 5.98183E-05 8.78757E-05



 n o d a l   p r i n t   o u t   f o r   t i m e  s t e p    9201                              ( at time 4.5995397E+00 )

 nodal point  x-disp     y-disp      z-disp      x-vel       y-vel       z-vel      x-accl      y-accl      z-accl      x-coor      y-coor      z-coor
    22626 -7.68910E-04 2.25470E-01-3.47343E-01-8.65044E-04 1.54909E-01-9.99778E-02-8.04768E-03 1.37541E-01-7.81794E-03 4.65861E+00-2.79654E+01-4.53291E+01



 n o d a l   p r i n t   o u t   f o r   t i m e  s t e p    9201                              ( at time 4.5995397E+00 )

 nodal point  x-rot      y-rot       z-rot       x-rot vel   y-rot vel   z-rot vel   x-rot acc   y-rot acc   z-rot acc
    22626 -1.46185E-03-5.93768E-05-9.55501E-05-1.18213E-03-1.18604E-05-4.77783E-05-8.92224E-04-1.11603E-04-2.22832E-04



 n o d a l   p r i n t   o u t   f o r   t i m e  s t e p    9401                              ( at time 4.6995297E+00 )

 nodal point  x-disp     y-disp      z-disp      x-vel       y-vel       z-vel      x-accl      y-accl      z-accl      x-coor      y-coor      z-coor
    22626 -8.55710E-04 2.41649E-01-3.57306E-01-8.64072E-04 1.68600E-01-9.96058E-02 9.72399E-06 1.36923E-01 3.71993E-03 4.65852E+00-2.79492E+01-4.53390E+01



 n o d a l   p r i n t   o u t   f o r   t i m e  s t e p    9401                              ( at time 4.6995297E+00 )

 nodal point  x-rot      y-rot       z-rot       x-rot vel   y-rot vel   z-rot vel   x-rot acc   y-rot acc   z-rot acc
    22626 -1.58529E-03-6.08062E-05-1.01150E-04-1.29870E-03-1.60579E-05-5.18778E-05-1.16576E-03-4.19800E-05-4.09998E-05



 n o d a l   p r i n t   o u t   f o r   t i m e  s t e p    9601                              ( at time 4.7995197E+00 )

 nodal point  x-disp     y-disp      z-disp      x-vel       y-vel       z-vel      x-accl      y-accl      z-accl      x-coor      y-coor      z-coor
    22626 -9.30464E-04 2.59255E-01-3.67223E-01-5.28006E-04 1.83322E-01-9.87838E-02 3.36100E-03 1.47236E-01 8.22128E-03 4.65844E+00-2.79316E+01-4.53489E+01



 n o d a l   p r i n t   o u t   f o r   t i m e  s t e p    9601                              ( at time 4.7995197E+00 )

 nodal point  x-rot      y-rot       z-rot       x-rot vel   y-rot vel   z-rot vel   x-rot acc   y-rot acc   z-rot acc
    22626 -1.72047E-03-6.24791E-05-1.06403E-04-1.40649E-03-1.68870E-05-5.82101E-05-1.07805E-03-8.29176E-06-6.33285E-05



 n o d a l   p r i n t   o u t   f o r   t i m e  s t e p    9801                              ( at time 4.8995097E+00 )

 nodal point  x-disp     y-disp      z-disp      x-vel       y-vel       z-vel      x-accl      y-accl      z-accl      x-coor      y-coor      z-coor
    22626 -1.04042E-03 2.78382E-01-3.77013E-01-1.28436E-03 1.98583E-01-9.76627E-02-7.56426E-03 1.52630E-01 1.12122E-02 4.65833E+00-2.79124E+01-4.53587E+01



 n o d a l   p r i n t   o u t   f o r   t i m e  s t e p    9801                              ( at time 4.8995097E+00 )

 nodal point  x-rot      y-rot       z-rot       x-rot vel   y-rot vel   z-rot vel   x-rot acc   y-rot acc   z-rot acc
    22626 -1.86621E-03-6.48338E-05-1.13062E-04-1.51031E-03-2.45740E-05-6.92226E-05-1.03826E-03-7.68773E-05-1.10137E-04



 n o d a l   p r i n t   o u t   f o r   t i m e  s t e p   10001                              ( at time 4.9994997E+00 )

 nodal point  x-disp     y-disp      z-disp      x-vel       y-vel       z-vel      x-accl      y-accl      z-accl      x-coor      y-coor      z-coor
    22626 -1.20379E-03 2.99056E-01-3.86716E-01-2.03534E-03 2.14312E-01-9.70958E-02-7.51056E-03 1.57302E-01 5.66880E-03 4.65817E+00-2.78918E+01-4.53684E+01



 n o d a l   p r i n t   o u t   f o r   t i m e  s t e p   10001                              ( at time 4.9994997E+00 )

 nodal point  x-rot      y-rot       z-rot       x-rot vel   y-rot vel   z-rot vel   x-rot acc   y-rot acc   z-rot acc
    22626 -2.02350E-03-6.75594E-05-1.20803E-04-1.62974E-03-3.44312E-05-8.01879E-05-1.19444E-03-9.85818E-05-1.09663E-04



 n o d a l   p r i n t   o u t   f o r   t i m e  s t e p   10202                              ( at time 5.0999896E+00 )

 nodal point  x-disp     y-disp      z-disp      x-vel       y-vel       z-vel      x-accl      y-accl      z-accl      x-coor      y-coor      z-coor
    22626 -1.43691E-03 3.21434E-01-3.96463E-01-2.29690E-03 2.30773E-01-9.69711E-02-2.60287E-03 1.63803E-01 1.24108E-03 4.65794E+00-2.78694E+01-4.53782E+01



 n o d a l   p r i n t   o u t   f o r   t i m e  s t e p   10202                              ( at time 5.0999896E+00 )

 nodal point  x-rot      y-rot       z-rot       x-rot vel   y-rot vel   z-rot vel   x-rot acc   y-rot acc   z-rot acc
    22626 -2.19329E-03-7.16715E-05-1.30102E-04-1.74654E-03-3.71437E-05-9.97707E-05-1.16229E-03-2.69932E-05-1.94874E-04



 n o d a l   p r i n t   o u t   f o r   t i m e  s t e p   10402                              ( at time 5.1999796E+00 )

 nodal point  x-disp     y-disp      z-disp      x-vel       y-vel       z-vel      x-accl      y-accl      z-accl      x-coor      y-coor      z-coor
    22626 -1.66425E-03 3.45347E-01-4.06111E-01-2.57202E-03 2.47638E-01-9.51422E-02-2.75145E-03 1.68674E-01 1.82906E-02 4.65771E+00-2.78455E+01-4.53878E+01



 n o d a l   p r i n t   o u t   f o r   t i m e  s t e p   10402                              ( at time 5.1999796E+00 )

 nodal point  x-rot      y-rot       z-rot       x-rot vel   y-rot vel   z-rot vel   x-rot acc   y-rot acc   z-rot acc
    22626 -2.37445E-03-7.64097E-05-1.40571E-04-1.87286E-03-5.83783E-05-1.15294E-04-1.26331E-03-2.12366E-04-1.55244E-04



 n o d a l   p r i n t   o u t   f o r   t i m e  s t e p   10602                              ( at time 5.2999696E+00 )

 nodal point  x-disp     y-disp      z-disp      x-vel       y-vel       z-vel      x-accl      y-accl      z-accl      x-coor      y-coor      z-coor
    22626 -1.96933E-03 3.70820E-01-4.15484E-01-3.94443E-03 2.62928E-01-9.24784E-02-1.37255E-02 1.52918E-01 2.66405E-02 4.65741E+00-2.78200E+01-4.53972E+01



 n o d a l   p r i n t   o u t   f o r   t i m e  s t e p   10602                              ( at time 5.2999696E+00 )

 nodal point  x-rot      y-rot       z-rot       x-rot vel   y-rot vel   z-rot vel   x-rot acc   y-rot acc   z-rot acc
    22626 -2.56829E-03-8.35175E-05-1.52949E-04-1.99556E-03-8.07655E-05-1.39075E-04-1.22721E-03-2.23895E-04-2.37837E-04



 n o d a l   p r i n t   o u t   f o r   t i m e  s t e p   10802                              ( at time 5.3999596E+00 )

 nodal point  x-disp     y-disp      z-disp      x-vel       y-vel       z-vel      x-accl      y-accl      z-accl      x-coor      y-coor      z-coor
    22626 -2.40368E-03 3.97974E-01-4.24714E-01-4.30197E-03 2.79970E-01-9.20197E-02-3.57573E-03 1.70433E-01 4.58779E-03 4.65697E+00-2.77929E+01-4.54064E+01



 n o d a l   p r i n t   o u t   f o r   t i m e  s t e p   10802                              ( at time 5.3999596E+00 )

 nodal point  x-rot      y-rot       z-rot       x-rot vel   y-rot vel   z-rot vel   x-rot acc   y-rot acc   z-rot acc
    22626 -2.77425E-03-9.10838E-05-1.67432E-04-2.11730E-03-7.73385E-05-1.52373E-04-1.21749E-03 3.42733E-05-1.32990E-04



 n o d a l   p r i n t   o u t   f o r   t i m e  s t e p   11002                              ( at time 5.4999496E+00 )

 nodal point  x-disp     y-disp      z-disp      x-vel       y-vel       z-vel      x-accl      y-accl      z-accl      x-coor      y-coor      z-coor
    22626 -2.86292E-03 4.26759E-01-4.33805E-01-5.13535E-03 2.95767E-01-8.95573E-02-8.33469E-03 1.57984E-01 2.46270E-02 4.65651E+00-2.77641E+01-4.54155E+01



 n o d a l   p r i n t   o u t   f o r   t i m e  s t e p   11002                              ( at time 5.4999496E+00 )

 nodal point  x-rot      y-rot       z-rot       x-rot vel   y-rot vel   z-rot vel   x-rot acc   y-rot acc   z-rot acc
    22626 -2.99240E-03-9.94522E-05-1.82926E-04-2.24288E-03-1.01533E-04-1.58219E-04-1.25588E-03-2.41972E-04-5.84719E-05



 n o d a l   p r i n t   o u t   f o r   t i m e  s t e p   11202                              ( at time 5.5999396E+00 )

 nodal point  x-disp     y-disp      z-disp      x-vel       y-vel       z-vel      x-accl      y-accl      z-accl      x-coor      y-coor      z-coor
    22626 -3.40354E-03 4.57168E-01-4.42598E-01-5.73705E-03 3.12292E-01-8.62308E-02-6.01762E-03 1.65266E-01 3.32677E-02 4.65597E+00-2.77337E+01-4.54243E+01



 n o d a l   p r i n t   o u t   f o r   t i m e  s t e p   11202                              ( at time 5.5999396E+00 )

 nodal point  x-rot      y-rot       z-rot       x-rot vel   y-rot vel   z-rot vel   x-rot acc   y-rot acc   z-rot acc
    22626 -3.22264E-03-1.09662E-04-1.99440E-04-2.36664E-03-9.95034E-05-1.70472E-04-1.23775E-03 2.03008E-05-1.22543E-04



 n o d a l   p r i n t   o u t   f o r   t i m e  s t e p   11402                              ( at time 5.6999296E+00 )

 nodal point  x-disp     y-disp      z-disp      x-vel       y-vel       z-vel      x-accl      y-accl      z-accl      x-coor      y-coor      z-coor
    22626 -4.01120E-03 4.89211E-01-4.50974E-01-6.52885E-03 3.28340E-01-8.12799E-02-7.91869E-03 1.60500E-01 4.95142E-02 4.65536E+00-2.77016E+01-4.54327E+01



 n o d a l   p r i n t   o u t   f o r   t i m e  s t e p   11402                              ( at time 5.6999296E+00 )

 nodal point  x-rot      y-rot       z-rot       x-rot vel   y-rot vel   z-rot vel   x-rot acc   y-rot acc   z-rot acc
    22626 -3.46642E-03-1.20118E-04-2.17071E-04-2.49592E-03-1.06493E-04-1.83005E-04-1.29291E-03-6.98997E-05-1.25336E-04



 n o d a l   p r i n t   o u t   f o r   t i m e  s t e p   11602                              ( at time 5.7999195E+00 )

 nodal point  x-disp     y-disp      z-disp      x-vel       y-vel       z-vel      x-accl      y-accl      z-accl      x-coor      y-coor      z-coor
    22626 -4.69712E-03 5.22908E-01-4.58880E-01-7.52244E-03 3.45096E-01-7.73549E-02-9.93696E-03 1.67576E-01 3.92534E-02 4.65468E+00-2.76679E+01-4.54406E+01



 n o d a l   p r i n t   o u t   f o r   t i m e  s t e p   11602                              ( at time 5.7999195E+00 )

 nodal point  x-rot      y-rot       z-rot       x-rot vel   y-rot vel   z-rot vel   x-rot acc   y-rot acc   z-rot acc
    22626 -3.72248E-03-1.30809E-04-2.35655E-04-2.62291E-03-9.76222E-05-1.83001E-04-1.27004E-03 8.87134E-05 3.55103E-08



 n o d a l   p r i n t   o u t   f o r   t i m e  s t e p   11802                              ( at time 5.8999095E+00 )

 nodal point  x-disp     y-disp      z-disp      x-vel       y-vel       z-vel      x-accl      y-accl      z-accl      x-coor      y-coor      z-coor
    22626 -5.44950E-03 5.58247E-01-4.66355E-01-7.56624E-03 3.61595E-01-7.25439E-02-4.37971E-04 1.65004E-01 4.81148E-02 4.65393E+00-2.76326E+01-4.54481E+01



 n o d a l   p r i n t   o u t   f o r   t i m e  s t e p   11802                              ( at time 5.8999095E+00 )

 nodal point  x-rot      y-rot       z-rot       x-rot vel   y-rot vel   z-rot vel   x-rot acc   y-rot acc   z-rot acc
    22626 -3.99090E-03-1.41245E-04-2.54075E-04-2.75252E-03-1.04934E-04-1.90698E-04-1.29626E-03-7.31223E-05-7.69803E-05



 n o d a l   p r i n t   o u t   f o r   t i m e  s t e p   12002                              ( at time 5.9998995E+00 )

 nodal point  x-disp     y-disp      z-disp      x-vel       y-vel       z-vel      x-accl      y-accl      z-accl      x-coor      y-coor      z-coor
    22626 -6.29468E-03 5.95252E-01-4.73426E-01-8.94908E-03 3.78428E-01-6.82753E-02-1.38298E-02 1.68346E-01 4.26911E-02 4.65308E+00-2.75956E+01-4.54551E+01



 n o d a l   p r i n t   o u t   f o r   t i m e  s t e p   12002                              ( at time 5.9998995E+00 )

 nodal point  x-rot      y-rot       z-rot       x-rot vel   y-rot vel   z-rot vel   x-rot acc   y-rot acc   z-rot acc
    22626 -4.27290E-03-1.52601E-04-2.73414E-04-2.87915E-03-1.14176E-04-1.96980E-04-1.26644E-03-9.24283E-05-6.28251E-05



 n o d a l   p r i n t   o u t   f o r   t i m e  s t e p   12202                              ( at time 6.0998895E+00 )

 nodal point  x-disp     y-disp      z-disp      x-vel       y-vel       z-vel      x-accl      y-accl      z-accl      x-coor      y-coor      z-coor
    22626 -7.19046E-03 6.33930E-01-4.79965E-01-9.04400E-03 3.95718E-01-6.17569E-02-9.49305E-04 1.72915E-01 6.51904E-02 4.65218E+00-2.75569E+01-4.54617E+01



 n o d a l   p r i n t   o u t   f o r   t i m e  s t e p   12202                              ( at time 6.0998895E+00 )

 nodal point  x-rot      y-rot       z-rot       x-rot vel   y-rot vel   z-rot vel   x-rot acc   y-rot acc   z-rot acc
    22626 -4.56817E-03-1.63210E-04-2.92511E-04-3.00879E-03-1.00991E-04-1.83403E-04-1.29645E-03 1.31860E-04 1.35783E-04



 n o d a l   p r i n t   o u t   f o r   t i m e  s t e p   12402                              ( at time 6.1998795E+00 )

 nodal point  x-disp     y-disp      z-disp      x-vel       y-vel       z-vel      x-accl      y-accl      z-accl      x-coor      y-coor      z-coor
    22626 -8.07494E-03 6.74359E-01-4.85916E-01-8.79956E-03 4.12562E-01-5.69748E-02 2.44465E-03 1.68459E-01 4.78251E-02 4.65130E+00-2.75165E+01-4.54676E+01



 n o d a l   p r i n t   o u t   f o r   t i m e  s t e p   12402                              ( at time 6.1998795E+00 )

 nodal point  x-rot      y-rot       z-rot       x-rot vel   y-rot vel   z-rot vel   x-rot acc   y-rot acc   z-rot acc
    22626 -4.87696E-03-1.72644E-04-3.10607E-04-3.15188E-03-1.04065E-04-1.85524E-04-1.43103E-03-3.07473E-05-2.12142E-05



 n o d a l   p r i n t   o u t   f o r   t i m e  s t e p   12602                              ( at time 6.2998695E+00 )

 nodal point  x-disp     y-disp      z-disp      x-vel       y-vel       z-vel      x-accl      y-accl      z-accl      x-coor      y-coor      z-coor
    22626 -9.01235E-03 7.16490E-01-4.91363E-01-1.02913E-02 4.30342E-01-5.20025E-02-1.49190E-02 1.77820E-01 4.97286E-02 4.65036E+00-2.74743E+01-4.54731E+01



 n o d a l   p r i n t   o u t   f o r   t i m e  s t e p   12602                              ( at time 6.2998695E+00 )

 nodal point  x-rot      y-rot       z-rot       x-rot vel   y-rot vel   z-rot vel   x-rot acc   y-rot acc   z-rot acc
    22626 -5.19860E-03-1.83801E-04-3.29043E-04-3.28258E-03-1.16460E-04-1.84807E-04-1.30721E-03-1.23956E-04 7.17162E-06



 n o d a l   p r i n t   o u t   f o r   t i m e  s t e p   12802                              ( at time 6.3998595E+00 )

 nodal point  x-disp     y-disp      z-disp      x-vel       y-vel       z-vel      x-accl      y-accl      z-accl      x-coor      y-coor      z-coor
    22626 -1.00476E-02 7.60403E-01-4.96194E-01-9.77034E-03 4.47587E-01-4.54072E-02 5.21016E-03 1.72471E-01 6.59591E-02 4.64933E+00-2.74304E+01-4.54779E+01



 n o d a l   p r i n t   o u t   f o r   t i m e  s t e p   12802                              ( at time 6.3998595E+00 )

 nodal point  x-rot      y-rot       z-rot       x-rot vel   y-rot vel   z-rot vel   x-rot acc   y-rot acc   z-rot acc
    22626 -5.53287E-03-1.94922E-04-3.48617E-04-3.41950E-03-1.05367E-04-1.95196E-04-1.36927E-03 1.10934E-04-1.03894E-04



 n o d a l   p r i n t   o u t   f o r   t i m e  s t e p   13002                              ( at time 6.4998495E+00 )

 nodal point  x-disp     y-disp      z-disp      x-vel       y-vel       z-vel      x-accl      y-accl      z-accl      x-coor      y-coor      z-coor
    22626 -1.09978E-02 8.06018E-01-5.00348E-01-9.30158E-03 4.64028E-01-3.75548E-02 4.68811E-03 1.64421E-01 7.85325E-02 4.64838E+00-2.73848E+01-4.54821E+01



 n o d a l   p r i n t   o u t   f o r   t i m e  s t e p   13002                              ( at time 6.4998495E+00 )

 nodal point  x-rot      y-rot       z-rot       x-rot vel   y-rot vel   z-rot vel   x-rot acc   y-rot acc   z-rot acc
    22626 -5.88208E-03-2.05526E-04-3.67049E-04-3.55863E-03-1.05412E-04-1.73891E-04-1.39146E-03-4.45916E-07 2.13067E-04



 n o d a l   p r i n t   o u t   f o r   t i m e  s t e p   13202                              ( at time 6.5998395E+00 )

 nodal point  x-disp     y-disp      z-disp      x-vel       y-vel       z-vel      x-accl      y-accl      z-accl      x-coor      y-coor      z-coor
    22626 -1.19705E-02 8.53284E-01-5.03652E-01-1.05157E-02 4.81406E-01-2.87951E-02-1.21426E-02 1.73799E-01 8.76046E-02 4.64740E+00-2.73375E+01-4.54854E+01



 n o d a l   p r i n t   o u t   f o r   t i m e  s t e p   13202                              ( at time 6.5998395E+00 )

 nodal point  x-rot      y-rot       z-rot       x-rot vel   y-rot vel   z-rot vel   x-rot acc   y-rot acc   z-rot acc
    22626 -6.24436E-03-2.16213E-04-3.84664E-04-3.68292E-03-1.16786E-04-1.91661E-04-1.24299E-03-1.13751E-04-1.77713E-04



 n o d a l   p r i n t   o u t   f o r   t i m e  s t e p   13402                              ( at time 6.6998295E+00 )

 nodal point  x-disp     y-disp      z-disp      x-vel       y-vel       z-vel      x-accl      y-accl      z-accl      x-coor      y-coor      z-coor
    22626 -1.30417E-02 9.02279E-01-5.06128E-01-1.11201E-02 4.97969E-01-2.08512E-02-6.04401E-03 1.65645E-01 7.94476E-02 4.64633E+00-2.72886E+01-4.54879E+01



 n o d a l   p r i n t   o u t   f o r   t i m e  s t e p   13402                              ( at time 6.6998295E+00 )

 nodal point  x-rot      y-rot       z-rot       x-rot vel   y-rot vel   z-rot vel   x-rot acc   y-rot acc   z-rot acc
    22626 -6.61985E-03-2.28392E-04-4.04714E-04-3.82399E-03-1.18232E-04-1.95290E-04-1.41091E-03-1.44568E-05-3.63009E-05



 n o d a l   p r i n t   o u t   f o r   t i m e  s t e p   13602                              ( at time 6.7998195E+00 )

 nodal point  x-disp     y-disp      z-disp      x-vel       y-vel       z-vel      x-accl      y-accl      z-accl      x-coor      y-coor      z-coor
    22626 -1.41581E-02 9.52949E-01-5.07779E-01-1.02804E-02 5.15248E-01-1.20364E-02 8.39759E-03 1.72809E-01 8.81570E-02 4.64522E+00-2.72379E+01-4.54895E+01



 n o d a l   p r i n t   o u t   f o r   t i m e  s t e p   13602                              ( at time 6.7998195E+00 )

 nodal point  x-rot      y-rot       z-rot       x-rot vel   y-rot vel   z-rot vel   x-rot acc   y-rot acc   z-rot acc
    22626 -7.00903E-03-2.39300E-04-4.23302E-04-3.96345E-03-1.01508E-04-1.85475E-04-1.39472E-03 1.67253E-04 9.81680E-05



 n o d a l   p r i n t   o u t   f o r   t i m e  s t e p   13802                              ( at time 6.8998095E+00 )

 nodal point  x-disp     y-disp      z-disp      x-vel       y-vel       z-vel      x-accl      y-accl      z-accl      x-coor      y-coor      z-coor
    22626 -1.51960E-02 1.00528E+00-5.08506E-01-1.08892E-02 5.31531E-01-2.60132E-03-6.08893E-03 1.62846E-01 9.43601E-02 4.64418E+00-2.71856E+01-4.54902E+01



 n o d a l   p r i n t   o u t   f o r   t i m e  s t e p   13802                              ( at time 6.8998095E+00 )

 nodal point  x-rot      y-rot       z-rot       x-rot vel   y-rot vel   z-rot vel   x-rot acc   y-rot acc   z-rot acc
    22626 -7.41235E-03-2.50563E-04-4.41914E-04-4.10498E-03-1.26318E-04-1.88912E-04-1.41540E-03-2.48126E-04-3.43803E-05



 n o d a l   p r i n t   o u t   f o r   t i m e  s t e p   14002                              ( at time 6.9997995E+00 )

 nodal point  x-disp     y-disp      z-disp      x-vel       y-vel       z-vel      x-accl      y-accl      z-accl      x-coor      y-coor      z-coor
    22626 -1.63084E-02 1.05929E+00-5.08266E-01-1.17809E-02 5.48817E-01 7.57931E-03-8.91780E-03 1.72878E-01 1.01817E-01 4.64307E+00-2.71315E+01-4.54900E+01



 n o d a l   p r i n t   o u t   f o r   t i m e  s t e p   14002                              ( at time 6.9997995E+00 )

 nodal point  x-rot      y-rot       z-rot       x-rot vel   y-rot vel   z-rot vel   x-rot acc   y-rot acc   z-rot acc
    22626 -7.82963E-03-2.62987E-04-4.61251E-04-4.23773E-03-1.22277E-04-1.88624E-04-1.32770E-03 4.04153E-05 2.88055E-06



 n o d a l   p r i n t   o u t   f o r   t i m e  s t e p   14202                              ( at time 7.0997895E+00 )

 nodal point  x-disp     y-disp      z-disp      x-vel       y-vel       z-vel      x-accl      y-accl      z-accl      x-coor      y-coor      z-coor
    22626 -1.74513E-02 1.11496E+00-5.06946E-01-1.09571E-02 5.64050E-01 1.88603E-02 8.23846E-03 1.52341E-01 1.12821E-01 4.64192E+00-2.70759E+01-4.54887E+01



 n o d a l   p r i n t   o u t   f o r   t i m e  s t e p   14202                              ( at time 7.0997895E+00 )

 nodal point  x-rot      y-rot       z-rot       x-rot vel   y-rot vel   z-rot vel   x-rot acc   y-rot acc   z-rot acc
    22626 -8.26000E-03-2.74028E-04-4.79913E-04-4.37084E-03-1.09131E-04-1.88757E-04-1.33120E-03 1.31472E-04-1.32566E-06



 n o d a l   p r i n t   o u t   f o r   t i m e  s t e p   14402                              ( at time 7.1997794E+00 )

 nodal point  x-disp     y-disp      z-disp      x-vel       y-vel       z-vel      x-accl      y-accl      z-accl      x-coor      y-coor      z-coor
    22626 -1.85537E-02 1.17220E+00-5.04538E-01-1.05953E-02 5.80817E-01 2.94326E-02 3.61858E-03 1.67688E-01 1.05733E-01 4.64082E+00-2.70186E+01-4.54863E+01



 n o d a l   p r i n t   o u t   f o r   t i m e  s t e p   14402                              ( at time 7.1997794E+00 )

 nodal point  x-rot      y-rot       z-rot       x-rot vel   y-rot vel   z-rot vel   x-rot acc   y-rot acc   z-rot acc
    22626 -8.70411E-03-2.85184E-04-4.97501E-04-4.51487E-03-1.11090E-04-1.68718E-04-1.44041E-03-1.95948E-05 2.00412E-04



 n o d a l   p r i n t   o u t   f o r   t i m e  s t e p   14602                              ( at time 7.2997694E+00 )

 nodal point  x-disp     y-disp      z-disp      x-vel       y-vel       z-vel      x-accl      y-accl      z-accl      x-coor      y-coor      z-coor
    22626 -1.96653E-02 1.23107E+00-5.00926E-01-1.18638E-02 5.96500E-01 4.27973E-02-1.26859E-02 1.56847E-01 1.33661E-01 4.63971E+00-2.69598E+01-4.54826E+01



 n o d a l   p r i n t   o u t   f o r   t i m e  s t e p   14602                              ( at time 7.2997694E+00 )

 nodal point  x-rot      y-rot       z-rot       x-rot vel   y-rot vel   z-rot vel   x-rot acc   y-rot acc   z-rot acc
    22626 -9.16195E-03-2.96372E-04-5.14417E-04-4.65063E-03-1.15553E-04-1.76720E-04-1.35777E-03-4.46279E-05-8.00368E-05



 n o d a l   p r i n t   o u t   f o r   t i m e  s t e p   14802                              ( at time 7.3997594E+00 )

 nodal point  x-disp     y-disp      z-disp      x-vel       y-vel       z-vel      x-accl      y-accl      z-accl      x-coor      y-coor      z-coor
    22626 -2.09183E-02 1.29148E+00-4.95921E-01-1.26834E-02 6.11202E-01 5.72226E-02-8.19704E-03 1.47037E-01 1.44267E-01 4.63846E+00-2.68994E+01-4.54776E+01



 n o d a l   p r i n t   o u t   f o r   t i m e  s t e p   14802                              ( at time 7.3997594E+00 )

 nodal point  x-rot      y-rot       z-rot       x-rot vel   y-rot vel   z-rot vel   x-rot acc   y-rot acc   z-rot acc
    22626 -9.63413E-03-3.08272E-04-5.33275E-04-4.78990E-03-1.18276E-04-1.93029E-04-1.39290E-03-2.72359E-05-1.63103E-04



 n o d a l   p r i n t   o u t   f o r   t i m e  s t e p   15002                              ( at time 7.4997494E+00 )

 nodal point  x-disp     y-disp      z-disp      x-vel       y-vel       z-vel      x-accl      y-accl      z-accl      x-coor      y-coor      z-coor
    22626 -2.21497E-02 1.35336E+00-4.89472E-01-1.19819E-02 6.26756E-01 7.14988E-02 7.01554E-03 1.55555E-01 1.42777E-01 4.63723E+00-2.68375E+01-4.54712E+01



 n o d a l   p r i n t   o u t   f o r   t i m e  s t e p   15002                              ( at time 7.4997494E+00 )

 nodal point  x-rot      y-rot       z-rot       x-rot vel   y-rot vel   z-rot vel   x-rot acc   y-rot acc   z-rot acc
    22626 -1.01198E-02-3.18876E-04-5.50719E-04-4.92656E-03-9.98824E-05-1.66261E-04-1.36670E-03 1.83952E-04 2.67711E-04



 n o d a l   p r i n t   o u t   f o r   t i m e  s t e p   15202                              ( at time 7.5997394E+00 )

 nodal point  x-disp     y-disp      z-disp      x-vel       y-vel       z-vel      x-accl      y-accl      z-accl      x-coor      y-coor      z-coor
    22626 -2.33537E-02 1.41676E+00-4.81589E-01-1.24749E-02 6.40977E-01 8.59937E-02-4.92990E-03 1.42223E-01 1.44963E-01 4.63602E+00-2.67741E+01-4.54633E+01



 n o d a l   p r i n t   o u t   f o r   t i m e  s t e p   15202                              ( at time 7.5997394E+00 )

 nodal point  x-rot      y-rot       z-rot       x-rot vel   y-rot vel   z-rot vel   x-rot acc   y-rot acc   z-rot acc
    22626 -1.06185E-02-3.29423E-04-5.68029E-04-5.05285E-03-1.16656E-04-1.84587E-04-1.26305E-03-1.67752E-04-1.83283E-04



 n o d a l   p r i n t   o u t   f o r   t i m e  s t e p   15402                              ( at time 7.6997294E+00 )

 nodal point  x-disp     y-disp      z-disp      x-vel       y-vel       z-vel      x-accl      y-accl      z-accl      x-coor      y-coor      z-coor
    22626 -2.46937E-02 1.48164E+00-4.72258E-01-1.41424E-02 6.56457E-01 1.01002E-01-1.66770E-02 1.54815E-01 1.50100E-01 4.63468E+00-2.67092E+01-4.54540E+01



 n o d a l   p r i n t   o u t   f o r   t i m e  s t e p   15402                              ( at time 7.6997294E+00 )

 nodal point  x-rot      y-rot       z-rot       x-rot vel   y-rot vel   z-rot vel   x-rot acc   y-rot acc   z-rot acc
    22626 -1.11316E-02-3.41850E-04-5.87642E-04-5.20555E-03-1.18920E-04-1.89512E-04-1.52716E-03-2.26451E-05-4.92567E-05



 n o d a l   p r i n t   o u t   f o r   t i m e  s t e p   15602                              ( at time 7.7997194E+00 )

 nodal point  x-disp     y-disp      z-disp      x-vel       y-vel       z-vel      x-accl      y-accl      z-accl      x-coor      y-coor      z-coor
    22626 -2.60826E-02 1.54803E+00-4.61389E-01-1.35472E-02 6.71434E-01 1.16344E-01 5.95205E-03 1.49790E-01 1.53433E-01 4.63329E+00-2.66428E+01-4.54431E+01



 n o d a l   p r i n t   o u t   f o r   t i m e  s t e p   15602                              ( at time 7.7997194E+00 )

 nodal point  x-rot      y-rot       z-rot       x-rot vel   y-rot vel   z-rot vel   x-rot acc   y-rot acc   z-rot acc
    22626 -1.16592E-02-3.53014E-04-6.06424E-04-5.34225E-03-1.04972E-04-1.89602E-04-1.36707E-03 1.39500E-04-8.94742E-07



 n o d a l   p r i n t   o u t   f o r   t i m e  s t e p   15802                              ( at time 7.8997094E+00 )

 nodal point  x-disp     y-disp      z-disp      x-vel       y-vel       z-vel      x-accl      y-accl      z-accl      x-coor      y-coor      z-coor
    22626 -2.74616E-02 1.61592E+00-4.48944E-01-1.41607E-02 6.86488E-01 1.32545E-01-6.13471E-03 1.50552E-01 1.62029E-01 4.63191E+00-2.65749E+01-4.54307E+01



 n o d a l   p r i n t   o u t   f o r   t i m e  s t e p   15802                              ( at time 7.8997094E+00 )

 nodal point  x-rot      y-rot       z-rot       x-rot vel   y-rot vel   z-rot vel   x-rot acc   y-rot acc   z-rot acc
    22626 -1.21997E-02-3.64358E-04-6.26018E-04-5.47405E-03-1.23323E-04-2.06539E-04-1.31818E-03-1.83531E-04-1.69393E-04



 n o d a l   p r i n t   o u t   f o r   t i m e  s t e p   16002                              ( at time 7.9996994E+00 )

 nodal point  x-disp     y-disp      z-disp      x-vel       y-vel       z-vel      x-accl      y-accl      z-accl      x-coor      y-coor      z-coor
    22626 -2.89308E-02 1.68535E+00-4.34859E-01-1.54754E-02 7.01957E-01 1.48881E-01-1.31492E-02 1.54702E-01 1.63371E-01 4.63044E+00-2.65055E+01-4.54166E+01



 n o d a l   p r i n t   o u t   f o r   t i m e  s t e p   16002                              ( at time 7.9996994E+00 )

 nodal point  x-rot      y-rot       z-rot       x-rot vel   y-rot vel   z-rot vel   x-rot acc   y-rot acc   z-rot acc
    22626 -1.27542E-02-3.76835E-04-6.46849E-04-5.61504E-03-1.26170E-04-2.13115E-04-1.41002E-03-2.84695E-05-6.57664E-05



 n o d a l   p r i n t   o u t   f o r   t i m e  s t e p   16202                              ( at time 8.0996894E+00 )

 nodal point  x-disp     y-disp      z-disp      x-vel       y-vel       z-vel      x-accl      y-accl      z-accl      x-coor      y-coor      z-coor
    22626 -3.05124E-02 1.75627E+00-4.19145E-01-1.58043E-02 7.16132E-01 1.65173E-01-3.28922E-03 1.41766E-01 1.62936E-01 4.62886E+00-2.64346E+01-4.54009E+01



 n o d a l   p r i n t   o u t   f o r   t i m e  s t e p   16202                              ( at time 8.0996894E+00 )

 nodal point  x-rot      y-rot       z-rot       x-rot vel   y-rot vel   z-rot vel   x-rot acc   y-rot acc   z-rot acc
    22626 -1.33222E-02-3.90108E-04-6.69088E-04-5.76454E-03-1.35715E-04-2.25130E-04-1.49512E-03-9.54647E-05-1.20163E-04



 n o d a l   p r i n t   o u t   f o r   t i m e  s t e p   16402                              ( at time 8.1996794E+00 )

 nodal point  x-disp     y-disp      z-disp      x-vel       y-vel       z-vel      x-accl      y-accl      z-accl      x-coor      y-coor      z-coor
    22626 -3.21092E-02 1.82850E+00-4.01618E-01-1.61311E-02 7.29281E-01 1.84757E-01-3.26771E-03 1.31507E-01 1.95863E-01 4.62727E+00-2.63623E+01-4.53833E+01



 n o d a l   p r i n t   o u t   f o r   t i m e  s t e p   16402                              ( at time 8.1996794E+00 )

 nodal point  x-rot      y-rot       z-rot       x-rot vel   y-rot vel   z-rot vel   x-rot acc   y-rot acc   z-rot acc
    22626 -1.39050E-02-4.03668E-04-6.91524E-04-5.89634E-03-1.31936E-04-2.22913E-04-1.31815E-03 3.77927E-05 2.21759E-05



 n o d a l   p r i n t   o u t   f o r   t i m e  s t e p   16602                              ( at time 8.2996694E+00 )

 nodal point  x-disp     y-disp      z-disp      x-vel       y-vel       z-vel      x-accl      y-accl      z-accl      x-coor      y-coor      z-coor
    22626 -3.37222E-02 1.90219E+00-3.82298E-01-1.71298E-02 7.44132E-01 2.02548E-01-9.98784E-03 1.48518E-01 1.77925E-01 4.62565E+00-2.62886E+01-4.53640E+01



 n o d a l   p r i n t   o u t   f o r   t i m e  s t e p   16602                              ( at time 8.2996694E+00 )

 nodal point  x-rot      y-rot       z-rot       x-rot vel   y-rot vel   z-rot vel   x-rot acc   y-rot acc   z-rot acc
    22626 -1.45015E-02-4.17547E-04-7.15121E-04-6.01962E-03-1.54809E-04-2.46365E-04-1.23296E-03-2.28756E-04-2.34539E-04



 n o d a l   p r i n t   o u t   f o r   t i m e  s t e p   16802                              ( at time 8.3996594E+00 )

 nodal point  x-disp     y-disp      z-disp      x-vel       y-vel       z-vel      x-accl      y-accl      z-accl      x-coor      y-coor      z-coor
    22626 -3.55192E-02 1.97724E+00-3.61038E-01-1.83030E-02 7.57385E-01 2.22952E-01-1.17338E-02 1.32548E-01 2.04060E-01 4.62386E+00-2.62136E+01-4.53428E+01



 n o d a l   p r i n t   o u t   f o r   t i m e  s t e p   16802                              ( at time 8.3996594E+00 )

 nodal point  x-rot      y-rot       z-rot       x-rot vel   y-rot vel   z-rot vel   x-rot acc   y-rot acc   z-rot acc
    22626 -1.51117E-02-4.33785E-04-7.40394E-04-6.17649E-03-1.57099E-04-2.59774E-04-1.56885E-03-2.28986E-05-1.34112E-04



 n o d a l   p r i n t   o u t   f o r   t i m e  s t e p   17002                              ( at time 8.4996494E+00 )

 nodal point  x-disp     y-disp      z-disp      x-vel       y-vel       z-vel      x-accl      y-accl      z-accl      x-coor      y-coor      z-coor
    22626 -3.73337E-02 2.05371E+00-3.37846E-01-1.77838E-02 7.71689E-01 2.41232E-01 5.19280E-03 1.43051E-01 1.82822E-01 4.62204E+00-2.61371E+01-4.53196E+01



 n o d a l   p r i n t   o u t   f o r   t i m e  s t e p   17002                              ( at time 8.4996494E+00 )

 nodal point  x-rot      y-rot       z-rot       x-rot vel   y-rot vel   z-rot vel   x-rot acc   y-rot acc   z-rot acc
    22626 -1.57373E-02-4.49579E-04-7.66641E-04-6.32319E-03-1.52816E-04-2.62701E-04-1.46713E-03 4.28337E-05-2.92698E-05



 n o d a l   p r i n t   o u t   f o r   t i m e  s t e p   17202                              ( at time 8.5996394E+00 )

 nodal point  x-disp     y-disp      z-disp      x-vel       y-vel       z-vel      x-accl      y-accl      z-accl      x-coor      y-coor      z-coor
    22626 -3.91202E-02 2.13161E+00-3.12744E-01-1.86275E-02 7.86395E-01 2.61065E-01-8.43830E-03 1.47076E-01 1.98348E-01 4.62025E+00-2.60592E+01-4.52945E+01



 n o d a l   p r i n t   o u t   f o r   t i m e  s t e p   17202                              ( at time 8.5996394E+00 )

 nodal point  x-rot      y-rot       z-rot       x-rot vel   y-rot vel   z-rot vel   x-rot acc   y-rot acc   z-rot acc
    22626 -1.63767E-02-4.65656E-04-7.93378E-04-6.46785E-03-1.67358E-04-2.66722E-04-1.44676E-03-1.45436E-04-4.02110E-05



 n o d a l   p r i n t   o u t   f o r   t i m e  s t e p   17402                              ( at time 8.6996293E+00 )

 nodal point  x-disp     y-disp      z-disp      x-vel       y-vel       z-vel      x-accl      y-accl      z-accl      x-coor      y-coor      z-coor
    22626 -4.10483E-02 2.21087E+00-2.85558E-01-1.97446E-02 7.98487E-01 2.82419E-01-1.11721E-02 1.20931E-01 2.13557E-01 4.61833E+00-2.59800E+01-4.52673E+01



 n o d a l   p r i n t   o u t   f o r   t i m e  s t e p   17402                              ( at time 8.6996293E+00 )

 nodal point  x-rot      y-rot       z-rot       x-rot vel   y-rot vel   z-rot vel   x-rot acc   y-rot acc   z-rot acc
    22626 -1.70306E-02-4.83810E-04-8.21168E-04-6.61079E-03-1.90139E-04-2.95330E-04-1.42952E-03-2.27828E-04-2.86108E-04



 n o d a l   p r i n t   o u t   f o r   t i m e  s t e p   17602                              ( at time 8.7996193E+00 )

 nodal point  x-disp     y-disp      z-disp      x-vel       y-vel       z-vel      x-accl      y-accl      z-accl      x-coor      y-coor      z-coor
    22626 -4.30244E-02 2.29142E+00-2.56181E-01-1.93900E-02 8.12914E-01 3.04220E-01 3.54698E-03 1.44291E-01 2.18032E-01 4.61635E+00-2.58994E+01-4.52379E+01



 n o d a l   p r i n t   o u t   f o r   t i m e  s t e p   17602                              ( at time 8.7996193E+00 )

 nodal point  x-rot      y-rot       z-rot       x-rot vel   y-rot vel   z-rot vel   x-rot acc   y-rot acc   z-rot acc
    22626 -1.76985E-02-5.02434E-04-8.50729E-04-6.74950E-03-1.81824E-04-2.88191E-04-1.38724E-03 8.31550E-05 7.13966E-05



 n o d a l   p r i n t   o u t   f o r   t i m e  s t e p   17802                              ( at time 8.8996093E+00 )

 nodal point  x-disp     y-disp      z-disp      x-vel       y-vel       z-vel      x-accl      y-accl      z-accl      x-coor      y-coor      z-coor
    22626 -4.49477E-02 2.37341E+00-2.24705E-01-1.98234E-02 8.25818E-01 3.25784E-01-4.33479E-03 1.29054E-01 2.15662E-01 4.61443E+00-2.58174E+01-4.52064E+01



 n o d a l   p r i n t   o u t   f o r   t i m e  s t e p   17802                              ( at time 8.8996093E+00 )

 nodal point  x-rot      y-rot       z-rot       x-rot vel   y-rot vel   z-rot vel   x-rot acc   y-rot acc   z-rot acc
    22626 -1.83811E-02-5.19493E-04-8.78976E-04-6.89180E-03-1.70754E-04-2.76835E-04-1.42312E-03 1.10717E-04 1.13572E-04



 n o d a l   p r i n t   o u t   f o r   t i m e  s t e p   18002                              ( at time 8.9995993E+00 )

 nodal point  x-disp     y-disp      z-disp      x-vel       y-vel       z-vel      x-accl      y-accl      z-accl      x-coor      y-coor      z-coor
    22626 -4.69544E-02 2.45666E+00-1.90956E-01-1.99876E-02 8.39566E-01 3.48586E-01-1.64192E-03 1.37496E-01 2.28041E-01 4.61242E+00-2.57342E+01-4.51727E+01



 n o d a l   p r i n t   o u t   f o r   t i m e  s t e p   18002                              ( at time 8.9995993E+00 )

 nodal point  x-rot      y-rot       z-rot       x-rot vel   y-rot vel   z-rot vel   x-rot acc   y-rot acc   z-rot acc
    22626 -1.90779E-02-5.37822E-04-9.08090E-04-7.05526E-03-1.93240E-04-2.95934E-04-1.63475E-03-2.24882E-04-1.91006E-04



 n o d a l   p r i n t   o u t   f o r   t i m e  s t e p   18202                              ( at time 9.0995893E+00 )

 nodal point  x-disp     y-disp      z-disp      x-vel       y-vel       z-vel      x-accl      y-accl      z-accl      x-coor      y-coor      z-coor
    22626 -4.90614E-02 2.54125E+00-1.54899E-01-2.13116E-02 8.52037E-01 3.72709E-01-1.32415E-02 1.24716E-01 2.41259E-01 4.61031E+00-2.56496E+01-4.51366E+01



 n o d a l   p r i n t   o u t   f o r   t i m e  s t e p   18202                              ( at time 9.0995893E+00 )

 nodal point  x-rot      y-rot       z-rot       x-rot vel   y-rot vel   z-rot vel   x-rot acc   y-rot acc   z-rot acc
    22626 -1.97912E-02-5.56857E-04-9.37033E-04-7.19881E-03-1.75627E-04-2.89897E-04-1.43564E-03 1.76140E-04 6.03689E-05



 n o d a l   p r i n t   o u t   f o r   t i m e  s t e p   18402                              ( at time 9.1995793E+00 )

 nodal point  x-disp     y-disp      z-disp      x-vel       y-vel       z-vel      x-accl      y-accl      z-accl      x-coor      y-coor      z-coor
    22626 -5.11298E-02 2.62708E+00-1.16559E-01-2.06649E-02 8.65707E-01 3.94339E-01 6.46811E-03 1.36713E-01 2.16324E-01 4.60825E+00-2.55638E+01-4.50983E+01



 n o d a l   p r i n t   o u t   f o r   t i m e  s t e p   18402                              ( at time 9.1995793E+00 )

 nodal point  x-rot      y-rot       z-rot       x-rot vel   y-rot vel   z-rot vel   x-rot acc   y-rot acc   z-rot acc
    22626 -2.05172E-02-5.73899E-04-9.66219E-04-7.31895E-03-1.74404E-04-2.92778E-04-1.20153E-03 1.22318E-05-2.88099E-05



 n o d a l   p r i n t   o u t   f o r   t i m e  s t e p   18602                              ( at time 9.2995693E+00 )

 nodal point  x-disp     y-disp      z-disp      x-vel       y-vel       z-vel      x-accl      y-accl      z-accl      x-coor      y-coor      z-coor
    22626 -5.31789E-02 2.71423E+00-7.59422E-02-2.03571E-02 8.77060E-01 4.18575E-01 3.07822E-03 1.13548E-01 2.42377E-01 4.60620E+00-2.54766E+01-4.50577E+01



 n o d a l   p r i n t   o u t   f o r   t i m e  s t e p   18602                              ( at time 9.2995693E+00 )

 nodal point  x-rot      y-rot       z-rot       x-rot vel   y-rot vel   z-rot vel   x-rot acc   y-rot acc   z-rot acc
    22626 -2.12563E-02-5.91449E-04-9.94396E-04-7.48043E-03-1.70258E-04-2.82412E-04-1.61499E-03 4.14642E-05 1.03675E-04



 n o d a l   p r i n t   o u t   f o r   t i m e  s t e p   18802                              ( at time 9.3995593E+00 )

 nodal point  x-disp     y-disp      z-disp      x-vel       y-vel       z-vel      x-accl      y-accl      z-accl      x-coor      y-coor      z-coor
    22626 -5.52572E-02 2.80261E+00-3.28280E-02-2.06421E-02 8.90429E-01 4.42969E-01-2.85090E-03 1.33698E-01 2.43968E-01 4.60412E+00-2.53882E+01-4.50145E+01



 n o d a l   p r i n t   o u t   f o r   t i m e  s t e p   18802                              ( at time 9.3995593E+00 )

 nodal point  x-rot      y-rot       z-rot       x-rot vel   y-rot vel   z-rot vel   x-rot acc   y-rot acc   z-rot acc
    22626 -2.20118E-02-6.08617E-04-1.02197E-03-7.63887E-03-1.71539E-04-2.83182E-04-1.58453E-03-1.28070E-05-7.70078E-06



 n o d a l   p r i n t   o u t   f o r   t i m e  s t e p   19002                              ( at time 9.4995493E+00 )

 nodal point  x-disp     y-disp      z-disp      x-vel       y-vel       z-vel      x-accl      y-accl      z-accl      x-coor      y-coor      z-coor
    22626 -5.73151E-02 2.89230E+00 1.26430E-02-2.10881E-02 9.02761E-01 4.67394E-01-4.46046E-03 1.23335E-01 2.44271E-01 4.60206E+00-2.52985E+01-4.49691E+01



 n o d a l   p r i n t   o u t   f o r   t i m e  s t e p   19002                              ( at time 9.4995493E+00 )

 nodal point  x-rot      y-rot       z-rot       x-rot vel   y-rot vel   z-rot vel   x-rot acc   y-rot acc   z-rot acc
    22626 -2.27818E-02-6.25522E-04-1.04918E-03-7.76894E-03-1.70178E-04-2.55156E-04-1.30091E-03 1.36151E-05 2.80284E-04



 n o d a l   p r i n t   o u t   f o r   t i m e  s t e p   19202                              ( at time 9.5995393E+00 )

 nodal point  x-disp     y-disp      z-disp      x-vel       y-vel       z-vel      x-accl      y-accl      z-accl      x-coor      y-coor      z-coor
    22626 -5.93547E-02 2.98311E+00 6.06525E-02-1.92660E-02 9.13196E-01 4.91779E-01 1.82229E-02 1.04360E-01 2.43874E-01 4.60002E+00-2.52077E+01-4.49211E+01



 n o d a l   p r i n t   o u t   f o r   t i m e  s t e p   19202                              ( at time 9.5995393E+00 )

 nodal point  x-rot      y-rot       z-rot       x-rot vel   y-rot vel   z-rot vel   x-rot acc   y-rot acc   z-rot acc
    22626 -2.35643E-02-6.40993E-04-1.07506E-03-7.90141E-03-1.52905E-04-2.59943E-04-1.32476E-03 1.72742E-04-4.78717E-05



 n o d a l   p r i n t   o u t   f o r   t i m e  s t e p   19402                              ( at time 9.6995293E+00 )

 nodal point  x-disp     y-disp      z-disp      x-vel       y-vel       z-vel      x-accl      y-accl      z-accl      x-coor      y-coor      z-coor
    22626 -6.13195E-02 3.07504E+00 1.11056E-01-1.94969E-02 9.25536E-01 5.16982E-01-2.30883E-03 1.23413E-01 2.52062E-01 4.59806E+00-2.51158E+01-4.48707E+01



 n o d a l   p r i n t   o u t   f o r   t i m e  s t e p   19402                              ( at time 9.6995293E+00 )

 nodal point  x-rot      y-rot       z-rot       x-rot vel   y-rot vel   z-rot vel   x-rot acc   y-rot acc   z-rot acc
    22626 -2.43612E-02-6.56020E-04-1.09965E-03-8.04259E-03-1.54730E-04-2.39339E-04-1.41195E-03-1.82473E-05 2.06057E-04



 n o d a l   p r i n t   o u t   f o r   t i m e  s t e p   19602                              ( at time 9.7995193E+00 )

 nodal point  x-disp     y-disp      z-disp      x-vel       y-vel       z-vel      x-accl      y-accl      z-accl      x-coor      y-coor      z-coor
    22626 -6.32855E-02 3.16815E+00 1.64070E-01-1.99683E-02 9.36385E-01 5.42120E-01-4.71517E-03 1.08497E-01 2.51403E-01 4.59609E+00-2.50227E+01-4.48176E+01



 n o d a l   p r i n t   o u t   f o r   t i m e  s t e p   19602                              ( at time 9.7995193E+00 )

 nodal point  x-rot      y-rot       z-rot       x-rot vel   y-rot vel   z-rot vel   x-rot acc   y-rot acc   z-rot acc
    22626 -2.51726E-02-6.70676E-04-1.12318E-03-8.18885E-03-1.39361E-04-2.25708E-04-1.46271E-03 1.53703E-04 1.36323E-04



 n o d a l   p r i n t   o u t   f o r   t i m e  s t e p   19802                              ( at time 9.8995093E+00 )

 nodal point  x-disp     y-disp      z-disp      x-vel       y-vel       z-vel      x-accl      y-accl      z-accl      x-coor      y-coor      z-coor
    22626 -6.51766E-02 3.26236E+00 2.19483E-01-1.81111E-02 9.48059E-01 5.65885E-01 1.85742E-02 1.16753E-01 2.37670E-01 4.59420E+00-2.49285E+01-4.47622E+01



 n o d a l   p r i n t   o u t   f o r   t i m e  s t e p   19802                              ( at time 9.8995093E+00 )

 nodal point  x-rot      y-rot       z-rot       x-rot vel   y-rot vel   z-rot vel   x-rot acc   y-rot acc   z-rot acc
    22626 -2.59970E-02-6.82743E-04-1.14502E-03-8.31881E-03-9.62865E-05-2.08657E-04-1.29973E-03 4.30786E-04 1.70533E-04



 n o d a l   p r i n t   o u t   f o r   t i m e  s t e p   20003                              ( at time 9.9999992E+00 )

 nodal point  x-disp     y-disp      z-disp      x-vel       y-vel       z-vel      x-accl      y-accl      z-accl      x-coor      y-coor      z-coor
[...]
    22626 -1.98853E-01 7.08437E-04-1.29161E-03-1.67564E-02-2.06054E-04-1.30040E-04-1.13036E-04-3.44665E-04-1.50286E-05



 n o d a l   p r i n t   o u t   f o r   t i m e  s t e p   45205                              ( at time 2.2599738E+01 )

 nodal point  x-disp     y-disp      z-disp      x-vel       y-vel       z-vel      x-accl      y-accl      z-accl      x-coor      y-coor      z-coor
    22626 -1.78142E-01 1.96586E+01 1.69061E+01-1.03556E-04 1.65522E+00 8.00915E-01 3.59882E-04 3.23134E-02-5.23931E-02 4.48123E+00-8.53226E+00-2.80756E+01



 n o d a l   p r i n t   o u t   f o r   t i m e  s t e p   45205                              ( at time 2.2599738E+01 )

 nodal point  x-rot      y-rot       z-rot       x-rot vel   y-rot vel   z-rot vel   x-rot acc   y-rot acc   z-rot acc
    22626 -2.00528E-01 6.88158E-04-1.30545E-03-1.67477E-02-1.97292E-04-1.47330E-04 8.65278E-05 8.76251E-05-1.72914E-04



 n o d a l   p r i n t   o u t   f o r   t i m e  s t e p   45405                              ( at time 2.2699728E+01 )

 nodal point  x-disp     y-disp      z-disp      x-vel       y-vel       z-vel      x-accl      y-accl      z-accl      x-coor      y-coor      z-coor
    22626 -1.78077E-01 1.98242E+01 1.69859E+01 1.31628E-03 1.65854E+00 7.95765E-01 1.42000E-02 3.31975E-02-5.15029E-02 4.48130E+00-8.36659E+00-2.79958E+01



 n o d a l   p r i n t   o u t   f o r   t i m e  s t e p   45405                              ( at time 2.2699728E+01 )

 nodal point  x-rot      y-rot       z-rot       x-rot vel   y-rot vel   z-rot vel   x-rot acc   y-rot acc   z-rot acc
    22626 -2.02201E-01 6.68323E-04-1.31909E-03-1.67246E-02-2.00760E-04-1.29034E-04 2.31608E-04-3.46771E-05 1.82977E-04



 n o d a l   p r i n t   o u t   f o r   t i m e  s t e p   45605                              ( at time 2.2799718E+01 )

 nodal point  x-disp     y-disp      z-disp      x-vel       y-vel       z-vel      x-accl      y-accl      z-accl      x-coor      y-coor      z-coor
    22626 -1.78007E-01 1.99901E+01 1.70653E+01-1.81415E-04 1.65990E+00 7.91873E-01-1.49784E-02 1.36257E-02-3.89248E-02 4.48137E+00-8.20071E+00-2.79164E+01



 n o d a l   p r i n t   o u t   f o r   t i m e  s t e p   45605                              ( at time 2.2799718E+01 )

 nodal point  x-rot      y-rot       z-rot       x-rot vel   y-rot vel   z-rot vel   x-rot acc   y-rot acc   z-rot acc
    22626 -2.03874E-01 6.48620E-04-1.33195E-03-1.67181E-02-2.00869E-04-1.36406E-04 6.45093E-05-1.09149E-06-7.37215E-05



 n o d a l   p r i n t   o u t   f o r   t i m e  s t e p   45805                              ( at time 2.2899708E+01 )

 nodal point  x-disp     y-disp      z-disp      x-vel       y-vel       z-vel      x-accl      y-accl      z-accl      x-coor      y-coor      z-coor
    22626 -1.78056E-01 2.01562E+01 1.71443E+01 1.70017E-04 1.66237E+00 7.88139E-01 3.51471E-03 2.47351E-02-3.73458E-02 4.48132E+00-8.03463E+00-2.78374E+01



 n o d a l   p r i n t   o u t   f o r   t i m e  s t e p   45805                              ( at time 2.2899708E+01 )

 nodal point  x-rot      y-rot       z-rot       x-rot vel   y-rot vel   z-rot vel   x-rot acc   y-rot acc   z-rot acc
    22626 -2.05544E-01 6.27718E-04-1.34616E-03-1.66940E-02-2.19909E-04-1.50272E-04 2.40978E-04-1.90425E-04-1.38675E-04



 n o d a l   p r i n t   o u t   f o r   t i m e  s t e p   46005                              ( at time 2.2999698E+01 )

 nodal point  x-disp     y-disp      z-disp      x-vel       y-vel       z-vel      x-accl      y-accl      z-accl      x-coor      y-coor      z-coor
    22626 -1.77942E-01 2.03225E+01 1.72229E+01 1.01953E-03 1.66320E+00 7.85262E-01 8.49594E-03 8.28580E-03-2.87678E-02 4.48143E+00-7.86834E+00-2.77588E+01



 n o d a l   p r i n t   o u t   f o r   t i m e  s t e p   46005                              ( at time 2.2999698E+01 )

 nodal point  x-rot      y-rot       z-rot       x-rot vel   y-rot vel   z-rot vel   x-rot acc   y-rot acc   z-rot acc
    22626 -2.07213E-01 6.05886E-04-1.35958E-03-1.66888E-02-2.13712E-04-1.24554E-04 5.22520E-05 6.19763E-05 2.57196E-04



 n o d a l   p r i n t   o u t   f o r   t i m e  s t e p   46205                              ( at time 2.3099688E+01 )

 nodal point  x-disp     y-disp      z-disp      x-vel       y-vel       z-vel      x-accl      y-accl      z-accl      x-coor      y-coor      z-coor
    22626 -1.77809E-01 2.04888E+01 1.73013E+01 1.57607E-03 1.66373E+00 7.83007E-01 5.56594E-03 5.30182E-03-2.25545E-02 4.48157E+00-7.70205E+00-2.76804E+01



 n o d a l   p r i n t   o u t   f o r   t i m e  s t e p   46205                              ( at time 2.3099688E+01 )

 nodal point  x-rot      y-rot       z-rot       x-rot vel   y-rot vel   z-rot vel   x-rot acc   y-rot acc   z-rot acc
    22626 -2.08878E-01 5.84261E-04-1.37322E-03-1.66272E-02-2.25777E-04-1.49947E-04 6.16157E-04-1.20664E-04-2.53951E-04



 n o d a l   p r i n t   o u t   f o r   t i m e  s t e p   46405                              ( at time 2.3199678E+01 )

 nodal point  x-disp     y-disp      z-disp      x-vel       y-vel       z-vel      x-accl      y-accl      z-accl      x-coor      y-coor      z-coor
    22626 -1.77681E-01 2.06552E+01 1.73795E+01 1.07028E-03 1.66389E+00 7.81712E-01-5.05834E-03 1.61186E-03-1.29551E-02 4.48169E+00-7.53563E+00-2.76022E+01



 n o d a l   p r i n t   o u t   f o r   t i m e  s t e p   46405                              ( at time 2.3199678E+01 )

 nodal point  x-rot      y-rot       z-rot       x-rot vel   y-rot vel   z-rot vel   x-rot acc   y-rot acc   z-rot acc
    22626 -2.10539E-01 5.60041E-04-1.38795E-03-1.65942E-02-2.43742E-04-1.44974E-04 3.30221E-04-1.79664E-04 4.97293E-05



 n o d a l   p r i n t   o u t   f o r   t i m e  s t e p   46605                              ( at time 2.3299668E+01 )

 nodal point  x-disp     y-disp      z-disp      x-vel       y-vel       z-vel      x-accl      y-accl      z-accl      x-coor      y-coor      z-coor
    22626 -1.77549E-01 2.08216E+01 1.74577E+01 1.59228E-03 1.66421E+00 7.81354E-01 5.22059E-03 3.14509E-03-3.57608E-03 4.48183E+00-7.36925E+00-2.75240E+01



 n o d a l   p r i n t   o u t   f o r   t i m e  s t e p   46605                              ( at time 2.3299668E+01 )

 nodal point  x-rot      y-rot       z-rot       x-rot vel   y-rot vel   z-rot vel   x-rot acc   y-rot acc   z-rot acc
    22626 -2.12197E-01 5.35292E-04-1.40192E-03-1.65693E-02-2.57494E-04-1.47316E-04 2.48728E-04-1.37533E-04-2.34245E-05



 n o d a l   p r i n t   o u t   f o r   t i m e  s t e p   46805                              ( at time 2.3399658E+01 )

 nodal point  x-disp     y-disp      z-disp      x-vel       y-vel       z-vel      x-accl      y-accl      z-accl      x-coor      y-coor      z-coor
    22626 -1.77325E-01 2.09880E+01 1.75358E+01 2.41531E-03 1.66411E+00 7.81776E-01 8.23103E-03-9.74029E-04 4.21920E-03 4.48205E+00-7.20283E+00-2.74459E+01



 n o d a l   p r i n t   o u t   f o r   t i m e  s t e p   46805                              ( at time 2.3399658E+01 )

 nodal point  x-rot      y-rot       z-rot       x-rot vel   y-rot vel   z-rot vel   x-rot acc   y-rot acc   z-rot acc
    22626 -2.13851E-01 5.09649E-04-1.41652E-03-1.65202E-02-2.52206E-04-1.39457E-04 4.90852E-04 5.28853E-05 7.85995E-05



 n o d a l   p r i n t   o u t   f o r   t i m e  s t e p   47005                              ( at time 2.3499648E+01 )

 nodal point  x-disp     y-disp      z-disp      x-vel       y-vel       z-vel      x-accl      y-accl      z-accl      x-coor      y-coor      z-coor
    22626 -1.77123E-01 2.11544E+01 1.76140E+01 1.98701E-03 1.66314E+00 7.83191E-01-4.28341E-03-9.65207E-03 1.41508E-02 4.48225E+00-7.03648E+00-2.73677E+01



 n o d a l   p r i n t   o u t   f o r   t i m e  s t e p   47005                              ( at time 2.3499648E+01 )

 nodal point  x-rot      y-rot       z-rot       x-rot vel   y-rot vel   z-rot vel   x-rot acc   y-rot acc   z-rot acc
    22626 -2.15501E-01 4.83810E-04-1.43013E-03-1.64752E-02-2.71670E-04-1.47775E-04 4.49870E-04-1.94663E-04-8.31848E-05



 n o d a l   p r i n t   o u t   f o r   t i m e  s t e p   47205                              ( at time 2.3599638E+01 )

 nodal point  x-disp     y-disp      z-disp      x-vel       y-vel       z-vel      x-accl      y-accl      z-accl      x-coor      y-coor      z-coor
    22626 -1.76961E-01 2.13205E+01 1.76924E+01 1.87430E-03 1.66179E+00 7.85193E-01-1.12717E-03-1.35675E-02 2.00228E-02 4.48241E+00-6.87029E+00-2.72893E+01



 n o d a l   p r i n t   o u t   f o r   t i m e  s t e p   47205                              ( at time 2.3599638E+01 )

 nodal point  x-rot      y-rot       z-rot       x-rot vel   y-rot vel   z-rot vel   x-rot acc   y-rot acc   z-rot acc
    22626 -2.17146E-01 4.54945E-04-1.44538E-03-1.64310E-02-2.96781E-04-1.44834E-04 4.42818E-04-2.51135E-04 2.94170E-05



 n o d a l   p r i n t   o u t   f o r   t i m e  s t e p   47405                              ( at time 2.3699628E+01 )

 nodal point  x-disp     y-disp      z-disp      x-vel       y-vel       z-vel      x-accl      y-accl      z-accl      x-coor      y-coor      z-coor
    22626 -1.76656E-01 2.14867E+01 1.77711E+01 3.14927E-03 1.66105E+00 7.88114E-01 1.27508E-02-7.32251E-03 2.92119E-02 4.48272E+00-6.70416E+00-2.72106E+01



 n o d a l   p r i n t   o u t   f o r   t i m e  s t e p   47405                              ( at time 2.3699628E+01 )

 nodal point  x-rot      y-rot       z-rot       x-rot vel   y-rot vel   z-rot vel   x-rot acc   y-rot acc   z-rot acc
    22626 -2.18787E-01 4.26467E-04-1.45909E-03-1.63857E-02-2.81519E-04-1.22803E-04 4.52888E-04 1.52635E-04 2.20330E-04



 n o d a l   p r i n t   o u t   f o r   t i m e  s t e p   47605                              ( at time 2.3799618E+01 )

 nodal point  x-disp     y-disp      z-disp      x-vel       y-vel       z-vel      x-accl      y-accl      z-accl      x-coor      y-coor      z-coor
    22626 -1.76359E-01 2.16526E+01 1.78500E+01 2.94698E-03 1.65845E+00 7.91464E-01-2.02305E-03-2.60763E-02 3.35021E-02 4.48302E+00-6.53818E+00-2.71317E+01



 n o d a l   p r i n t   o u t   f o r   t i m e  s t e p   47605                              ( at time 2.3799618E+01 )

 nodal point  x-rot      y-rot       z-rot       x-rot vel   y-rot vel   z-rot vel   x-rot acc   y-rot acc   z-rot acc
    22626 -2.20422E-01 3.96856E-04-1.47304E-03-1.63343E-02-3.14420E-04-1.52177E-04 5.14017E-04-3.29046E-04-2.93779E-04



 n o d a l   p r i n t   o u t   f o r   t i m e  s t e p   47805                              ( at time 2.3899608E+01 )

 nodal point  x-disp     y-disp      z-disp      x-vel       y-vel       z-vel      x-accl      y-accl      z-accl      x-coor      y-coor      z-coor
    22626 -1.76077E-01 2.18184E+01 1.79295E+01 2.72386E-03 1.65624E+00 7.96522E-01-2.23144E-03-2.20617E-02 5.05887E-02 4.48330E+00-6.37246E+00-2.70523E+01



 n o d a l   p r i n t   o u t   f o r   t i m e  s t e p   47805                              ( at time 2.3899608E+01 )

 nodal point  x-rot      y-rot       z-rot       x-rot vel   y-rot vel   z-rot vel   x-rot acc   y-rot acc   z-rot acc
    22626 -2.22052E-01 3.64863E-04-1.48794E-03-1.62899E-02-3.17584E-04-1.38125E-04 4.43555E-04-3.16481E-05 1.40531E-04



 n o d a l   p r i n t   o u t   f o r   t i m e  s t e p   48005                              ( at time 2.3999598E+01 )

 nodal point  x-disp     y-disp      z-disp      x-vel       y-vel       z-vel      x-accl      y-accl      z-accl      x-coor      y-coor      z-coor
    22626 -1.75769E-01 2.19839E+01 1.80093E+01 3.68555E-03 1.65414E+00 8.01457E-01 9.61799E-03-2.09796E-02 4.93599E-02 4.48361E+00-6.20697E+00-2.69724E+01



 n o d a l   p r i n t   o u t   f o r   t i m e  s t e p   48005                              ( at time 2.3999598E+01 )

 nodal point  x-rot      y-rot       z-rot       x-rot vel   y-rot vel   z-rot vel   x-rot acc   y-rot acc   z-rot acc
    22626 -2.23679E-01 3.33433E-04-1.50157E-03-1.62446E-02-3.18254E-04-1.36232E-04 4.52971E-04-6.69346E-06 1.89363E-05



 n o d a l   p r i n t   o u t   f o r   t i m e  s t e p   48205                              ( at time 2.4099588E+01 )

 nodal point  x-disp     y-disp      z-disp      x-vel       y-vel       z-vel      x-accl      y-accl      z-accl      x-coor      y-coor      z-coor
    22626 -1.75442E-01 2.21491E+01 1.80897E+01 2.94416E-03 1.65097E+00 8.06721E-01-7.41464E-03-3.16935E-02 5.26447E-02 4.48393E+00-6.04173E+00-2.68920E+01



 n o d a l   p r i n t   o u t   f o r   t i m e  s t e p   48205                              ( at time 2.4099588E+01 )

 nodal point  x-rot      y-rot       z-rot       x-rot vel   y-rot vel   z-rot vel   x-rot acc   y-rot acc   z-rot acc
    22626 -2.25300E-01 3.01074E-04-1.51538E-03-1.61754E-02-3.17305E-04-1.39851E-04 6.92744E-04 9.48406E-06-3.61932E-05



 n o d a l   p r i n t   o u t   f o r   t i m e  s t e p   48405                              ( at time 2.4199578E+01 )

 nodal point  x-disp     y-disp      z-disp      x-vel       y-vel       z-vel      x-accl      y-accl      z-accl      x-coor      y-coor      z-coor
    22626 -1.75183E-01 2.23140E+01 1.81707E+01 2.64163E-03 1.64753E+00 8.12122E-01-3.02558E-03-3.44243E-02 5.40161E-02 4.48419E+00-5.87683E+00-2.68110E+01



 n o d a l   p r i n t   o u t   f o r   t i m e  s t e p   48405                              ( at time 2.4199578E+01 )

 nodal point  x-rot      y-rot       z-rot       x-rot vel   y-rot vel   z-rot vel   x-rot acc   y-rot acc   z-rot acc
    22626 -2.26915E-01 2.69115E-04-1.52934E-03-1.61283E-02-3.20395E-04-1.39366E-04 4.70687E-04-3.08992E-05 4.85535E-06



 n o d a l   p r i n t   o u t   f o r   t i m e  s t e p   48605                              ( at time 2.4299568E+01 )

 nodal point  x-disp     y-disp      z-disp      x-vel       y-vel       z-vel      x-accl      y-accl      z-accl      x-coor      y-coor      z-coor
    22626 -1.74884E-01 2.24786E+01 1.82523E+01 3.00755E-03 1.64421E+00 8.20183E-01 3.65952E-03-3.32374E-02 8.06173E-02 4.48449E+00-5.71226E+00-2.67294E+01



 n o d a l   p r i n t   o u t   f o r   t i m e  s t e p   48605                              ( at time 2.4299568E+01 )

 nodal point  x-rot      y-rot       z-rot       x-rot vel   y-rot vel   z-rot vel   x-rot acc   y-rot acc   z-rot acc
    22626 -2.28526E-01 2.36852E-04-1.54315E-03-1.60768E-02-3.22321E-04-1.27736E-04 5.15329E-04-1.92659E-05 1.16304E-04



 n o d a l   p r i n t   o u t   f o r   t i m e  s t e p   48805                              ( at time 2.4399558E+01 )

 nodal point  x-disp     y-disp      z-disp      x-vel       y-vel       z-vel      x-accl      y-accl      z-accl      x-coor      y-coor      z-coor
    22626 -1.74579E-01 2.26428E+01 1.83346E+01 3.44699E-03 1.64066E+00 8.25949E-01 4.39482E-03-3.54752E-02 5.76603E-02 4.48480E+00-5.54802E+00-2.66471E+01



 n o d a l   p r i n t   o u t   f o r   t i m e  s t e p   48805                              ( at time 2.4399558E+01 )

 nodal point  x-rot      y-rot       z-rot       x-rot vel   y-rot vel   z-rot vel   x-rot acc   y-rot acc   z-rot acc
    22626 -2.30131E-01 2.04339E-04-1.55585E-03-1.60251E-02-3.30551E-04-1.32452E-04 5.16633E-04-8.23108E-05-4.71573E-05



 n o d a l   p r i n t   o u t   f o r   t i m e  s t e p   49006                              ( at time 2.4500048E+01 )

 nodal point  x-disp     y-disp      z-disp      x-vel       y-vel       z-vel      x-accl      y-accl      z-accl      x-coor      y-coor      z-coor
    22626 -1.74259E-01 2.28074E+01 1.84179E+01 2.52694E-03 1.63589E+00 8.33143E-01-9.15574E-03-4.75254E-02 7.15912E-02 4.48512E+00-5.38339E+00-2.65638E+01



 n o d a l   p r i n t   o u t   f o r   t i m e  s t e p   49006                              ( at time 2.4500048E+01 )

 nodal point  x-rot      y-rot       z-rot       x-rot vel   y-rot vel   z-rot vel   x-rot acc   y-rot acc   z-rot acc
    22626 -2.31738E-01 1.71858E-04-1.56922E-03-1.59628E-02-3.22995E-04-1.32649E-04 6.19821E-04 7.51951E-05-1.96625E-06



 n o d a l   p r i n t   o u t   f o r   t i m e  s t e p   49206                              ( at time 2.4600038E+01 )

 nodal point  x-disp     y-disp      z-disp      x-vel       y-vel       z-vel      x-accl      y-accl      z-accl      x-coor      y-coor      z-coor
    22626 -1.74013E-01 2.29708E+01 1.85017E+01 2.43970E-03 1.63130E+00 8.41950E-01-8.72503E-04-4.58402E-02 8.80769E-02 4.48536E+00-5.22002E+00-2.64800E+01



 n o d a l   p r i n t   o u t   f o r   t i m e  s t e p   49206                              ( at time 2.4600038E+01 )

 nodal point  x-rot      y-rot       z-rot       x-rot vel   y-rot vel   z-rot vel   x-rot acc   y-rot acc   z-rot acc
    22626 -2.33332E-01 1.40041E-04-1.58202E-03-1.59157E-02-3.24247E-04-1.27071E-04 4.71143E-04-1.25199E-05 5.57820E-05



 n o d a l   p r i n t   o u t   f o r   t i m e  s t e p   49406                              ( at time 2.4700028E+01 )

 nodal point  x-disp     y-disp      z-disp      x-vel       y-vel       z-vel      x-accl      y-accl      z-accl      x-coor      y-coor      z-coor
    22626 -1.73731E-01 2.31337E+01 1.85863E+01 3.27141E-03 1.62694E+00 8.50453E-01 8.31803E-03-4.36175E-02 8.50384E-02 4.48564E+00-5.05713E+00-2.63954E+01



 n o d a l   p r i n t   o u t   f o r   t i m e  s t e p   49406                              ( at time 2.4700028E+01 )

 nodal point  x-rot      y-rot       z-rot       x-rot vel   y-rot vel   z-rot vel   x-rot acc   y-rot acc   z-rot acc
    22626 -2.34921E-01 1.07460E-04-1.59459E-03-1.58583E-02-3.18102E-04-1.24868E-04 5.74392E-04 6.14543E-05 2.20383E-05



 n o d a l   p r i n t   o u t   f o r   t i m e  s t e p   49606                              ( at time 2.4800018E+01 )

 nodal point  x-disp     y-disp      z-disp      x-vel       y-vel       z-vel      x-accl      y-accl      z-accl      x-coor      y-coor      z-coor
    22626 -1.73475E-01 2.32962E+01 1.86717E+01 2.32045E-03 1.62227E+00 8.58877E-01-9.51054E-03-4.67164E-02 8.42517E-02 4.48590E+00-4.89467E+00-2.63100E+01



 n o d a l   p r i n t   o u t   f o r   t i m e  s t e p   49606                              ( at time 2.4800018E+01 )

 nodal point  x-rot      y-rot       z-rot       x-rot vel   y-rot vel   z-rot vel   x-rot acc   y-rot acc   z-rot acc
    22626 -2.36504E-01 7.64464E-05-1.60636E-03-1.58020E-02-3.13604E-04-1.24190E-04 5.63166E-04 4.49911E-05 6.77701E-06



 n o d a l   p r i n t   o u t   f o r   t i m e  s t e p   49806                              ( at time 2.4900008E+01 )

 nodal point  x-disp     y-disp      z-disp      x-vel       y-vel       z-vel      x-accl      y-accl      z-accl      x-coor      y-coor      z-coor
    22626 -1.73258E-01 2.34581E+01 1.87581E+01 1.99980E-03 1.61668E+00 8.69312E-01-3.20682E-03-5.59547E-02 1.04361E-01 4.48612E+00-4.73274E+00-2.62236E+01



 n o d a l   p r i n t   o u t   f o r   t i m e  s t e p   49806                              ( at time 2.4900008E+01 )

 nodal point  x-rot      y-rot       z-rot       x-rot vel   y-rot vel   z-rot vel   x-rot acc   y-rot acc   z-rot acc
    22626 -2.38081E-01 4.41186E-05-1.61906E-03-1.57481E-02-3.26481E-04-1.29435E-04 5.39053E-04-1.28791E-04-5.24496E-05



 n o d a l   p r i n t   o u t   f o r   t i m e  s t e p   50006                              ( at time 2.4999998E+01 )

 nodal point  x-disp     y-disp      z-disp      x-vel       y-vel       z-vel      x-accl      y-accl      z-accl      x-coor      y-coor      z-coor
    22626 -1.73004E-01 2.36195E+01 1.88455E+01 2.29971E-03 1.61129E+00 8.78262E-01 2.99934E-03-5.39054E-02 8.95046E-02 4.48637E+00-4.57136E+00-2.61362E+01



 n o d a l   p r i n t   o u t   f o r   t i m e  s t e p   50006                              ( at time 2.4999998E+01 )

 nodal point  x-rot      y-rot       z-rot       x-rot vel   y-rot vel   z-rot vel   x-rot acc   y-rot acc   z-rot acc
    22626 -2.39653E-01 1.27366E-05-1.63131E-03-1.57011E-02-3.04358E-04-1.13821E-04 4.70082E-04 2.21254E-04 1.56147E-04
