 LSTC 50th% Full_FE H-III Dummy (Beta Version, February 17, 2019)        
                    ls-dyna smp s R16 R16.0_619_d222963 date 03/18/2025

{BEGIN LEGEND}
 Entity #        Title
        1     Upper_Neck_Force_INJURY                                              
{END LEGEND}



 line#1  section#     time        x-force     y-force     z-force    magnitude
 line#2  resultant  moments       x-moment    y-moment    z-moment   magnitude
 line#3  centroids                x           y           z            area  
           1    0.00000E+00     0.0000E+00  0.0000E+00  0.0000E+00  0.0000E+00
ac ID =   33377                 0.0000E+00  0.0000E+00  0.0000E+00  0.0000E+00
                               -3.7437E-01  1.0501E+01 -4.6940E+01  0.0000E+00

           1    1.00490E-01     1.3597E-04 -4.9878E-03  2.5982E-01  2.5987E-01
ac ID =   33377                 4.2549E-01 -1.2522E+00 -2.7108E-02  1.3227E+00
                               -3.7387E-01  1.0590E+01 -4.6886E+01  2.5147E+03

           1    2.00480E-01    -4.4429E-02  4.0909E-04  4.4105E-01  4.4328E-01
ac ID =   33377                 2.9959E-01 -1.5963E+00  2.2905E-02  1.6243E+00
                               -3.7386E-01  1.0591E+01 -4.6888E+01  2.5147E+03

           1    3.00470E-01     1.4795E-02 -3.2039E-03  2.1735E-01  2.1788E-01
ac ID =   33377                 2.8158E-02 -3.3806E-01  6.4006E-02  3.4521E-01
                               -3.7382E-01  1.0591E+01 -4.6889E+01  2.5147E+03

           1    4.00460E-01     2.2884E-03  1.0668E-02  8.7981E-02  8.8655E-02
ac ID =   33377                -4.9729E-01 -9.4584E-01 -3.3931E-04  1.0686E+00
                               -3.7384E-01  1.0592E+01 -4.6890E+01  2.5147E+03

           1    5.00450E-01    -4.0516E-02  4.3617E-03  1.6210E-01  1.6714E-01
ac ID =   33377                -3.9568E-01 -1.5088E+00 -1.1142E-01  1.5638E+00
                               -3.7385E-01  1.0594E+01 -4.6893E+01  2.5147E+03

           1    6.00440E-01    -1.1356E-02  3.9854E-03  3.4445E-01  3.4466E-01
ac ID =   33377                 9.8014E-02 -1.3428E+00 -3.7212E-02  1.3469E+00
                               -3.7385E-01  1.0595E+01 -4.6897E+01  2.5147E+03

           1    7.00430E-01     1.6978E-03 -5.4959E-03  2.9677E-01  2.9682E-01
ac ID =   33377                 1.2663E-01 -5.3362E-01  9.1661E-02  5.5605E-01
                               -3.7389E-01  1.0597E+01 -4.6901E+01  2.5147E+03

           1    8.00420E-01    -3.0361E-02 -1.2431E-03  1.0245E-01  1.0686E-01
ac ID =   33377                 7.5013E-02 -1.0577E+00  3.9041E-02  1.0611E+00
                               -3.7393E-01  1.0599E+01 -4.6905E+01  2.5147E+03

           1    9.00410E-01    -3.9396E-02  8.7384E-04  6.3897E-02  7.5071E-02
ac ID =   33377                 8.3525E-02 -1.0846E+00 -6.8237E-03  1.0878E+00
                               -3.7397E-01  1.0601E+01 -4.6909E+01  2.5147E+03

           1    1.00040E+00     1.2844E-02 -2.7141E-03  2.2418E-01  2.2457E-01
ac ID =   33377                 3.3577E-01 -3.5538E-01 -5.7385E-02  4.9227E-01
                               -3.7397E-01  1.0604E+01 -4.6915E+01  2.5147E+03

           1    1.10039E+00     2.2499E-04 -1.8787E-03  2.7759E-01  2.7760E-01
ac ID =   33377                 2.9890E-01 -9.4686E-01 -6.1092E-02  9.9479E-01
                               -3.7396E-01  1.0607E+01 -4.6921E+01  2.5147E+03

           1    1.20038E+00    -3.2096E-02  5.3179E-04  1.3497E-01  1.3874E-01
ac ID =   33377                -1.9188E-01 -1.1905E+00 -5.3892E-03  1.2059E+00
                               -3.7395E-01  1.0609E+01 -4.6926E+01  2.5147E+03

           1    1.30037E+00    -1.2984E-02  6.7216E-03  8.2098E-02  8.3390E-02
ac ID =   33377                -3.9828E-01 -9.8217E-01 -5.0207E-02  1.0610E+00
                               -3.7394E-01  1.0612E+01 -4.6933E+01  2.5147E+03

           1    1.40036E+00     2.1043E-03  8.2689E-03  1.8510E-01  1.8530E-01
ac ID =   33377                -4.4431E-01 -9.8631E-01  7.3947E-02  1.0843E+00
                               -3.7388E-01  1.0615E+01 -4.6940E+01  2.5147E+03

           1    1.50035E+00    -2.5912E-02  5.8497E-04  3.4291E-01  3.4389E-01
ac ID =   33377                -7.2269E-02 -1.7025E+00 -1.1004E-01  1.7076E+00
                               -3.7382E-01  1.0619E+01 -4.6947E+01  2.5147E+03

           1    1.60034E+00    -1.7464E-02 -2.4545E-04  2.3238E-01  2.3303E-01
ac ID =   33377                -1.0944E-01 -1.4130E+00 -2.9279E-02  1.4175E+00
                               -3.7379E-01  1.0622E+01 -4.6955E+01  2.5147E+03

           1    1.70033E+00    -6.0148E-03  1.2332E-02  6.9374E-02  7.0717E-02
ac ID =   33377                -4.1002E-01 -7.6255E-01  1.1116E-01  8.7290E-01
                               -3.7373E-01  1.0626E+01 -4.6962E+01  2.5147E+03

           1    1.80032E+00    -2.2221E-02 -1.7147E-03  8.8355E-02  9.1122E-02
ac ID =   33377                 1.0392E-01 -1.1822E+00  6.1861E-03  1.1868E+00
                               -3.7363E-01  1.0630E+01 -4.6971E+01  2.5147E+03

           1    1.90031E+00    -1.2691E-02 -2.9986E-03  2.0296E-01  2.0338E-01
ac ID =   33377                 1.4315E-01 -9.5060E-01 -8.5450E-02  9.6511E-01
                               -3.7349E-01  1.0634E+01 -4.6980E+01  2.5147E+03

           1    2.00030E+00    -8.0199E-03 -2.5781E-03  1.6747E-01  1.6768E-01
ac ID =   33377                 4.2140E-02 -7.4384E-01 -1.6257E-01  7.6256E-01
                               -3.7339E-01  1.0638E+01 -4.6989E+01  2.5147E+03

           1    2.10029E+00    -3.4317E-02  6.4778E-03  1.2220E-02  3.7000E-02
ac ID =   33377                -2.6040E-01 -1.0951E+00 -4.6377E-02  1.1266E+00
                               -3.7329E-01  1.0642E+01 -4.6998E+01  2.5147E+03

           1    2.20028E+00    -2.0241E-02  1.1823E-02  1.6910E-02  2.8904E-02
ac ID =   33377                -3.9468E-01 -1.0775E+00 -3.6506E-03  1.1475E+00
                               -3.7313E-01  1.0646E+01 -4.7008E+01  2.5147E+03

           1    2.30027E+00     5.6215E-05  2.6787E-03  1.6414E-01  1.6417E-01
ac ID =   33377                -1.9360E-01 -1.0326E+00 -8.2891E-02  1.0538E+00
                               -3.7294E-01  1.0651E+01 -4.7018E+01  2.5147E+03

           1    2.40026E+00    -2.4031E-02 -5.4529E-03  2.0018E-01  2.0169E-01
ac ID =   33377                -2.4037E-01 -1.4255E+00  3.2727E-02  1.4460E+00
                               -3.7280E-01  1.0656E+01 -4.7028E+01  2.5147E+03

           1    2.50025E+00    -3.0155E-02  2.8831E-03  1.8225E-02  3.5352E-02
ac ID =   33377                -3.6646E-01 -1.2818E+00  1.0661E-01  1.3374E+00
                               -3.7275E-01  1.0660E+01 -4.7038E+01  2.5147E+03

           1    2.60024E+00    -1.4894E-02  9.4566E-03 -5.9393E-02  6.1958E-02
ac ID =   33377                -3.1372E-01 -5.5824E-01 -3.4257E-03  6.4036E-01
                               -3.7271E-01  1.0664E+01 -4.7048E+01  2.5147E+03

           1    2.70023E+00    -1.6736E-02  5.9868E-03  2.1781E-02  2.8113E-02
ac ID =   33377                -6.7559E-02 -5.7106E-01  1.6972E-01  5.9956E-01
                               -3.7262E-01  1.0669E+01 -4.7059E+01  2.5147E+03

           1    2.80022E+00    -2.1736E-02 -4.6019E-03  7.9688E-02  8.2728E-02
ac ID =   33377                 3.0949E-01 -8.3283E-01  8.8087E-02  8.9284E-01
                               -3.7252E-01  1.0674E+01 -4.7070E+01  2.5147E+03

           1    2.90021E+00    -7.3382E-03  4.5775E-03  1.0445E-02  1.3561E-02
ac ID =   33377                -2.5926E-01 -4.0036E-01 -1.6038E-02  4.7725E-01
                               -3.7237E-01  1.0678E+01 -4.7080E+01  2.5147E+03

           1    3.00020E+00    -3.4988E-03  3.9147E-03 -8.2573E-02  8.2740E-02
ac ID =   33377                -1.0547E-01 -5.7551E-02 -7.6088E-03  1.2039E-01
                               -3.7221E-01  1.0682E+01 -4.7091E+01  2.5147E+03

           1    3.10019E+00     2.9930E-03 -7.0608E-03 -1.2931E-02  1.5034E-02
ac ID =   33377                 1.7505E-01 -3.9158E-01 -7.7238E-02  4.3583E-01
                               -3.7209E-01  1.0687E+01 -4.7102E+01  2.5147E+03

           1    3.20018E+00    -1.1101E-02  1.4411E-02  7.4155E-02  7.6354E-02
ac ID =   33377                -4.6734E-01 -9.1902E-01 -1.4546E-02  1.0311E+00
                               -3.7201E-01  1.0692E+01 -4.7113E+01  2.5147E+03

           1    3.30017E+00     1.0699E-02 -7.7096E-04  1.3290E-02  1.7079E-02
ac ID =   33377                -1.4979E-01 -4.9371E-01  1.4687E-01  5.3643E-01
                               -3.7195E-01  1.0697E+01 -4.7124E+01  2.5147E+03

           1    3.40016E+00     1.2766E-02 -1.8869E-03 -1.0968E-01  1.1043E-01
ac ID =   33377                -1.8792E-02 -2.4320E-01  1.5694E-01  2.9005E-01
                               -3.7190E-01  1.0702E+01 -4.7136E+01  2.5147E+03

           1    3.50015E+00    -7.9803E-03  1.9173E-02 -1.5086E-01  1.5229E-01
ac ID =   33377                -5.0037E-01 -1.7648E-01 -4.2254E-02  5.3226E-01
                               -3.7185E-01  1.0707E+01 -4.7147E+01  2.5147E+03

           1    3.60014E+00     1.3509E-02  1.8382E-03 -8.3061E-02  8.4172E-02
ac ID =   33377                -1.7320E-01  5.1327E-01 -3.0979E-01  6.2403E-01
                               -3.7173E-01  1.0714E+01 -4.7159E+01  2.5147E+03

           1    3.70013E+00     2.6563E-02 -2.2523E-02 -7.7218E-02  8.4708E-02
ac ID =   33377                 5.1713E-01  6.4057E-01 -2.6154E-01  8.6381E-01
                               -3.7161E-01  1.0720E+01 -4.7171E+01  2.5147E+03

           1    3.80012E+00     2.8379E-02  6.2252E-04 -1.6370E-01  1.6614E-01
ac ID =   33377                -1.3240E-01  6.9945E-01  1.0082E-01  7.1897E-01
                               -3.7157E-01  1.0727E+01 -4.7183E+01  2.5147E+03

           1    3.90011E+00     2.8942E-02  2.7274E-02 -2.5053E-01  2.5367E-01
ac ID =   33377                -2.2745E-01  1.0891E+00  3.3064E-02  1.1131E+00
                               -3.7158E-01  1.0734E+01 -4.7196E+01  2.5147E+03

           1    4.00010E+00     3.6394E-02 -3.5003E-03 -2.0988E-01  2.1304E-01
ac ID =   33377                -6.6787E-02  8.2933E-01 -2.2771E-02  8.3232E-01
                               -3.7141E-01  1.0743E+01 -4.7208E+01  2.5147E+03

           1    4.10009E+00     4.0322E-02 -1.4054E-02 -1.7807E-01  1.8312E-01
ac ID =   33377                 1.1125E-01  6.7898E-01 -3.1351E-01  7.5610E-01
                               -3.7127E-01  1.0752E+01 -4.7221E+01  2.5147E+03

           1    4.20008E+00     3.9078E-02  1.3726E-02 -2.4903E-01  2.5245E-01
ac ID =   33377                -5.6688E-01  6.9514E-01  1.5340E-01  9.1000E-01
                               -3.7118E-01  1.0762E+01 -4.7234E+01  2.5147E+03

           1    4.30007E+00     5.1388E-02  1.1358E-02 -3.5837E-01  3.6222E-01
ac ID =   33377                -5.8555E-01  1.1295E+00  1.6650E-01  1.2831E+00
                               -3.7110E-01  1.0772E+01 -4.7247E+01  2.5147E+03

           1    4.40006E+00     5.6539E-02 -6.8241E-03 -3.3845E-01  3.4320E-01
ac ID =   33377                 7.3588E-02  1.4969E+00 -2.2413E-02  1.4989E+00
                               -3.7099E-01  1.0784E+01 -4.7261E+01  2.5147E+03

           1    4.50005E+00     6.2723E-02  1.1579E-04 -2.8228E-01  2.8916E-01
ac ID =   33377                 6.5586E-02  1.4185E+00 -5.1342E-02  1.4209E+00
                               -3.7092E-01  1.0798E+01 -4.7275E+01  2.5147E+03

           1    4.60004E+00     6.7673E-02  7.6921E-03 -3.3115E-01  3.3808E-01
ac ID =   33377                -1.6330E-01  1.7231E+00 -6.4451E-02  1.7320E+00
                               -3.7085E-01  1.0812E+01 -4.7289E+01  2.5147E+03

           1    4.70003E+00     7.4941E-02  5.8784E-03 -4.2133E-01  4.2798E-01
ac ID =   33377                -1.7755E-01  1.8503E+00  9.5678E-02  1.8613E+00
                               -3.7072E-01  1.0828E+01 -4.7304E+01  2.5147E+03

           1    4.80002E+00     6.6301E-02  4.6245E-04 -4.5889E-01  4.6365E-01
ac ID =   33377                -8.2084E-02  1.7857E+00 -8.2980E-02  1.7895E+00
                               -3.7058E-01  1.0845E+01 -4.7319E+01  2.5147E+03

           1    4.90001E+00     7.9214E-02  2.8501E-03 -4.1869E-01  4.2612E-01
ac ID =   33377                -2.9674E-01  1.6954E+00 -6.3194E-02  1.7223E+00
                               -3.7042E-01  1.0864E+01 -4.7334E+01  2.5147E+03

           1    5.00000E+00     8.3144E-02  1.3043E-02 -4.1372E-01  4.2220E-01
ac ID =   33377                -7.0014E-01  1.9731E+00 -3.0515E-02  2.0939E+00
                               -3.7031E-01  1.0885E+01 -4.7350E+01  2.5147E+03

           1    5.10049E+00     7.7910E-02  1.0254E-02 -5.0272E-01  5.0883E-01
ac ID =   33377                -5.8824E-01  1.7919E+00 -2.8761E-02  1.8862E+00
                               -3.7016E-01  1.0907E+01 -4.7366E+01  2.5147E+03

           1    5.20048E+00     9.1490E-02  4.9567E-03 -5.6361E-01  5.7101E-01
ac ID =   33377                -6.5259E-01  2.4170E+00 -1.1549E-01  2.5062E+00
                               -3.6998E-01  1.0930E+01 -4.7383E+01  2.5147E+03

           1    5.30047E+00     8.9427E-02  1.3357E-02 -5.5125E-01  5.5861E-01
ac ID =   33377                -7.6523E-01  2.5583E+00 -1.1052E-01  2.6726E+00
                               -3.6980E-01  1.0955E+01 -4.7400E+01  2.5147E+03

           1    5.40046E+00     9.7771E-02 -4.0787E-04 -5.5086E-01  5.5947E-01
ac ID =   33377                -3.8045E-01  2.6530E+00 -6.4587E-02  2.6809E+00
                               -3.6963E-01  1.0982E+01 -4.7417E+01  2.5147E+03

           1    5.50045E+00     9.7131E-02  5.5636E-03 -6.4334E-01  6.5066E-01
ac ID =   33377                -3.6035E-01  2.8882E+00  2.7316E-02  2.9108E+00
                               -3.6948E-01  1.1010E+01 -4.7434E+01  2.5147E+03

           1    5.60044E+00     9.3516E-02  1.1262E-02 -7.2618E-01  7.3227E-01
ac ID =   33377                -6.0274E-01  2.8281E+00 -6.0101E-02  2.8922E+00
                               -3.6936E-01  1.1040E+01 -4.7452E+01  2.5147E+03

           1    5.70043E+00     1.0524E-01 -7.2013E-04 -7.5838E-01  7.6565E-01
ac ID =   33377                -4.4180E-01  3.1157E+00 -8.1782E-02  3.1479E+00
                               -3.6925E-01  1.1072E+01 -4.7470E+01  2.5147E+03

           1    5.80042E+00     1.1115E-01 -6.3776E-03 -7.3470E-01  7.4309E-01
ac ID =   33377                -2.7236E-01  2.9466E+00  1.7911E-01  2.9646E+00
                               -3.6919E-01  1.1105E+01 -4.7488E+01  2.5147E+03

           1    5.90041E+00     1.0583E-01  1.0464E-02 -7.5841E-01  7.6583E-01
ac ID =   33377                -6.9845E-01  3.1837E+00  1.4670E-01  3.2628E+00
                               -3.6922E-01  1.1140E+01 -4.7506E+01  2.5147E+03

           1    6.00040E+00     1.1648E-01  1.2134E-02 -8.2666E-01  8.3491E-01
ac ID =   33377                -8.4100E-01  3.3792E+00 -7.0685E-02  3.4830E+00
                               -3.6930E-01  1.1176E+01 -4.7523E+01  2.5147E+03

           1    6.10039E+00     1.2341E-01 -4.1979E-03 -8.6362E-01  8.7240E-01
ac ID =   33377                -3.7558E-01  3.4797E+00 -2.5537E-01  3.5092E+00
                               -3.6942E-01  1.1214E+01 -4.7541E+01  2.5147E+03

           1    6.20038E+00     1.1632E-01  3.1820E-03 -8.6306E-01  8.7087E-01
ac ID =   33377                -7.2784E-01  3.4551E+00  2.7262E-02  3.5310E+00
                               -3.6957E-01  1.1254E+01 -4.7559E+01  2.5147E+03

           1    6.30037E+00     1.0644E-01  1.6993E-02 -8.8455E-01  8.9109E-01
ac ID =   33377                -8.8920E-01  3.1123E+00  1.5083E-01  3.2404E+00
                               -3.6983E-01  1.1296E+01 -4.7577E+01  2.5147E+03

           1    6.40036E+00     1.3726E-01  5.7277E-03 -9.9188E-01  1.0014E+00
ac ID =   33377                -6.7158E-01  4.0081E+00  1.3906E-01  4.0664E+00
                               -3.7005E-01  1.1339E+01 -4.7595E+01  2.5147E+03

           1    6.50035E+00     1.3644E-01  6.5385E-04 -1.0574E+00  1.0661E+00
ac ID =   33377                -7.9005E-01  4.4285E+00  2.4912E-02  4.4985E+00
                               -3.7025E-01  1.1384E+01 -4.7612E+01  2.5147E+03

           1    6.60034E+00     1.2211E-01  9.2032E-04 -1.0561E+00  1.0632E+00
ac ID =   33377                -7.4438E-01  4.1996E+00 -1.7278E-01  4.2685E+00
                               -3.7051E-01  1.1430E+01 -4.7630E+01  2.5147E+03

           1    6.70033E+00     1.4329E-01  1.8673E-02 -1.0698E+00  1.0795E+00
ac ID =   33377                -1.0515E+00  4.7641E+00 -1.1122E-01  4.8800E+00
                               -3.7086E-01  1.1479E+01 -4.7647E+01  2.5147E+03

           1    6.80032E+00     1.5477E-01 -2.8045E-03 -1.1224E+00  1.1330E+00
ac ID =   33377                -4.3158E-01  4.8983E+00  2.3267E-02  4.9174E+00
                               -3.7114E-01  1.1528E+01 -4.7664E+01  2.5147E+03

           1    6.90031E+00     1.3012E-01  2.0391E-03 -1.1878E+00  1.1949E+00
ac ID =   33377                -1.1197E+00  4.7871E+00  1.6421E-01  4.9191E+00
                               -3.7145E-01  1.1580E+01 -4.7680E+01  2.5147E+03

           1    7.00030E+00     1.5029E-01  1.3778E-02 -1.2118E+00  1.2211E+00
ac ID =   33377                -1.0098E+00  4.8943E+00 -1.4721E-01  4.9995E+00
                               -3.7184E-01  1.1633E+01 -4.7696E+01  2.5147E+03

           1    7.10029E+00     1.5727E-01 -6.1885E-03 -1.2423E+00  1.2522E+00
ac ID =   33377                -6.7926E-01  5.2888E+00 -2.2229E-01  5.3368E+00
                               -3.7218E-01  1.1688E+01 -4.7711E+01  2.5147E+03

           1    7.20028E+00     1.4969E-01  6.3072E-03 -1.3002E+00  1.3088E+00
ac ID =   33377                -9.0990E-01  4.9810E+00 -1.0152E-01  5.0644E+00
                               -3.7258E-01  1.1744E+01 -4.7726E+01  2.5147E+03

           1    7.30027E+00     1.5805E-01  3.5414E-03 -1.4016E+00  1.4105E+00
ac ID =   33377                -1.1550E+00  5.6960E+00 -1.4092E-01  5.8136E+00
                               -3.7303E-01  1.1802E+01 -4.7740E+01  2.5147E+03

           1    7.40026E+00     1.7900E-01  4.5489E-03 -1.4542E+00  1.4652E+00
ac ID =   33377                -7.4085E-01  6.3716E+00 -2.6311E-02  6.4145E+00
                               -3.7353E-01  1.1861E+01 -4.7753E+01  2.5147E+03

           1    7.50025E+00     1.6741E-01 -5.4926E-04 -1.4376E+00  1.4473E+00
ac ID =   33377                -6.2090E-01  6.2231E+00  5.4244E-02  6.2543E+00
                               -3.7402E-01  1.1922E+01 -4.7765E+01  2.5147E+03

           1    7.60024E+00     1.7560E-01  2.1694E-03 -1.4622E+00  1.4727E+00
ac ID =   33377                -6.8817E-01  6.4068E+00 -2.6219E-01  6.4490E+00
                               -3.7456E-01  1.1984E+01 -4.7777E+01  2.5147E+03

           1    7.70023E+00     1.8525E-01  9.7697E-03 -1.5068E+00  1.5182E+00
ac ID =   33377                -9.7946E-01  6.5283E+00 -2.6222E-01  6.6066E+00
                               -3.7512E-01  1.2048E+01 -4.7787E+01  2.5147E+03

           1    7.80022E+00     1.8143E-01 -6.0046E-03 -1.5652E+00  1.5757E+00
ac ID =   33377                -5.6409E-01  6.5156E+00 -2.3787E-01  6.5443E+00
                               -3.7573E-01  1.2113E+01 -4.7797E+01  2.5147E+03

           1    7.90021E+00     1.7993E-01  4.5086E-03 -1.5822E+00  1.5924E+00
ac ID =   33377                -9.3567E-01  6.4746E+00 -1.1283E-01  6.5429E+00
                               -3.7634E-01  1.2180E+01 -4.7805E+01  2.5147E+03

           1    8.00020E+00     1.9479E-01  1.6710E-02 -1.6209E+00  1.6327E+00
ac ID =   33377                -1.3210E+00  7.0350E+00  5.1366E-03  7.1579E+00
                               -3.7698E-01  1.2248E+01 -4.7813E+01  2.5147E+03

           1    8.10019E+00     2.0513E-01  8.9927E-04 -1.6860E+00  1.6985E+00
ac ID =   33377                -8.3500E-01  7.4855E+00 -5.3122E-02  7.5321E+00
                               -3.7767E-01  1.2318E+01 -4.7819E+01  2.5147E+03

           1    8.20018E+00     1.8809E-01 -5.9334E-03 -1.7291E+00  1.7393E+00
ac ID =   33377                -8.2744E-01  7.4141E+00 -2.8968E-01  7.4658E+00
                               -3.7833E-01  1.2389E+01 -4.7824E+01  2.5147E+03

           1    8.30017E+00     2.1591E-01  1.4335E-02 -1.7773E+00  1.7904E+00
ac ID =   33377                -1.2517E+00  8.1330E+00 -2.8021E-01  8.2335E+00
                               -3.7904E-01  1.2461E+01 -4.7828E+01  2.5147E+03

           1    8.40016E+00     2.3281E-01  6.8009E-03 -1.7997E+00  1.8148E+00
ac ID =   33377                -9.0026E-01  8.5389E+00 -2.4887E-02  8.5863E+00
                               -3.7981E-01  1.2534E+01 -4.7830E+01  2.5147E+03

           1    8.50015E+00     1.9924E-01 -6.1575E-03 -1.8321E+00  1.8429E+00
ac ID =   33377                -6.0706E-01  8.1873E+00  1.9822E-01  8.2122E+00
                               -3.8053E-01  1.2609E+01 -4.7831E+01  2.5147E+03

           1    8.60014E+00     2.2396E-01  3.7111E-03 -1.8845E+00  1.8978E+00
ac ID =   33377                -9.3429E-01  8.7016E+00 -1.0676E-01  8.7522E+00
                               -3.8127E-01  1.2686E+01 -4.7831E+01  2.5147E+03

           1    8.70013E+00     2.3284E-01  1.1609E-02 -1.9217E+00  1.9358E+00
ac ID =   33377                -1.1689E+00  8.7161E+00 -1.9066E-01  8.7962E+00
                               -3.8207E-01  1.2763E+01 -4.7829E+01  2.5147E+03

           1    8.80012E+00     2.2017E-01  6.1513E-03 -1.9475E+00  1.9599E+00
ac ID =   33377                -1.1058E+00  8.5067E+00 -1.7272E-01  8.5801E+00
                               -3.8287E-01  1.2842E+01 -4.7825E+01  2.5147E+03

           1    8.90011E+00     2.3452E-01 -6.3319E-03 -2.0012E+00  2.0149E+00
ac ID =   33377                -1.0131E+00  9.0042E+00 -2.1810E-01  9.0636E+00
                               -3.8362E-01  1.2923E+01 -4.7820E+01  2.5147E+03

           1    9.00010E+00     2.5561E-01  4.8450E-03 -2.0285E+00  2.0445E+00
ac ID =   33377                -1.2110E+00  9.3373E+00  3.5637E-01  9.4222E+00
                               -3.8447E-01  1.3004E+01 -4.7814E+01  2.5147E+03

           1    9.10009E+00     2.4666E-01  1.0014E-02 -2.0511E+00  2.0659E+00
ac ID =   33377                -1.1825E+00  9.2934E+00  4.2731E-02  9.3684E+00
                               -3.8543E-01  1.3087E+01 -4.7805E+01  2.5147E+03

           1    9.20008E+00     2.4427E-01 -2.2798E-03 -2.0883E+00  2.1026E+00
ac ID =   33377                -8.8681E-01  9.4287E+00 -2.8056E-01  9.4745E+00
                               -3.8628E-01  1.3171E+01 -4.7795E+01  2.5147E+03

           1    9.30007E+00     2.6021E-01 -7.4289E-03 -2.1102E+00  2.1262E+00
ac ID =   33377                -7.9447E-01  9.6474E+00 -2.0544E-01  9.6823E+00
                               -3.8719E-01  1.3256E+01 -4.7783E+01  2.5147E+03

           1    9.40006E+00     2.4926E-01 -2.3913E-03 -2.1125E+00  2.1271E+00
ac ID =   33377                -9.8825E-01  9.4409E+00 -8.6794E-02  9.4929E+00
                               -3.8815E-01  1.3343E+01 -4.7769E+01  2.5147E+03

           1    9.50005E+00     2.5006E-01  4.4312E-03 -2.1661E+00  2.1805E+00
ac ID =   33377                -1.0028E+00  9.6022E+00 -1.3477E-01  9.6554E+00
                               -3.8914E-01  1.3430E+01 -4.7754E+01  2.5147E+03

           1    9.60004E+00     2.6900E-01 -6.2172E-04 -2.1664E+00  2.1831E+00
ac ID =   33377                -1.0551E+00  1.0140E+01 -9.1772E-02  1.0195E+01
                               -3.9012E-01  1.3519E+01 -4.7736E+01  2.5147E+03

           1    9.70003E+00     2.6052E-01  5.3828E-03 -2.1634E+00  2.1790E+00
ac ID =   33377                -1.4774E+00  9.5859E+00  8.5382E-03  9.6991E+00
                               -3.9109E-01  1.3609E+01 -4.7716E+01  2.5147E+03

           1    9.80002E+00     2.6396E-01  4.1706E-03 -2.1966E+00  2.2124E+00
ac ID =   33377                -1.1981E+00  1.0079E+01 -8.2004E-02  1.0151E+01
                               -3.9212E-01  1.3700E+01 -4.7695E+01  2.5147E+03

           1    9.90001E+00     2.7335E-01  1.6694E-03 -2.2130E+00  2.2298E+00
ac ID =   33377                -1.2677E+00  1.0029E+01  1.4563E-02  1.0109E+01
                               -3.9313E-01  1.3791E+01 -4.7671E+01  2.5147E+03

           1    1.00005E+01     2.8560E-01 -2.2161E-03 -2.2628E+00  2.2807E+00
ac ID =   33377                -1.1994E+00  1.0720E+01  1.1164E-01  1.0788E+01
                               -3.9419E-01  1.3885E+01 -4.7646E+01  2.5147E+03

           1    1.01005E+01     2.7809E-01  1.0855E-02 -2.2761E+00  2.2931E+00
ac ID =   33377                -1.5060E+00  1.0763E+01  1.7967E-03  1.0868E+01
                               -3.9529E-01  1.3979E+01 -4.7618E+01  2.5147E+03

           1    1.02005E+01     2.9333E-01  3.6330E-03 -2.3049E+00  2.3235E+00
ac ID =   33377                -1.0831E+00  1.0824E+01 -4.6367E-01  1.0888E+01
                               -3.9634E-01  1.4074E+01 -4.7589E+01  2.5147E+03

           1    1.03005E+01     2.8480E-01 -1.4952E-02 -2.3267E+00  2.3441E+00
ac ID =   33377                -9.0503E-01  1.0982E+01 -2.9875E-01  1.1023E+01
                               -3.9736E-01  1.4171E+01 -4.7557E+01  2.5147E+03

           1    1.04005E+01     2.9212E-01  1.0110E-02 -2.3334E+00  2.3516E+00
ac ID =   33377                -1.3112E+00  1.0674E+01 -2.0789E-02  1.0755E+01
                               -3.9845E-01  1.4268E+01 -4.7524E+01  2.5147E+03

           1    1.05004E+01     2.8747E-01  5.8668E-03 -2.3387E+00  2.3563E+00
ac ID =   33377                -1.2748E+00  1.0709E+01  1.2108E-01  1.0785E+01
                               -3.9955E-01  1.4366E+01 -4.7488E+01  2.5147E+03

           1    1.06004E+01     3.1295E-01 -4.5908E-04 -2.3158E+00  2.3368E+00
ac ID =   33377                -9.4062E-01  1.0658E+01  2.2501E-01  1.0702E+01
                               -4.0056E-01  1.4466E+01 -4.7451E+01  2.5147E+03

           1    1.07004E+01     3.0543E-01 -1.0179E-03 -2.3243E+00  2.3443E+00
ac ID =   33377                -1.1838E+00  1.0799E+01 -3.6580E-02  1.0863E+01
                               -4.0161E-01  1.4567E+01 -4.7411E+01  2.5147E+03

           1    1.08004E+01     2.9959E-01  1.0634E-02 -2.3326E+00  2.3518E+00
ac ID =   33377                -1.2038E+00  1.0462E+01 -3.0284E-01  1.0535E+01
                               -4.0269E-01  1.4668E+01 -4.7369E+01  2.5147E+03

           1    1.09004E+01     2.8389E-01  1.4145E-02 -2.3370E+00  2.3542E+00
ac ID =   33377                -1.4882E+00  1.0416E+01 -3.0842E-01  1.0526E+01
                               -4.0372E-01  1.4771E+01 -4.7326E+01  2.5147E+03

           1    1.10004E+01     2.9749E-01  1.1478E-02 -2.3187E+00  2.3378E+00
ac ID =   33377                -1.0128E+00  1.0309E+01  4.8788E-03  1.0358E+01
                               -4.0466E-01  1.4874E+01 -4.7280E+01  2.5147E+03

           1    1.11004E+01     3.0543E-01 -6.9261E-03 -2.3153E+00  2.3354E+00
ac ID =   33377                -9.5194E-01  1.0456E+01  9.9784E-02  1.0500E+01
                               -4.0555E-01  1.4979E+01 -4.7231E+01  2.5147E+03

           1    1.12004E+01     2.9665E-01  1.8890E-02 -2.3088E+00  2.3278E+00
ac ID =   33377                -1.0865E+00  1.1044E+01 -2.9235E-01  1.1101E+01
                               -4.0653E-01  1.5084E+01 -4.7181E+01  2.5147E+03

           1    1.13004E+01     2.9880E-01  4.2661E-03 -2.2917E+00  2.3111E+00
ac ID =   33377                -1.1525E+00  1.0597E+01 -2.6112E-02  1.0659E+01
                               -4.0733E-01  1.5190E+01 -4.7128E+01  2.5147E+03

           1    1.14004E+01     2.9565E-01 -1.4122E-03 -2.2568E+00  2.2761E+00
ac ID =   33377                -7.4824E-01  1.0587E+01  2.5478E-01  1.0617E+01
                               -4.0810E-01  1.5296E+01 -4.7073E+01  2.5147E+03

           1    1.15003E+01     2.9604E-01  6.1208E-03 -2.2189E+00  2.2386E+00
ac ID =   33377                -9.0064E-01  1.0513E+01  2.3749E-01  1.0554E+01
                               -4.0887E-01  1.5403E+01 -4.7016E+01  2.5147E+03

           1    1.16003E+01     2.8637E-01  9.7073E-03 -2.2419E+00  2.2601E+00
ac ID =   33377                -1.1654E+00  1.0055E+01  2.2252E-01  1.0124E+01
                               -4.0958E-01  1.5511E+01 -4.6956E+01  2.5147E+03

           1    1.17003E+01     3.0291E-01 -1.8734E-03 -2.2351E+00  2.2555E+00
ac ID =   33377                -9.2388E-01  1.0110E+01 -1.9435E-01  1.0154E+01
                               -4.1029E-01  1.5619E+01 -4.6895E+01  2.5147E+03

           1    1.18003E+01     3.0490E-01  1.0179E-02 -2.2150E+00  2.2359E+00
ac ID =   33377                -1.0360E+00  1.0396E+01 -6.3943E-01  1.0467E+01
                               -4.1096E-01  1.5728E+01 -4.6831E+01  2.5147E+03

           1    1.19003E+01     2.9750E-01 -7.5288E-03 -2.2131E+00  2.2330E+00
ac ID =   33377                -8.5886E-01  1.0088E+01 -2.7424E-01  1.0128E+01
                               -4.1158E-01  1.5837E+01 -4.6764E+01  2.5147E+03

           1    1.20003E+01     3.0422E-01  1.6809E-03 -2.1790E+00  2.2001E+00
ac ID =   33377                -7.2104E-01  9.8599E+00  1.0670E-01  9.8868E+00
                               -4.1226E-01  1.5947E+01 -4.6696E+01  2.5147E+03

           1    1.21003E+01     2.9840E-01 -7.7347E-03 -2.1701E+00  2.1905E+00
ac ID =   33377                -5.0067E-01  9.8805E+00 -1.9544E-01  9.8951E+00
                               -4.1289E-01  1.6057E+01 -4.6625E+01  2.5147E+03

           1    1.22003E+01     2.9693E-01 -1.9804E-03 -2.1231E+00  2.1438E+00
ac ID =   33377                -7.8510E-01  9.5693E+00 -1.2930E-01  9.6023E+00
                               -4.1346E-01  1.6168E+01 -4.6552E+01  2.5147E+03

           1    1.23003E+01     2.8847E-01 -3.4670E-03 -2.0631E+00  2.0831E+00
ac ID =   33377                -5.3200E-01  8.8233E+00 -1.0346E-01  8.8399E+00
                               -4.1408E-01  1.6280E+01 -4.6477E+01  2.5147E+03

           1    1.24003E+01     2.9226E-01 -3.7926E-03 -2.0463E+00  2.0670E+00
ac ID =   33377                -4.8424E-01  8.7418E+00 -1.3867E-01  8.7563E+00
                               -4.1464E-01  1.6391E+01 -4.6400E+01  2.5147E+03

           1    1.25002E+01     2.9755E-01  2.2027E-03 -2.0165E+00  2.0383E+00
ac ID =   33377                -1.0605E+00  8.3622E+00 -7.8249E-02  8.4295E+00
                               -4.1514E-01  1.6503E+01 -4.6321E+01  2.5147E+03

           1    1.26002E+01     2.7457E-01  8.3223E-04 -1.9872E+00  2.0061E+00
ac ID =   33377                -6.2345E-01  8.1638E+00 -1.5791E-01  8.1891E+00
                               -4.1574E-01  1.6616E+01 -4.6239E+01  2.5147E+03

           1    1.27002E+01     2.9405E-01  2.6175E-03 -1.9259E+00  1.9482E+00
ac ID =   33377                -6.1908E-01  8.1671E+00  2.0667E-01  8.1931E+00
                               -4.1631E-01  1.6729E+01 -4.6156E+01  2.5147E+03

           1    1.28002E+01     2.9007E-01  3.5958E-03 -1.8758E+00  1.8981E+00
ac ID =   33377                -8.5926E-01  8.0244E+00 -1.1526E-01  8.0711E+00
                               -4.1689E-01  1.6842E+01 -4.6071E+01  2.5147E+03

           1    1.29002E+01     2.8040E-01  1.2351E-03 -1.8375E+00  1.8588E+00
ac ID =   33377                -4.9514E-01  7.4857E+00 -5.0860E-01  7.5193E+00
                               -4.1754E-01  1.6955E+01 -4.5983E+01  2.5147E+03

           1    1.30002E+01     2.7561E-01  1.2603E-03 -1.8097E+00  1.8306E+00
ac ID =   33377                -3.9477E-01  6.9824E+00 -5.3327E-01  7.0138E+00
                               -4.1814E-01  1.7069E+01 -4.5894E+01  2.5147E+03

           1    1.31002E+01     2.7672E-01 -5.0639E-03 -1.7369E+00  1.7588E+00
ac ID =   33377                -6.9912E-01  6.8987E+00 -2.4814E-01  6.9384E+00
                               -4.1868E-01  1.7183E+01 -4.5802E+01  2.5147E+03

           1    1.32002E+01     2.5839E-01  1.0055E-02 -1.6760E+00  1.6958E+00
ac ID =   33377                -6.8907E-01  6.2669E+00 -1.5265E-01  6.3065E+00
                               -4.1936E-01  1.7297E+01 -4.5709E+01  2.5147E+03

           1    1.33002E+01     2.4995E-01 -4.9013E-03 -1.6652E+00  1.6839E+00
ac ID =   33377                -5.2939E-01  6.1450E+00 -3.0656E-01  6.1754E+00
                               -4.2002E-01  1.7412E+01 -4.5615E+01  2.5147E+03

           1    1.34002E+01     2.6081E-01 -5.0173E-04 -1.6182E+00  1.6391E+00
ac ID =   33377                -8.7474E-01  5.6103E+00 -4.0735E-01  5.6927E+00
                               -4.2066E-01  1.7527E+01 -4.5518E+01  2.5147E+03

           1    1.35001E+01     2.6358E-01  1.9397E-02 -1.5616E+00  1.5838E+00
ac ID =   33377                -9.0000E-01  5.4529E+00 -4.0469E-01  5.5414E+00
                               -4.2143E-01  1.7642E+01 -4.5420E+01  2.5147E+03

           1    1.36001E+01     2.4337E-01 -1.3706E-03 -1.5248E+00  1.5441E+00
ac ID =   33377                -6.1333E-01  4.8433E+00  4.4855E-02  4.8822E+00
                               -4.2212E-01  1.7757E+01 -4.5320E+01  2.5147E+03

           1    1.37001E+01     2.3988E-01 -5.8047E-03 -1.4817E+00  1.5011E+00
ac ID =   33377                -2.2722E-01  4.6563E+00 -1.1618E-01  4.6633E+00
                               -4.2295E-01  1.7873E+01 -4.5219E+01  2.5147E+03

           1    1.38001E+01     2.3886E-01  1.0223E-02 -1.4233E+00  1.4433E+00
ac ID =   33377                -5.9921E-01  4.2759E+00 -2.5079E-01  4.3249E+00
                               -4.2380E-01  1.7989E+01 -4.5116E+01  2.5147E+03

           1    1.39001E+01     2.4070E-01 -6.1213E-03 -1.3981E+00  1.4187E+00
ac ID =   33377                -5.0926E-01  3.7377E+00  1.0061E-02  3.7722E+00
                               -4.2468E-01  1.8105E+01 -4.5011E+01  2.5147E+03

           1    1.40001E+01     2.2910E-01 -1.6172E-02 -1.2983E+00  1.3185E+00
ac ID =   33377                 2.8421E-01  2.8501E+00 -5.4696E-02  2.8648E+00
                               -4.2566E-01  1.8221E+01 -4.4905E+01  2.5147E+03

           1    1.41001E+01     2.1034E-01  1.1356E-02 -1.2461E+00  1.2638E+00
ac ID =   33377                -4.1516E-01  2.4474E+00 -3.0475E-01  2.5010E+00
                               -4.2670E-01  1.8337E+01 -4.4798E+01  2.5147E+03

           1    1.42001E+01     1.8006E-01  1.6147E-02 -1.2224E+00  1.2357E+00
ac ID =   33377                -1.0605E+00  2.0836E+00 -1.7901E-01  2.3448E+00
                               -4.2776E-01  1.8454E+01 -4.4689E+01  2.5147E+03

           1    1.43001E+01     1.9433E-01 -1.1742E-02 -1.1322E+00  1.1489E+00
ac ID =   33377                -1.4531E-01  1.8563E+00 -2.4422E-01  1.8779E+00
                               -4.2887E-01  1.8570E+01 -4.4579E+01  2.5147E+03

           1    1.44001E+01     1.8846E-01 -4.7237E-03 -1.0503E+00  1.0671E+00
ac ID =   33377                -1.9439E-01  1.3562E+00 -2.2021E-01  1.3876E+00
                               -4.2986E-01  1.8686E+01 -4.4468E+01  2.5147E+03

           1    1.45000E+01     1.8899E-01  1.2268E-02 -1.0004E+00  1.0182E+00
ac ID =   33377                -7.6964E-01  1.0946E+00 -1.2005E-01  1.3435E+00
                               -4.3100E-01  1.8802E+01 -4.4355E+01  2.5147E+03

           1    1.46000E+01     1.6770E-01 -1.4033E-02 -9.6153E-01  9.7615E-01
ac ID =   33377                 6.6899E-03  9.1916E-01 -1.7145E-01  9.3503E-01
                               -4.3222E-01  1.8919E+01 -4.4241E+01  2.5147E+03

           1    1.47000E+01     1.4299E-01 -4.3603E-02 -8.5714E-01  8.7008E-01
ac ID =   33377                 9.2883E-01 -1.4650E-01 -2.9107E-01  9.8433E-01
                               -4.3349E-01  1.9034E+01 -4.4126E+01  2.5147E+03

           1    1.48005E+01     1.8953E-01  2.9818E-02 -8.4451E-01  8.6602E-01
ac ID =   33377                -9.6341E-01  9.0272E-01 -2.5461E-01  1.3446E+00
                               -4.3477E-01  1.9151E+01 -4.4009E+01  2.5147E+03

           1    1.49005E+01     1.1470E-01 -1.0072E-02 -7.7575E-01  7.8425E-01
ac ID =   33377                 6.4740E-01 -1.2604E-01  1.7057E-03  6.5955E-01
                               -4.3616E-01  1.9266E+01 -4.3891E+01  2.5147E+03

           1    1.50005E+01     1.3569E-01 -4.3359E-02 -6.9351E-01  7.0799E-01
ac ID =   33377                 1.1752E+00 -1.4605E-01 -3.0698E-01  1.2234E+00
                               -4.3746E-01  1.9381E+01 -4.3772E+01  2.5147E+03

           1    1.51005E+01     1.4345E-01  5.0633E-03 -6.4852E-01  6.6421E-01
ac ID =   33377                -3.6137E-01 -1.0135E-01 -4.0654E-01  5.5330E-01
                               -4.3890E-01  1.9496E+01 -4.3652E+01  2.5147E+03

           1    1.52005E+01     1.3247E-01  2.4389E-02 -5.9959E-01  6.1453E-01
ac ID =   33377                -3.5135E-01  4.1294E-03 -7.4890E-01  8.2724E-01
                               -4.4053E-01  1.9611E+01 -4.3530E+01  2.5147E+03

           1    1.53005E+01     9.2716E-02 -1.2158E-02 -5.1324E-01  5.2169E-01
ac ID =   33377                 4.2290E-01 -1.0369E+00  4.8541E-01  1.2205E+00
                               -4.4195E-01  1.9726E+01 -4.3408E+01  2.5147E+03

           1    1.54005E+01     1.4360E-01 -4.2687E-02 -4.5904E-01  4.8286E-01
ac ID =   33377                 8.5219E-01  3.5013E-01 -5.2516E-02  9.2281E-01
                               -4.4347E-01  1.9840E+01 -4.3285E+01  2.5147E+03

           1    1.55004E+01     1.4463E-01  9.1734E-03 -4.4100E-01  4.6420E-01
ac ID =   33377                -2.7507E-01  1.0634E+00 -7.0287E-01  1.3041E+00
                               -4.4527E-01  1.9954E+01 -4.3161E+01  2.5147E+03

           1    1.56004E+01     9.3557E-02  4.8990E-03 -3.5887E-01  3.7090E-01
ac ID =   33377                 1.6989E-01  5.3972E-01 -4.4077E-01  7.1724E-01
                               -4.4709E-01  2.0068E+01 -4.3037E+01  2.5147E+03

           1    1.57004E+01     1.4628E-01 -3.5433E-02 -2.8548E-01  3.2272E-01
ac ID =   33377                 1.3114E+00  1.5195E+00 -1.1631E-01  2.0105E+00
                               -4.4875E-01  2.0181E+01 -4.2912E+01  2.5147E+03

           1    1.58004E+01     1.3783E-01 -1.9662E-02 -2.5253E-01  2.8837E-01
ac ID =   33377                 1.0662E+00  1.6124E+00  3.9887E-01  1.9738E+00
                               -4.5040E-01  2.0295E+01 -4.2787E+01  2.5147E+03

           1    1.59004E+01     9.9460E-02  3.4631E-02 -1.9812E-01  2.2437E-01
ac ID =   33377                -1.2350E-01  7.1104E-01 -6.1660E-02  7.2432E-01
                               -4.5218E-01  2.0408E+01 -4.2661E+01  2.5147E+03

           1    1.60004E+01     1.1226E-01 -3.0603E-02 -1.0869E-01  1.5922E-01
ac ID =   33377                 8.7030E-01  3.3646E-01 -7.4593E-01  1.1946E+00
                               -4.5369E-01  2.0521E+01 -4.2535E+01  2.5147E+03

           1    1.61004E+01     1.5328E-01 -2.7003E-02 -4.6282E-02  1.6237E-01
ac ID =   33377                 6.2368E-01  1.9284E+00 -5.2479E-01  2.0936E+00
                               -4.5524E-01  2.0634E+01 -4.2410E+01  2.5147E+03

           1    1.62004E+01     9.8220E-02 -5.1982E-03  2.1652E-02  1.0071E-01
ac ID =   33377                 4.2394E-01  8.6184E-01 -2.7955E-01  1.0003E+00
                               -4.5699E-01  2.0746E+01 -4.2284E+01  2.5147E+03

           1    1.63004E+01     9.9848E-02  3.0732E-02  6.3127E-02  1.2206E-01
ac ID =   33377                -1.0314E+00  1.3813E+00 -3.2220E-01  1.7537E+00
                               -4.5867E-01  2.0859E+01 -4.2158E+01  2.5147E+03

           1    1.64004E+01     1.4512E-01 -3.8940E-02  9.8032E-02  1.7941E-01
ac ID =   33377                 1.8355E+00  1.8843E+00 -5.9468E-01  2.6969E+00
                               -4.6024E-01  2.0971E+01 -4.2033E+01  2.5147E+03

           1    1.65003E+01     9.6728E-02 -3.8502E-02  1.5702E-01  1.8840E-01
ac ID =   33377                 6.8368E-01  1.1275E+00 -5.0234E-01  1.4111E+00
                               -4.6173E-01  2.1084E+01 -4.1909E+01  2.5147E+03

           1    1.66003E+01     9.5307E-02  2.9847E-02  2.1653E-01  2.3845E-01
ac ID =   33377                 2.4141E-01  5.6101E-01 -4.5362E-01  7.6078E-01
                               -4.6351E-01  2.1197E+01 -4.1784E+01  2.5147E+03

           1    1.67003E+01     8.8573E-02 -4.9070E-02  2.5000E-01  2.6973E-01
ac ID =   33377                 1.8239E+00  6.1135E-01 -2.6276E-01  1.9415E+00
                               -4.6511E-01  2.1309E+01 -4.1661E+01  2.5147E+03

           1    1.68003E+01     9.2096E-02 -1.6085E-02  2.7968E-01  2.9489E-01
ac ID =   33377                 9.1633E-01 -2.0426E-01 -3.0504E-01  9.8714E-01
                               -4.6674E-01  2.1422E+01 -4.1538E+01  2.5147E+03

           1    1.69003E+01     5.6287E-02  7.8424E-03  3.5610E-01  3.6061E-01
ac ID =   33377                 1.9896E-01 -4.4436E-01 -1.1427E-01  5.0010E-01
                               -4.6851E-01  2.1535E+01 -4.1416E+01  2.5147E+03

           1    1.70003E+01     9.0929E-02 -2.3499E-02  4.1703E-01  4.2748E-01
ac ID =   33377                 1.4863E+00 -3.8545E-01 -2.6445E-01  1.5580E+00
                               -4.7007E-01  2.1648E+01 -4.1295E+01  2.5147E+03

           1    1.71003E+01     6.2906E-02 -8.0841E-03  4.5349E-01  4.5791E-01
ac ID =   33377                 7.6480E-01 -8.6519E-01  2.3065E-01  1.1776E+00
                               -4.7174E-01  2.1762E+01 -4.1175E+01  2.5147E+03

           1    1.72003E+01     6.8239E-02 -6.0395E-03  4.6300E-01  4.6804E-01
ac ID =   33377                 7.7747E-01 -5.9243E-01  1.6637E-01  9.9152E-01
                               -4.7339E-01  2.1876E+01 -4.1057E+01  2.5147E+03

           1    1.73003E+01     5.0251E-02  1.6289E-02  5.1895E-01  5.2163E-01
ac ID =   33377                -4.8188E-02 -1.5674E+00  2.3935E-01  1.5863E+00
                               -4.7504E-01  2.1990E+01 -4.0939E+01  2.5147E+03

           1    1.74003E+01     4.7007E-02 -1.9755E-02  5.4758E-01  5.4995E-01
ac ID =   33377                 1.3610E+00 -2.1143E+00 -2.3648E-01  2.5256E+00
                               -4.7651E-01  2.2105E+01 -4.0824E+01  2.5147E+03

           1    1.75002E+01     3.0462E-02 -2.7887E-02  5.9832E-01  5.9974E-01
ac ID =   33377                 1.3393E+00 -2.2622E+00 -1.0984E-01  2.6312E+00
                               -4.7792E-01  2.2220E+01 -4.0709E+01  2.5147E+03

           1    1.76002E+01     2.5503E-02  2.0560E-02  6.4506E-01  6.4589E-01
ac ID =   33377                 6.8973E-01 -2.7543E+00 -1.9001E-01  2.8457E+00
                               -4.7951E-01  2.2336E+01 -4.0597E+01  2.5147E+03

           1    1.77002E+01     2.2374E-02 -9.0053E-03  6.7518E-01  6.7561E-01
ac ID =   33377                 1.0514E+00 -3.0065E+00 -4.8854E-01  3.2223E+00
                               -4.8088E-01  2.2452E+01 -4.0486E+01  2.5147E+03

           1    1.78002E+01     2.7913E-02 -3.8066E-02  6.9702E-01  6.9862E-01
ac ID =   33377                 1.4842E+00 -2.9990E+00 -3.0858E-01  3.3604E+00
                               -4.8206E-01  2.2569E+01 -4.0376E+01  2.5147E+03

           1    1.79002E+01     1.5590E-02  9.7116E-03  7.6648E-01  7.6670E-01
ac ID =   33377                 7.0655E-01 -3.6636E+00  1.2263E-01  3.7331E+00
                               -4.8342E-01  2.2687E+01 -4.0269E+01  2.5147E+03

           1    1.80002E+01     2.8860E-02  1.2886E-02  7.8765E-01  7.8828E-01
ac ID =   33377                 4.8710E-01 -3.9519E+00  1.4527E-01  3.9844E+00
                               -4.8470E-01  2.2805E+01 -4.0164E+01  2.5147E+03

           1    1.81002E+01     8.8508E-03 -2.0537E-02  8.0116E-01  8.0147E-01
ac ID =   33377                 1.0940E+00 -3.8300E+00 -3.1130E-01  3.9953E+00
                               -4.8586E-01  2.2924E+01 -4.0060E+01  2.5147E+03

           1    1.82002E+01     1.7780E-02 -3.7494E-03  8.4674E-01  8.4693E-01
ac ID =   33377                 5.1274E-01 -4.5482E+00  4.2352E-01  4.5965E+00
                               -4.8700E-01  2.3043E+01 -3.9959E+01  2.5147E+03

           1    1.83002E+01    -5.6881E-03  2.8654E-03  8.5740E-01  8.5742E-01
ac ID =   33377                 5.8214E-01 -4.5859E+00  3.8503E-01  4.6387E+00
                               -4.8821E-01  2.3164E+01 -3.9860E+01  2.5147E+03

           1    1.84002E+01     7.3521E-03  5.5185E-03  8.7638E-01  8.7643E-01
ac ID =   33377                 6.9482E-01 -4.7669E+00 -2.1825E-01  4.8222E+00
                               -4.8930E-01  2.3285E+01 -3.9763E+01  2.5147E+03

           1    1.85001E+01    -4.4578E-03 -3.6610E-02  9.1837E-01  9.1911E-01
ac ID =   33377                 1.3689E+00 -5.2693E+00  2.7951E-03  5.4442E+00
                               -4.9029E-01  2.3407E+01 -3.9668E+01  2.5147E+03

           1    1.86001E+01    -8.0686E-03  4.8226E-03  9.1903E-01  9.1908E-01
ac ID =   33377                 8.7169E-01 -5.2313E+00 -2.3409E-01  5.3086E+00
                               -4.9139E-01  2.3530E+01 -3.9575E+01  2.5147E+03

           1    1.87001E+01    -1.6508E-02  9.4190E-03  9.4195E-01  9.4214E-01
ac ID =   33377                 4.1893E-01 -5.8467E+00  2.1822E-01  5.8658E+00
                               -4.9230E-01  2.3654E+01 -3.9485E+01  2.5147E+03

           1    1.88001E+01     6.1940E-03 -1.9589E-02  9.4636E-01  9.4658E-01
ac ID =   33377                 1.2451E+00 -5.8631E+00  6.8033E-02  5.9942E+00
                               -4.9322E-01  2.3779E+01 -3.9397E+01  2.5147E+03

           1    1.89001E+01     1.2073E-02 -8.6405E-03  9.7638E-01  9.7650E-01
ac ID =   33377                 6.1904E-01 -5.5971E+00  1.1058E-02  5.6312E+00
                               -4.9412E-01  2.3904E+01 -3.9312E+01  2.5147E+03

           1    1.90001E+01    -3.7419E-02 -8.6914E-04  9.6840E-01  9.6912E-01
ac ID =   33377                 5.7771E-01 -6.7584E+00 -2.2269E-01  6.7867E+00
                               -4.9502E-01  2.4030E+01 -3.9228E+01  2.5147E+03

           1    1.91001E+01    -1.4060E-02 -9.5148E-03  9.8029E-01  9.8044E-01
ac ID =   33377                 6.2572E-01 -6.6900E+00  6.4629E-02  6.7195E+00
                               -4.9599E-01  2.4158E+01 -3.9147E+01  2.5147E+03

           1    1.92001E+01     1.6475E-02  2.2838E-04  9.9912E-01  9.9926E-01
ac ID =   33377                 7.2254E-01 -6.2224E+00  4.1118E-01  6.2777E+00
                               -4.9685E-01  2.4286E+01 -3.9069E+01  2.5147E+03

           1    1.93001E+01    -5.5210E-02 -2.6347E-02  1.0127E+00  1.0146E+00
ac ID =   33377                 1.3216E+00 -7.7762E+00 -3.2136E-01  7.8943E+00
                               -4.9778E-01  2.4415E+01 -3.8993E+01  2.5147E+03

           1    1.94001E+01    -1.6057E-02  3.3952E-03  1.0018E+00  1.0019E+00
ac ID =   33377                 8.1514E-01 -7.2367E+00 -6.2778E-01  7.3094E+00
                               -4.9871E-01  2.4545E+01 -3.8919E+01  2.5147E+03

           1    1.95000E+01    -1.1246E-02 -2.6832E-02  9.9648E-01  9.9691E-01
ac ID =   33377                 1.6635E+00 -7.0298E+00 -6.0193E-01  7.2489E+00
                               -4.9966E-01  2.4676E+01 -3.8848E+01  2.5147E+03

           1    1.96000E+01    -2.3386E-02 -6.3796E-03  1.0129E+00  1.0132E+00
ac ID =   33377                 1.1329E+00 -7.7722E+00  4.1110E-01  7.8650E+00
                               -5.0060E-01  2.4808E+01 -3.8780E+01  2.5147E+03

           1    1.97005E+01    -1.7607E-02 -4.2508E-03  1.0052E+00  1.0054E+00
ac ID =   33377                 1.2964E+00 -7.6889E+00  4.1965E-01  7.8087E+00
                               -5.0157E-01  2.4941E+01 -3.8713E+01  2.5147E+03

           1    1.98005E+01     1.7403E-03 -9.6835E-03  9.8709E-01  9.8714E-01
ac ID =   33377                 8.8801E-01 -7.4064E+00  2.1490E-01  7.4625E+00
                               -5.0247E-01  2.5075E+01 -3.8649E+01  2.5147E+03

           1    1.99005E+01    -2.5655E-02 -6.3086E-03  9.9841E-01  9.9876E-01
ac ID =   33377                 1.3542E+00 -7.8605E+00 -2.6930E-01  7.9809E+00
                               -5.0334E-01  2.5210E+01 -3.8588E+01  2.5147E+03

           1    2.00005E+01    -4.2194E-02 -1.7183E-02  9.7168E-01  9.7275E-01
ac ID =   33377                 8.7128E-01 -8.3922E+00 -9.2408E-02  8.4378E+00
                               -5.0418E-01  2.5345E+01 -3.8529E+01  2.5147E+03

           1    2.01005E+01    -1.1969E-02  1.4574E-02  9.8150E-01  9.8168E-01
ac ID =   33377                 8.2857E-01 -7.9410E+00  1.8167E-01  7.9862E+00
                               -5.0507E-01  2.5481E+01 -3.8472E+01  2.5147E+03

           1    2.02005E+01    -1.4729E-02 -1.4353E-02  9.7850E-01  9.7871E-01
ac ID =   33377                 1.1172E+00 -8.4410E+00  2.6774E-01  8.5188E+00
                               -5.0582E-01  2.5618E+01 -3.8417E+01  2.5147E+03

           1    2.03005E+01    -3.9216E-02 -1.8278E-02  9.4615E-01  9.4714E-01
ac ID =   33377                 1.5623E+00 -8.5842E+00 -1.9599E-03  8.7252E+00
                               -5.0654E-01  2.5757E+01 -3.8365E+01  2.5147E+03

           1    2.04005E+01    -1.8207E-02  5.4680E-03  9.2330E-01  9.2350E-01
ac ID =   33377                 7.3204E-01 -8.6465E+00 -3.0886E-01  8.6829E+00
                               -5.0719E-01  2.5895E+01 -3.8315E+01  2.5147E+03

           1    2.05004E+01    -2.2015E-03 -2.2284E-02  9.0873E-01  9.0901E-01
ac ID =   33377                 1.6327E+00 -8.5032E+00 -2.0977E-02  8.6585E+00
                               -5.0778E-01  2.6035E+01 -3.8268E+01  2.5147E+03

           1    2.06004E+01    -1.3154E-02 -1.3362E-02  8.9209E-01  8.9229E-01
ac ID =   33377                 1.5703E+00 -8.8811E+00  3.2968E-01  9.0249E+00
                               -5.0832E-01  2.6175E+01 -3.8222E+01  2.5147E+03

           1    2.07004E+01    -2.9810E-02 -7.4582E-03  8.6437E-01  8.6491E-01
ac ID =   33377                 1.1778E+00 -9.1837E+00  3.5300E-01  9.2656E+00
                               -5.0879E-01  2.6316E+01 -3.8178E+01  2.5147E+03

           1    2.08004E+01     3.6273E-03 -4.3445E-03  8.2345E-01  8.2347E-01
ac ID =   33377                 1.2564E+00 -8.6717E+00  2.5107E-01  8.7658E+00
                               -5.0922E-01  2.6458E+01 -3.8137E+01  2.5147E+03

           1    2.09004E+01    -3.7390E-03 -1.3695E-02  8.1745E-01  8.1758E-01
ac ID =   33377                 1.1954E+00 -8.7498E+00 -3.4586E-01  8.8378E+00
                               -5.0964E-01  2.6601E+01 -3.8097E+01  2.5147E+03

           1    2.10004E+01    -6.2804E-03 -5.1033E-03  8.2342E-01  8.2346E-01
ac ID =   33377                 1.2283E+00 -9.0833E+00 -4.6220E-01  9.1777E+00
                               -5.0997E-01  2.6744E+01 -3.8060E+01  2.5147E+03

           1    2.11004E+01     4.4014E-03 -5.6303E-03  7.7477E-01  7.7480E-01
ac ID =   33377                 9.7213E-01 -8.8252E+00 -2.1975E-01  8.8813E+00
                               -5.1023E-01  2.6888E+01 -3.8024E+01  2.5147E+03

           1    2.12004E+01     1.4618E-02 -1.1840E-02  7.3573E-01  7.3597E-01
ac ID =   33377                 1.3464E+00 -8.7533E+00  1.3805E-01  8.8573E+00
                               -5.1052E-01  2.7032E+01 -3.7991E+01  2.5147E+03

           1    2.13004E+01     5.5740E-03 -3.7273E-03  7.2615E-01  7.2619E-01
ac ID =   33377                 9.1489E-01 -9.0049E+00  2.5184E-01  9.0547E+00
                               -5.1068E-01  2.7178E+01 -3.7959E+01  2.5147E+03

           1    2.14004E+01     1.9609E-02 -1.7360E-02  6.8539E-01  6.8589E-01
ac ID =   33377                 1.2786E+00 -8.7904E+00 -2.6518E-01  8.8869E+00
                               -5.1079E-01  2.7323E+01 -3.7929E+01  2.5147E+03

           1    2.15003E+01     3.4375E-02 -7.0660E-03  6.5849E-01  6.5943E-01
ac ID =   33377                 1.2161E+00 -8.3863E+00 -3.2170E-01  8.4801E+00
                               -5.1091E-01  2.7470E+01 -3.7900E+01  2.5147E+03

           1    2.16003E+01     1.3093E-02 -9.7237E-03  6.1415E-01  6.1436E-01
ac ID =   33377                 1.2065E+00 -9.0646E+00 -8.3555E-02  9.1450E+00
                               -5.1099E-01  2.7616E+01 -3.7873E+01  2.5147E+03

           1    2.17003E+01     3.2379E-02  1.5404E-02  5.7524E-01  5.7635E-01
ac ID =   33377                 7.7340E-01 -9.0111E+00  3.0746E-01  9.0495E+00
                               -5.1094E-01  2.7763E+01 -3.7847E+01  2.5147E+03

           1    2.18003E+01     3.8060E-02 -4.6200E-03  5.4623E-01  5.4758E-01
ac ID =   33377                 7.3090E-01 -9.0263E+00  1.7627E-01  9.0576E+00
                               -5.1073E-01  2.7911E+01 -3.7823E+01  2.5147E+03

           1    2.19003E+01     3.0338E-02  1.1147E-03  5.3079E-01  5.3165E-01
ac ID =   33377                 6.8184E-01 -9.4446E+00 -4.2032E-01  9.4785E+00
                               -5.1053E-01  2.8058E+01 -3.7800E+01  2.5147E+03

           1    2.20003E+01     3.9943E-02 -2.0720E-02  4.9042E-01  4.9248E-01
ac ID =   33377                 1.1930E+00 -9.5272E+00 -6.1251E-01  9.6211E+00
                               -5.1031E-01  2.8206E+01 -3.7778E+01  2.5147E+03

           1    2.21003E+01     4.2610E-02  1.0087E-02  4.2025E-01  4.2252E-01
ac ID =   33377                 2.8790E-01 -9.4679E+00 -2.2231E-01  9.4749E+00
                               -5.1003E-01  2.8355E+01 -3.7757E+01  2.5147E+03

           1    2.22003E+01     4.2823E-02  1.2662E-02  3.9178E-01  3.9431E-01
ac ID =   33377                 6.2014E-01 -9.7217E+00  1.4481E-01  9.7425E+00
                               -5.0975E-01  2.8503E+01 -3.7737E+01  2.5147E+03

           1    2.23003E+01     2.9660E-02 -1.7249E-02  3.8485E-01  3.8638E-01
ac ID =   33377                 1.4402E+00 -1.0396E+01  1.7550E-01  1.0497E+01
                               -5.0927E-01  2.8652E+01 -3.7718E+01  2.5147E+03

           1    2.24003E+01     5.5194E-02  3.6207E-03  3.3580E-01  3.4032E-01
ac ID =   33377                 5.5569E-01 -9.9414E+00  5.5609E-02  9.9571E+00
                               -5.0869E-01  2.8801E+01 -3.7699E+01  2.5147E+03

           1    2.25002E+01     5.5018E-02  1.3178E-02  2.7823E-01  2.8392E-01
ac ID =   33377                 1.9016E-01 -1.0416E+01 -3.4692E-01  1.0423E+01
                               -5.0805E-01  2.8950E+01 -3.7681E+01  2.5147E+03

           1    2.26002E+01     3.9042E-02 -1.3645E-02  2.4846E-01  2.5188E-01
ac ID =   33377                 8.9634E-01 -1.0898E+01 -2.5577E-01  1.0938E+01
                               -5.0735E-01  2.9100E+01 -3.7664E+01  2.5147E+03

           1    2.27002E+01     6.8913E-02 -1.6572E-03  2.1188E-01  2.2281E-01
ac ID =   33377                 2.1653E-01 -1.0597E+01 -9.8815E-02  1.0600E+01
                               -5.0658E-01  2.9249E+01 -3.7647E+01  2.5147E+03

           1    2.28002E+01     5.7145E-02  4.0230E-03  1.6525E-01  1.7490E-01
ac ID =   33377                 4.0916E-01 -1.0942E+01 -7.9645E-02  1.0950E+01
                               -5.0586E-01  2.9399E+01 -3.7631E+01  2.5147E+03

           1    2.29002E+01     5.2450E-02 -9.8805E-03  1.2841E-01  1.3906E-01
ac ID =   33377                 6.7259E-01 -1.1129E+01 -4.3436E-02  1.1149E+01
                               -5.0512E-01  2.9549E+01 -3.7614E+01  2.5147E+03

           1    2.30002E+01     6.9762E-02  1.6015E-02  7.6047E-02  1.0443E-01
ac ID =   33377                 2.1753E-01 -1.0789E+01 -3.4601E-01  1.0797E+01
                               -5.0436E-01  2.9699E+01 -3.7598E+01  2.5147E+03

           1    2.31002E+01     6.2381E-02 -1.0586E-02  5.6931E-02  8.5115E-02
ac ID =   33377                 5.7046E-01 -1.1158E+01 -3.1092E-01  1.1177E+01
                               -5.0346E-01  2.9849E+01 -3.7583E+01  2.5147E+03

           1    2.32002E+01     9.7465E-02  7.2314E-03  4.7957E-04  9.7734E-02
ac ID =   33377                 1.2755E-01 -1.0464E+01  1.3103E-01  1.0465E+01
                               -5.0255E-01  2.9999E+01 -3.7567E+01  2.5147E+03

           1    2.33002E+01     7.2198E-02 -9.2469E-03 -1.8289E-02  7.5050E-02
ac ID =   33377                 4.2945E-01 -1.1021E+01 -1.1702E-01  1.1030E+01
                               -5.0164E-01  3.0149E+01 -3.7551E+01  2.5147E+03

           1    2.34002E+01     9.2039E-02  2.1522E-02 -7.4881E-02  1.2059E-01
ac ID =   33377                -2.1824E-01 -1.1073E+01 -1.8260E-01  1.1077E+01
                               -5.0067E-01  3.0298E+01 -3.7535E+01  2.5147E+03

           1    2.35001E+01     1.0247E-01  1.1646E-02 -1.0669E-01  1.4838E-01
ac ID =   33377                -2.8838E-01 -1.0620E+01 -4.0690E-01  1.0632E+01
                               -4.9963E-01  3.0448E+01 -3.7518E+01  2.5147E+03

           1    2.36001E+01     9.7891E-02 -1.0042E-02 -1.2168E-01  1.5649E-01
ac ID =   33377                 2.2414E-01 -1.0978E+01 -1.5662E-01  1.0981E+01
                               -4.9861E-01  3.0597E+01 -3.7502E+01  2.5147E+03

           1    2.37001E+01     1.1187E-01  2.0385E-02 -1.7634E-01  2.0983E-01
ac ID =   33377                -4.4369E-01 -1.0487E+01  6.0380E-03  1.0496E+01
                               -4.9755E-01  3.0747E+01 -3.7485E+01  2.5147E+03

           1    2.38001E+01     1.1789E-01  1.5470E-02 -2.3674E-01  2.6492E-01
ac ID =   33377                -4.0573E-01 -1.0199E+01  8.6960E-02  1.0207E+01
                               -4.9641E-01  3.0896E+01 -3.7467E+01  2.5147E+03

           1    2.39001E+01     1.3586E-01  2.1969E-03 -2.4201E-01  2.7755E-01
ac ID =   33377                -5.0996E-02 -1.0072E+01 -7.1280E-02  1.0073E+01
                               -4.9522E-01  3.1045E+01 -3.7449E+01  2.5147E+03

           1    2.40001E+01     1.2346E-01 -1.6168E-02 -2.5553E-01  2.8425E-01
ac ID =   33377                 4.3848E-01 -1.0062E+01 -4.6435E-01  1.0082E+01
                               -4.9404E-01  3.1193E+01 -3.7430E+01  2.5147E+03

           1    2.41001E+01     1.4066E-01  3.2403E-03 -3.1067E-01  3.4104E-01
ac ID =   33377                -1.8401E-01 -9.6767E+00 -1.9957E-01  9.6805E+00
                               -4.9290E-01  3.1342E+01 -3.7410E+01  2.5147E+03

           1    2.42001E+01     1.3686E-01  1.1804E-02 -3.4169E-01  3.6827E-01
ac ID =   33377                -2.6007E-01 -9.6176E+00  2.0961E-02  9.6211E+00
                               -4.9177E-01  3.1489E+01 -3.7389E+01  2.5147E+03

           1    2.43001E+01     1.5425E-01 -7.5180E-03 -3.6759E-01  3.9871E-01
ac ID =   33377                 1.5234E-01 -9.3684E+00 -1.8026E-01  9.3714E+00
                               -4.9061E-01  3.1637E+01 -3.7368E+01  2.5147E+03

           1    2.44001E+01     1.4065E-01 -4.9691E-03 -3.7483E-01  4.0038E-01
ac ID =   33377                 5.9187E-02 -9.2400E+00 -3.9610E-01  9.2486E+00
                               -4.8946E-01  3.1784E+01 -3.7346E+01  2.5147E+03

           1    2.45005E+01     1.6652E-01  1.6758E-02 -4.1913E-01  4.5132E-01
ac ID =   33377                -6.3473E-01 -9.1893E+00 -3.6505E-01  9.2185E+00
                               -4.8835E-01  3.1932E+01 -3.7323E+01  2.5147E+03

           1    2.46005E+01     1.7563E-01 -4.0162E-03 -4.5279E-01  4.8567E-01
ac ID =   33377                 3.3594E-02 -8.8448E+00 -1.0303E-01  8.8455E+00
                               -4.8724E-01  3.2078E+01 -3.7298E+01  2.5147E+03

           1    2.47005E+01     1.5825E-01  5.7888E-04 -4.6591E-01  4.9206E-01
ac ID =   33377                -1.6009E-01 -9.2116E+00  1.6318E-02  9.2130E+00
                               -4.8615E-01  3.2223E+01 -3.7273E+01  2.5147E+03

           1    2.48005E+01     1.7944E-01 -2.5307E-03 -5.0157E-01  5.3271E-01
ac ID =   33377                -1.8663E-01 -8.4503E+00 -5.1618E-02  8.4525E+00
                               -4.8509E-01  3.2369E+01 -3.7247E+01  2.5147E+03

           1    2.49005E+01     1.8360E-01  5.1348E-03 -5.0381E-01  5.3625E-01
ac ID =   33377                -2.4662E-01 -8.3863E+00 -2.8618E-01  8.3948E+00
                               -4.8408E-01  3.2513E+01 -3.7219E+01  2.5147E+03

