 LSTC 50th% Full_FE H-III Dummy (Beta Version, February 17, 2019)        
                    ls-dyna smp s R16 R16.0_619_d222963 date 03/18/2025

{BEGIN LEGEND}
 Entity #        Title
    22626                                                                                     
{END LEGEND}




 n o d a l   p r i n t   o u t   f o r   t i m e  s t e p       1                              ( at time 0.0000000E+00 )

 nodal point  x-disp     y-disp      z-disp      x-vel       y-vel       z-vel      x-accl      y-accl      z-accl      x-coor      y-coor      z-coor
    22626  0.00000E+00 0.00000E+00 0.00000E+00 0.00000E+00 0.00000E+00 0.00000E+00 0.00000E+00 0.00000E+00 0.00000E+00 4.65938E+00-2.81908E+01-4.49817E+01



 n o d a l   p r i n t   o u t   f o r   t i m e  s t e p       1                              ( at time 0.0000000E+00 )

 nodal point  x-rot      y-rot       z-rot       x-rot vel   y-rot vel   z-rot vel   x-rot acc   y-rot acc   z-rot acc
    22626  0.00000E+00 0.00000E+00 0.00000E+00 0.00000E+00 0.00000E+00 0.00000E+00 0.00000E+00 0.00000E+00 0.00000E+00



 n o d a l   p r i n t   o u t   f o r   t i m e  s t e p     201                              ( at time 9.9989993E-02 )

 nodal point  x-disp     y-disp      z-disp      x-vel       y-vel       z-vel      x-accl      y-accl      z-accl      x-coor      y-coor      z-coor
    22626  2.73575E-07 1.73669E-06-5.34278E-05 4.19751E-05 2.55596E-04-1.46819E-03 4.19793E-04 2.55621E-03-1.46834E-02 4.65938E+00-2.81908E+01-4.49818E+01



 n o d a l   p r i n t   o u t   f o r   t i m e  s t e p     201                              ( at time 9.9989993E-02 )

 nodal point  x-rot      y-rot       z-rot       x-rot vel   y-rot vel   z-rot vel   x-rot acc   y-rot acc   z-rot acc
    22626 -5.98980E-08-8.38467E-09-5.45921E-09-5.86955E-06-9.69951E-07-9.27110E-07-5.87014E-05-9.70048E-06-9.27203E-06



 n o d a l   p r i n t   o u t   f o r   t i m e  s t e p     401                              ( at time 1.9997999E-01 )

 nodal point  x-disp     y-disp      z-disp      x-vel       y-vel       z-vel      x-accl      y-accl      z-accl      x-coor      y-coor      z-coor
    22626  1.73139E-05 3.61743E-04-6.67589E-04 3.06846E-05 7.81056E-03-1.21529E-02-1.12917E-04 7.55572E-02-1.06857E-01 4.65939E+00-2.81905E+01-4.49824E+01



 n o d a l   p r i n t   o u t   f o r   t i m e  s t e p     401                              ( at time 1.9997999E-01 )

 nodal point  x-rot      y-rot       z-rot       x-rot vel   y-rot vel   z-rot vel   x-rot acc   y-rot acc   z-rot acc
    22626 -2.81988E-06-3.37281E-07-3.34695E-07-3.93815E-05-1.76356E-06-2.29730E-06-3.35153E-04-7.93691E-06-1.37033E-05



 n o d a l   p r i n t   o u t   f o r   t i m e  s t e p     601                              ( at time 2.9996998E-01 )

 nodal point  x-disp     y-disp      z-disp      x-vel       y-vel       z-vel      x-accl      y-accl      z-accl      x-coor      y-coor      z-coor
    22626  2.73594E-05 1.24009E-03-2.33844E-03 4.21292E-04 8.45030E-03-1.92583E-02 3.90647E-03 6.39804E-03-7.10610E-02 4.65940E+00-2.81896E+01-4.49841E+01



 n o d a l   p r i n t   o u t   f o r   t i m e  s t e p     601                              ( at time 2.9996998E-01 )

 nodal point  x-rot      y-rot       z-rot       x-rot vel   y-rot vel   z-rot vel   x-rot acc   y-rot acc   z-rot acc
    22626 -5.38405E-06-3.90699E-07-6.42359E-07-1.54911E-05-5.50744E-06-6.66719E-06 2.38927E-04-3.74425E-05-4.37032E-05



 n o d a l   p r i n t   o u t   f o r   t i m e  s t e p     801                              ( at time 3.9995997E-01 )

 nodal point  x-disp     y-disp      z-disp      x-vel       y-vel       z-vel      x-accl      y-accl      z-accl      x-coor      y-coor      z-coor
    22626  2.60269E-05 2.16241E-03-4.28291E-03-3.14513E-04 1.07391E-02-2.10851E-02-7.35878E-03 2.28901E-02-1.82698E-02 4.65940E+00-2.81887E+01-4.49860E+01



 n o d a l   p r i n t   o u t   f o r   t i m e  s t e p     801                              ( at time 3.9995997E-01 )

 nodal point  x-rot      y-rot       z-rot       x-rot vel   y-rot vel   z-rot vel   x-rot acc   y-rot acc   z-rot acc
    22626 -7.61696E-06-1.25010E-06-9.81473E-07-4.48902E-05-6.20736E-06-1.52056E-06-2.94020E-04-6.99987E-06 5.14713E-05



 n o d a l   p r i n t   o u t   f o r   t i m e  s t e p    1001                              ( at time 4.9994997E-01 )

 nodal point  x-disp     y-disp      z-disp      x-vel       y-vel       z-vel      x-accl      y-accl      z-accl      x-coor      y-coor      z-coor
    22626  3.70431E-06 3.43648E-03-6.74478E-03-2.42358E-04 1.41489E-02-2.87077E-02 7.21614E-04 3.41013E-02-7.62341E-02 4.65938E+00-2.81874E+01-4.49885E+01



 n o d a l   p r i n t   o u t   f o r   t i m e  s t e p    1001                              ( at time 4.9994997E-01 )

 nodal point  x-rot      y-rot       z-rot       x-rot vel   y-rot vel   z-rot vel   x-rot acc   y-rot acc   z-rot acc
    22626 -1.35615E-05-1.16569E-06-9.49940E-07-8.42328E-05 3.19340E-06 4.16097E-06-3.93466E-04 9.40170E-05 5.68211E-05



 n o d a l   p r i n t   o u t   f o r   t i m e  s t e p    1201                              ( at time 5.9993996E-01 )

 nodal point  x-disp     y-disp      z-disp      x-vel       y-vel       z-vel      x-accl      y-accl      z-accl      x-coor      y-coor      z-coor
    22626 -8.79044E-07 5.01223E-03-9.71617E-03 4.71961E-05 1.66994E-02-3.09907E-02 2.89584E-03 2.55078E-02-2.28324E-02 4.65937E+00-2.81858E+01-4.49914E+01



 n o d a l   p r i n t   o u t   f o r   t i m e  s t e p    1201                              ( at time 5.9993996E-01 )

 nodal point  x-rot      y-rot       z-rot       x-rot vel   y-rot vel   z-rot vel   x-rot acc   y-rot acc   z-rot acc
    22626 -2.02867E-05-8.87007E-07-9.57803E-07-5.90187E-05 3.87555E-06-2.01835E-06 2.52167E-04 6.82220E-06-6.17994E-05



 n o d a l   p r i n t   o u t   f o r   t i m e  s t e p    1401                              ( at time 6.9992995E-01 )

 nodal point  x-disp     y-disp      z-disp      x-vel       y-vel       z-vel      x-accl      y-accl      z-accl      x-coor      y-coor      z-coor
    22626 -5.09752E-05 6.85041E-03-1.31710E-02-4.89881E-04 1.96583E-02-3.89655E-02-5.37131E-03 2.95916E-02-7.97556E-02 4.65932E+00-2.81840E+01-4.49949E+01



 n o d a l   p r i n t   o u t   f o r   t i m e  s t e p    1401                              ( at time 6.9992995E-01 )

 nodal point  x-rot      y-rot       z-rot       x-rot vel   y-rot vel   z-rot vel   x-rot acc   y-rot acc   z-rot acc
    22626 -2.62089E-05-9.01023E-07-6.32753E-07-7.09816E-05 2.77584E-07 3.85300E-06-1.19641E-04-3.59833E-05 5.87193E-05



 n o d a l   p r i n t   o u t   f o r   t i m e  s t e p    1601                              ( at time 7.9991994E-01 )

 nodal point  x-disp     y-disp      z-disp      x-vel       y-vel       z-vel      x-accl      y-accl      z-accl      x-coor      y-coor      z-coor
    22626 -8.02737E-05 8.98676E-03-1.74643E-02-5.00788E-04 2.21618E-02-4.51208E-02-1.09079E-04 2.50378E-02-6.15596E-02 4.65929E+00-2.81818E+01-4.49992E+01



 n o d a l   p r i n t   o u t   f o r   t i m e  s t e p    1601                              ( at time 7.9991994E-01 )

 nodal point  x-rot      y-rot       z-rot       x-rot vel   y-rot vel   z-rot vel   x-rot acc   y-rot acc   z-rot acc
    22626 -3.43991E-05-8.78849E-07-5.14868E-07-9.19684E-05-4.76971E-06 1.59121E-06-2.09888E-04-5.04780E-05-2.26202E-05



 n o d a l   p r i n t   o u t   f o r   t i m e  s t e p    1801                              ( at time 8.9990994E-01 )

 nodal point  x-disp     y-disp      z-disp      x-vel       y-vel       z-vel      x-accl      y-accl      z-accl      x-coor      y-coor      z-coor
    22626 -1.16839E-04 1.12542E-02-2.19906E-02-2.85486E-04 2.40439E-02-4.55864E-02 2.15323E-03 1.88232E-02-4.65641E-03 4.65926E+00-2.81796E+01-4.50037E+01



 n o d a l   p r i n t   o u t   f o r   t i m e  s t e p    1801                              ( at time 8.9990994E-01 )

 nodal point  x-rot      y-rot       z-rot       x-rot vel   y-rot vel   z-rot vel   x-rot acc   y-rot acc   z-rot acc
    22626 -4.28173E-05-9.57856E-07-5.02070E-07-8.24597E-05 1.94489E-06-6.91911E-07 9.50967E-05 6.71527E-05-2.28335E-05



 n o d a l   p r i n t   o u t   f o r   t i m e  s t e p    2001                              ( at time 9.9989993E-01 )

 nodal point  x-disp     y-disp      z-disp      x-vel       y-vel       z-vel      x-accl      y-accl      z-accl      x-coor      y-coor      z-coor
    22626 -1.52055E-04 1.37913E-02-2.67304E-02-3.63897E-05 2.65012E-02-5.00347E-02 2.49121E-03 2.45757E-02-4.44876E-02 4.65922E+00-2.81770E+01-4.50084E+01



 n o d a l   p r i n t   o u t   f o r   t i m e  s t e p    2001                              ( at time 9.9989993E-01 )

 nodal point  x-rot      y-rot       z-rot       x-rot vel   y-rot vel   z-rot vel   x-rot acc   y-rot acc   z-rot acc
    22626 -5.18484E-05-9.07838E-07-4.37629E-07-1.06158E-04 1.28634E-06-2.97981E-06-2.37004E-04-6.58616E-06-2.28813E-05



 n o d a l   p r i n t   o u t   f o r   t i m e  s t e p    2201                              ( at time 1.0998899E+00 )

 nodal point  x-disp     y-disp      z-disp      x-vel       y-vel       z-vel      x-accl      y-accl      z-accl      x-coor      y-coor      z-coor
    22626 -1.59817E-04 1.65322E-02-3.20559E-02-3.41685E-04 2.88845E-02-5.60796E-02-3.05326E-03 2.38348E-02-6.04545E-02 4.65921E+00-2.81743E+01-4.50138E+01



 n o d a l   p r i n t   o u t   f o r   t i m e  s t e p    2201                              ( at time 1.0998899E+00 )

 nodal point  x-rot      y-rot       z-rot       x-rot vel   y-rot vel   z-rot vel   x-rot acc   y-rot acc   z-rot acc
    22626 -6.29460E-05-1.00499E-06-7.49084E-07-1.03737E-04-7.60534E-06-2.04905E-06 2.42094E-05-8.89258E-05 9.30856E-06



 n o d a l   p r i n t   o u t   f o r   t i m e  s t e p    2401                              ( at time 1.1998799E+00 )

 nodal point  x-disp     y-disp      z-disp      x-vel       y-vel       z-vel      x-accl      y-accl      z-accl      x-coor      y-coor      z-coor
    22626 -1.89765E-04 1.94752E-02-3.79328E-02-1.93906E-04 3.02259E-02-6.12084E-02 1.47793E-03 1.34157E-02-5.12930E-02 4.65919E+00-2.81714E+01-4.50197E+01



 n o d a l   p r i n t   o u t   f o r   t i m e  s t e p    2401                              ( at time 1.1998799E+00 )

 nodal point  x-rot      y-rot       z-rot       x-rot vel   y-rot vel   z-rot vel   x-rot acc   y-rot acc   z-rot acc
    22626 -7.29513E-05-1.61449E-06-9.90604E-07-1.01147E-04-7.23876E-06-3.03549E-06 2.59006E-05 3.66624E-06-9.86542E-06



 n o d a l   p r i n t   o u t   f o r   t i m e  s t e p    2601                              ( at time 1.2998699E+00 )

 nodal point  x-disp     y-disp      z-disp      x-vel       y-vel       z-vel      x-accl      y-accl      z-accl      x-coor      y-coor      z-coor
    22626 -2.23883E-04 2.26249E-02-4.42079E-02-2.49962E-04 3.26032E-02-6.40515E-02-5.60612E-04 2.37753E-02-2.84343E-02 4.65915E+00-2.81682E+01-4.50259E+01



 n o d a l   p r i n t   o u t   f o r   t i m e  s t e p    2601                              ( at time 1.2998699E+00 )

 nodal point  x-rot      y-rot       z-rot       x-rot vel   y-rot vel   z-rot vel   x-rot acc   y-rot acc   z-rot acc
    22626 -8.39936E-05-2.17076E-06-1.24597E-06-1.29212E-04 2.10480E-08-1.41376E-06-2.80674E-04 7.26053E-05 1.62189E-05



 n o d a l   p r i n t   o u t   f o r   t i m e  s t e p    2801                              ( at time 1.3998599E+00 )

 nodal point  x-disp     y-disp      z-disp      x-vel       y-vel       z-vel      x-accl      y-accl      z-accl      x-coor      y-coor      z-coor
    22626 -2.51469E-04 2.59923E-02-5.07122E-02-4.50099E-04 3.45147E-02-6.66715E-02-2.00157E-03 1.91172E-02-2.62030E-02 4.65912E+00-2.81648E+01-4.50324E+01



 n o d a l   p r i n t   o u t   f o r   t i m e  s t e p    2801                              ( at time 1.3998599E+00 )

 nodal point  x-rot      y-rot       z-rot       x-rot vel   y-rot vel   z-rot vel   x-rot acc   y-rot acc   z-rot acc
    22626 -9.73997E-05-2.01128E-06-1.34422E-06-1.36932E-04-1.58311E-07 1.78836E-06-7.72064E-05-1.79377E-06 3.20244E-05



 n o d a l   p r i n t   o u t   f o r   t i m e  s t e p    3001                              ( at time 1.4998499E+00 )

 nodal point  x-disp     y-disp      z-disp      x-vel       y-vel       z-vel      x-accl      y-accl      z-accl      x-coor      y-coor      z-coor
    22626 -2.96339E-04 2.95911E-02-5.77242E-02-4.48122E-04 3.72816E-02-7.39868E-02 1.97705E-05 2.76715E-02-7.31595E-02 4.65908E+00-2.81612E+01-4.50394E+01



 n o d a l   p r i n t   o u t   f o r   t i m e  s t e p    3001                              ( at time 1.4998499E+00 )

 nodal point  x-rot      y-rot       z-rot       x-rot vel   y-rot vel   z-rot vel   x-rot acc   y-rot acc   z-rot acc
    22626 -1.10707E-04-2.03040E-06-1.27045E-06-1.28644E-04-1.03429E-06-1.70405E-06 8.28843E-05-8.76069E-06-3.49276E-05



 n o d a l   p r i n t   o u t   f o r   t i m e  s t e p    3201                              ( at time 1.5998399E+00 )

 nodal point  x-disp     y-disp      z-disp      x-vel       y-vel       z-vel      x-accl      y-accl      z-accl      x-coor      y-coor      z-coor
    22626 -3.60131E-04 3.34891E-02-6.54465E-02-5.84807E-04 4.05388E-02-7.97060E-02-1.36699E-03 3.25753E-02-5.71985E-02 4.65901E+00-2.81573E+01-4.50472E+01



 n o d a l   p r i n t   o u t   f o r   t i m e  s t e p    3201                              ( at time 1.5998399E+00 )

 nodal point  x-rot      y-rot       z-rot       x-rot vel   y-rot vel   z-rot vel   x-rot acc   y-rot acc   z-rot acc
    22626 -1.23312E-04-2.14835E-06-1.09756E-06-1.34799E-04-2.97137E-06 3.06632E-06-6.15586E-05-1.93727E-05 4.77084E-05



 n o d a l   p r i n t   o u t   f o r   t i m e  s t e p    3401                              ( at time 1.6998299E+00 )

 nodal point  x-disp     y-disp      z-disp      x-vel       y-vel       z-vel      x-accl      y-accl      z-accl      x-coor      y-coor      z-coor
    22626 -4.21713E-04 3.76416E-02-7.35823E-02-7.28179E-04 4.22360E-02-8.25899E-02-1.43386E-03 1.69740E-02-2.88415E-02 4.65895E+00-2.81532E+01-4.50553E+01



 n o d a l   p r i n t   o u t   f o r   t i m e  s t e p    3401                              ( at time 1.6998299E+00 )

 nodal point  x-rot      y-rot       z-rot       x-rot vel   y-rot vel   z-rot vel   x-rot acc   y-rot acc   z-rot acc
    22626 -1.37611E-04-2.15231E-06-9.08580E-07-1.47629E-04 1.69066E-06 3.94004E-06-1.28314E-04 4.66250E-05 8.73806E-06



 n o d a l   p r i n t   o u t   f o r   t i m e  s t e p    3601                              ( at time 1.7998199E+00 )

 nodal point  x-disp     y-disp      z-disp      x-vel       y-vel       z-vel      x-accl      y-accl      z-accl      x-coor      y-coor      z-coor
    22626 -4.84828E-04 4.19002E-02-8.19598E-02-5.08668E-04 4.32795E-02-8.48726E-02 2.19533E-03 1.04360E-02-2.28293E-02 4.65889E+00-2.81489E+01-4.50637E+01



 n o d a l   p r i n t   o u t   f o r   t i m e  s t e p    3601                              ( at time 1.7998199E+00 )

 nodal point  x-rot      y-rot       z-rot       x-rot vel   y-rot vel   z-rot vel   x-rot acc   y-rot acc   z-rot acc
    22626 -1.52819E-04-2.06387E-06-7.77097E-07-1.49847E-04 1.44515E-06-1.45258E-06-2.21776E-05-2.45540E-06-5.39316E-05



 n o d a l   p r i n t   o u t   f o r   t i m e  s t e p    3801                              ( at time 1.8998099E+00 )

 nodal point  x-disp     y-disp      z-disp      x-vel       y-vel       z-vel      x-accl      y-accl      z-accl      x-coor      y-coor      z-coor
    22626 -5.44141E-04 4.63776E-02-9.06359E-02-5.21644E-04 4.60746E-02-8.88719E-02-1.29772E-04 2.79532E-02-3.99971E-02 4.65883E+00-2.81445E+01-4.50724E+01



 n o d a l   p r i n t   o u t   f o r   t i m e  s t e p    3801                              ( at time 1.8998099E+00 )

 nodal point  x-rot      y-rot       z-rot       x-rot vel   y-rot vel   z-rot vel   x-rot acc   y-rot acc   z-rot acc
    22626 -1.67675E-04-1.85421E-06-6.47263E-07-1.49827E-04-1.51814E-06-5.08915E-07 2.00691E-07-2.96359E-05 9.43762E-06



 n o d a l   p r i n t   o u t   f o r   t i m e  s t e p    4001                              ( at time 1.9997999E+00 )

 nodal point  x-disp     y-disp      z-disp      x-vel       y-vel       z-vel      x-accl      y-accl      z-accl      x-coor      y-coor      z-coor
    22626 -5.95004E-04 5.10272E-02-9.97454E-02-5.48025E-04 4.71680E-02-9.31106E-02-2.63843E-04 1.09355E-02-4.23914E-02 4.65878E+00-2.81398E+01-4.50815E+01



 n o d a l   p r i n t   o u t   f o r   t i m e  s t e p    4001                              ( at time 1.9997999E+00 )

 nodal point  x-rot      y-rot       z-rot       x-rot vel   y-rot vel   z-rot vel   x-rot acc   y-rot acc   z-rot acc
    22626 -1.82765E-04-2.08923E-06-6.97503E-07-1.56013E-04-4.61318E-06-1.39470E-07-6.18689E-05-3.09535E-05 3.69482E-06



 n o d a l   p r i n t   o u t   f o r   t i m e  s t e p    4201                              ( at time 2.0997899E+00 )

 nodal point  x-disp     y-disp      z-disp      x-vel       y-vel       z-vel      x-accl      y-accl      z-accl      x-coor      y-coor      z-coor
    22626 -6.49095E-04 5.57837E-02-1.09162E-01-5.57312E-04 4.81950E-02-9.53048E-02-9.28767E-05 1.02709E-02-2.19439E-02 4.65873E+00-2.81350E+01-4.50909E+01



 n o d a l   p r i n t   o u t   f o r   t i m e  s t e p    4201                              ( at time 2.0997899E+00 )

 nodal point  x-rot      y-rot       z-rot       x-rot vel   y-rot vel   z-rot vel   x-rot acc   y-rot acc   z-rot acc
    22626 -1.97945E-04-2.47964E-06-8.61382E-07-1.50017E-04-1.59168E-06 2.03028E-06 5.99618E-05 3.02180E-05 2.16997E-05



 n o d a l   p r i n t   o u t   f o r   t i m e  s t e p    4401                              ( at time 2.1997798E+00 )

 nodal point  x-disp     y-disp      z-disp      x-vel       y-vel       z-vel      x-accl      y-accl      z-accl      x-coor      y-coor      z-coor
    22626 -7.07808E-04 6.06673E-02-1.18761E-01-4.99415E-04 4.91674E-02-9.67330E-02 5.79027E-04 9.72474E-03-1.42841E-02 4.65867E+00-2.81302E+01-4.51005E+01



 n o d a l   p r i n t   o u t   f o r   t i m e  s t e p    4401                              ( at time 2.1997798E+00 )

 nodal point  x-rot      y-rot       z-rot       x-rot vel   y-rot vel   z-rot vel   x-rot acc   y-rot acc   z-rot acc
    22626 -2.13319E-04-2.58679E-06-8.58043E-07-1.59207E-04-1.56634E-06-9.58602E-07-9.19055E-05 2.53411E-07-2.98918E-05



 n o d a l   p r i n t   o u t   f o r   t i m e  s t e p    4601                              ( at time 2.2997698E+00 )

 nodal point  x-disp     y-disp      z-disp      x-vel       y-vel       z-vel      x-accl      y-accl      z-accl      x-coor      y-coor      z-coor
    22626 -7.62976E-04 6.56143E-02-1.28510E-01-6.47325E-04 5.01871E-02-9.87444E-02-1.47925E-03 1.01984E-02-2.01155E-02 4.65861E+00-2.81252E+01-4.51102E+01



 n o d a l   p r i n t   o u t   f o r   t i m e  s t e p    4601                              ( at time 2.2997698E+00 )

 nodal point  x-rot      y-rot       z-rot       x-rot vel   y-rot vel   z-rot vel   x-rot acc   y-rot acc   z-rot acc
    22626 -2.29836E-04-2.51959E-06-8.66895E-07-1.61306E-04 8.48493E-07-9.65267E-07-2.09881E-05 2.41507E-05-6.66657E-08



 n o d a l   p r i n t   o u t   f o r   t i m e  s t e p    4801                              ( at time 2.3997598E+00 )

 nodal point  x-disp     y-disp      z-disp      x-vel       y-vel       z-vel      x-accl      y-accl      z-accl      x-coor      y-coor      z-coor
    22626 -8.37351E-04 7.07391E-02-1.38609E-01-7.64049E-04 5.20300E-02-1.03265E-01-1.16736E-03 1.84308E-02-4.52094E-02 4.65854E+00-2.81201E+01-4.51203E+01



 n o d a l   p r i n t   o u t   f o r   t i m e  s t e p    4801                              ( at time 2.3997598E+00 )

 nodal point  x-rot      y-rot       z-rot       x-rot vel   y-rot vel   z-rot vel   x-rot acc   y-rot acc   z-rot acc
    22626 -2.45589E-04-2.51236E-06-5.95220E-07-1.55469E-04-6.82809E-08 4.19696E-06 5.83781E-05-9.16867E-06 5.16274E-05



 n o d a l   p r i n t   o u t   f o r   t i m e  s t e p    5001                              ( at time 2.4997498E+00 )

 nodal point  x-disp     y-disp      z-disp      x-vel       y-vel       z-vel      x-accl      y-accl      z-accl      x-coor      y-coor      z-coor
    22626 -9.18599E-04 7.60401E-02-1.49107E-01-9.26956E-04 5.34314E-02-1.05950E-01-1.62923E-03 1.40153E-02-2.68588E-02 4.65846E+00-2.81148E+01-4.51308E+01



 n o d a l   p r i n t   o u t   f o r   t i m e  s t e p    5001                              ( at time 2.4997498E+00 )

 nodal point  x-rot      y-rot       z-rot       x-rot vel   y-rot vel   z-rot vel   x-rot acc   y-rot acc   z-rot acc
    22626 -2.61160E-04-2.39180E-06-3.33127E-07-1.54736E-04 1.76845E-06 4.32735E-06 7.32732E-06 1.83691E-05 1.30411E-06



 n o d a l   p r i n t   o u t   f o r   t i m e  s t e p    5201                              ( at time 2.5997398E+00 )

 nodal point  x-disp     y-disp      z-disp      x-vel       y-vel       z-vel      x-accl      y-accl      z-accl      x-coor      y-coor      z-coor
    22626 -1.00936E-03 8.13922E-02-1.59710E-01-9.90169E-04 5.34916E-02-1.06024E-01-6.32195E-04 6.02552E-04-7.31348E-04 4.65837E+00-2.81094E+01-4.51414E+01



 n o d a l   p r i n t   o u t   f o r   t i m e  s t e p    5201                              ( at time 2.5997398E+00 )

 nodal point  x-rot      y-rot       z-rot       x-rot vel   y-rot vel   z-rot vel   x-rot acc   y-rot acc   z-rot acc
    22626 -2.76667E-04-2.06420E-06 5.92318E-08-1.51548E-04 5.13780E-06 4.96043E-06 3.18786E-05 3.36969E-05 6.33144E-06



 n o d a l   p r i n t   o u t   f o r   t i m e  s t e p    5401                              ( at time 2.6997298E+00 )

 nodal point  x-disp     y-disp      z-disp      x-vel       y-vel       z-vel      x-accl      y-accl      z-accl      x-coor      y-coor      z-coor
    22626 -1.10745E-03 8.67283E-02-1.70314E-01-8.11651E-04 5.35653E-02-1.06229E-01 1.78535E-03 7.36414E-04-2.05530E-03 4.65827E+00-2.81041E+01-4.51520E+01



 n o d a l   p r i n t   o u t   f o r   t i m e  s t e p    5401                              ( at time 2.6997298E+00 )

 nodal point  x-rot      y-rot       z-rot       x-rot vel   y-rot vel   z-rot vel   x-rot acc   y-rot acc   z-rot acc
    22626 -2.92380E-04-1.62540E-06 5.84041E-07-1.62997E-04 5.45904E-06 3.55788E-06-1.14494E-04 3.21277E-06-1.40269E-05



 n o d a l   p r i n t   o u t   f o r   t i m e  s t e p    5601                              ( at time 2.7997198E+00 )

 nodal point  x-disp     y-disp      z-disp      x-vel       y-vel       z-vel      x-accl      y-accl      z-accl      x-coor      y-coor      z-coor
    22626 -1.19451E-03 9.21214E-02-1.80982E-01-8.86239E-04 5.42796E-02-1.07485E-01-7.45959E-04 7.14356E-03-1.25594E-02 4.65818E+00-2.80987E+01-4.51627E+01



 n o d a l   p r i n t   o u t   f o r   t i m e  s t e p    5601                              ( at time 2.7997198E+00 )

 nodal point  x-rot      y-rot       z-rot       x-rot vel   y-rot vel   z-rot vel   x-rot acc   y-rot acc   z-rot acc
    22626 -3.07868E-04-1.11413E-06 9.99903E-07-1.44660E-04 3.14626E-06 4.45346E-06 1.83384E-04-2.31302E-05 8.95669E-06



 n o d a l   p r i n t   o u t   f o r   t i m e  s t e p    5801                              ( at time 2.8997098E+00 )

 nodal point  x-disp     y-disp      z-disp      x-vel       y-vel       z-vel      x-accl      y-accl      z-accl      x-coor      y-coor      z-coor
    22626 -1.27572E-03 9.75422E-02-1.91832E-01-7.38994E-04 5.41913E-02-1.09473E-01 1.47261E-03-8.82238E-04-1.98778E-02 4.65810E+00-2.80933E+01-4.51736E+01



 n o d a l   p r i n t   o u t   f o r   t i m e  s t e p    5801                              ( at time 2.8997098E+00 )

 nodal point  x-rot      y-rot       z-rot       x-rot vel   y-rot vel   z-rot vel   x-rot acc   y-rot acc   z-rot acc
    22626 -3.21817E-04-9.19832E-07 1.29994E-06-1.40054E-04 5.86974E-07 3.61240E-06 4.60600E-05-2.55954E-05-8.41143E-06



 n o d a l   p r i n t   o u t   f o r   t i m e  s t e p    6001                              ( at time 2.9996998E+00 )

 nodal point  x-disp     y-disp      z-disp      x-vel       y-vel       z-vel      x-accl      y-accl      z-accl      x-coor      y-coor      z-coor
    22626 -1.35929E-03 1.02933E-01-2.02795E-01-7.29942E-04 5.35771E-02-1.09333E-01 9.05218E-05-6.14257E-03 1.39250E-03 4.65802E+00-2.80879E+01-4.51845E+01



 n o d a l   p r i n t   o u t   f o r   t i m e  s t e p    6001                              ( at time 2.9996998E+00 )

 nodal point  x-rot      y-rot       z-rot       x-rot vel   y-rot vel   z-rot vel   x-rot acc   y-rot acc   z-rot acc
    22626 -3.36593E-04-8.80705E-07 1.48331E-06-1.50136E-04 3.39683E-07 2.44199E-06-1.00829E-04-2.47316E-06-1.17052E-05



 n o d a l   p r i n t   o u t   f o r   t i m e  s t e p    6201                              ( at time 3.0996898E+00 )

 nodal point  x-disp     y-disp      z-disp      x-vel       y-vel       z-vel      x-accl      y-accl      z-accl      x-coor      y-coor      z-coor
    22626 -1.42812E-03 1.08282E-01-2.13684E-01-7.45180E-04 5.36031E-02-1.08920E-01-1.52387E-04 2.59157E-04 4.13720E-03 4.65795E+00-2.80825E+01-4.51954E+01



 n o d a l   p r i n t   o u t   f o r   t i m e  s t e p    6201                              ( at time 3.0996898E+00 )

 nodal point  x-rot      y-rot       z-rot       x-rot vel   y-rot vel   z-rot vel   x-rot acc   y-rot acc   z-rot acc
    22626 -3.51631E-04-8.07354E-07 1.74159E-06-1.49275E-04 5.77078E-08 4.52076E-06 8.61459E-06-2.82003E-06 2.07897E-05



 n o d a l   p r i n t   o u t   f o r   t i m e  s t e p    6401                              ( at time 3.1996798E+00 )

 nodal point  x-disp     y-disp      z-disp      x-vel       y-vel       z-vel      x-accl      y-accl      z-accl      x-coor      y-coor      z-coor
    22626 -1.49387E-03 1.13660E-01-2.24665E-01-6.47188E-04 5.39999E-02-1.10857E-01 9.80009E-04 3.96838E-03-1.93795E-02 4.65788E+00-2.80772E+01-4.52064E+01



 n o d a l   p r i n t   o u t   f o r   t i m e  s t e p    6401                              ( at time 3.1996798E+00 )

 nodal point  x-rot      y-rot       z-rot       x-rot vel   y-rot vel   z-rot vel   x-rot acc   y-rot acc   z-rot acc
    22626 -3.66470E-04-6.82034E-07 1.89104E-06-1.41974E-04 1.43918E-06 1.23871E-06 7.30156E-05 1.38161E-05-3.28238E-05



 n o d a l   p r i n t   o u t   f o r   t i m e  s t e p    6601                              ( at time 3.2996698E+00 )

 nodal point  x-disp     y-disp      z-disp      x-vel       y-vel       z-vel      x-accl      y-accl      z-accl      x-coor      y-coor      z-coor
    22626 -1.57207E-03 1.19081E-01-2.35856E-01-8.24717E-04 5.42929E-02-1.12735E-01-1.77547E-03 2.93113E-03-1.87827E-02 4.65780E+00-2.80717E+01-4.52176E+01



 n o d a l   p r i n t   o u t   f o r   t i m e  s t e p    6601                              ( at time 3.2996698E+00 )

 nodal point  x-rot      y-rot       z-rot       x-rot vel   y-rot vel   z-rot vel   x-rot acc   y-rot acc   z-rot acc
    22626 -3.80615E-04-5.10469E-07 2.14990E-06-1.38100E-04 2.29915E-06 2.70080E-06 3.87493E-05 8.60060E-06 1.46224E-05



 n o d a l   p r i n t   o u t   f o r   t i m e  s t e p    6801                              ( at time 3.3996598E+00 )

 nodal point  x-disp     y-disp      z-disp      x-vel       y-vel       z-vel      x-accl      y-accl      z-accl      x-coor      y-coor      z-coor
    22626 -1.65949E-03 1.24510E-01-2.47149E-01-9.67036E-04 5.40552E-02-1.13029E-01-1.42333E-03-2.37731E-03-2.93142E-03 4.65772E+00-2.80663E+01-4.52289E+01



 n o d a l   p r i n t   o u t   f o r   t i m e  s t e p    6801                              ( at time 3.3996598E+00 )

 nodal point  x-rot      y-rot       z-rot       x-rot vel   y-rot vel   z-rot vel   x-rot acc   y-rot acc   z-rot acc
    22626 -3.94337E-04-3.63695E-07 2.50048E-06-1.37016E-04 3.67742E-06 6.17366E-06 1.08392E-05 1.37841E-05 3.47320E-05



 n o d a l   p r i n t   o u t   f o r   t i m e  s t e p    7001                              ( at time 3.4996498E+00 )

 nodal point  x-disp     y-disp      z-disp      x-vel       y-vel       z-vel      x-accl      y-accl      z-accl      x-coor      y-coor      z-coor
    22626 -1.75285E-03 1.29862E-01-2.58387E-01-9.62366E-04 5.30917E-02-1.11676E-01 4.67036E-05-9.63625E-03 1.35310E-02 4.65762E+00-2.80610E+01-4.52401E+01



 n o d a l   p r i n t   o u t   f o r   t i m e  s t e p    7001                              ( at time 3.4996498E+00 )

 nodal point  x-rot      y-rot       z-rot       x-rot vel   y-rot vel   z-rot vel   x-rot acc   y-rot acc   z-rot acc
    22626 -4.08255E-04-2.60658E-08 2.95245E-06-1.37203E-04 4.66162E-06 4.28102E-06-1.87098E-06 9.84291E-06-1.89283E-05



 n o d a l   p r i n t   o u t   f o r   t i m e  s t e p    7201                              ( at time 3.5996397E+00 )

 nodal point  x-disp     y-disp      z-disp      x-vel       y-vel       z-vel      x-accl      y-accl      z-accl      x-coor      y-coor      z-coor
    22626 -1.84513E-03 1.35128E-01-2.69483E-01-8.07943E-04 5.20836E-02-1.10690E-01 1.54438E-03-1.00818E-02 9.85349E-03 4.65753E+00-2.80557E+01-4.52512E+01



 n o d a l   p r i n t   o u t   f o r   t i m e  s t e p    7201                              ( at time 3.5996397E+00 )

 nodal point  x-rot      y-rot       z-rot       x-rot vel   y-rot vel   z-rot vel   x-rot acc   y-rot acc   z-rot acc
    22626 -4.21643E-04 6.08188E-07 3.50821E-06-1.34821E-04 6.05148E-06 3.47872E-06 2.38211E-05 1.39000E-05-8.02385E-06



 n o d a l   p r i n t   o u t   f o r   t i m e  s t e p    7401                              ( at time 3.6996297E+00 )

 nodal point  x-disp     y-disp      z-disp      x-vel       y-vel       z-vel      x-accl      y-accl      z-accl      x-coor      y-coor      z-coor
    22626 -1.92928E-03 1.40297E-01-2.80552E-01-7.94426E-04 5.12860E-02-1.10789E-01 1.35186E-04-7.97686E-03-9.84468E-04 4.65745E+00-2.80505E+01-4.52623E+01



 n o d a l   p r i n t   o u t   f o r   t i m e  s t e p    7401                              ( at time 3.6996297E+00 )

 nodal point  x-rot      y-rot       z-rot       x-rot vel   y-rot vel   z-rot vel   x-rot acc   y-rot acc   z-rot acc
    22626 -4.34743E-04 1.10196E-06 3.93832E-06-1.26881E-04 3.02461E-06 3.97511E-06 7.94067E-05-3.02717E-05 4.96445E-06



 n o d a l   p r i n t   o u t   f o r   t i m e  s t e p    7601                              ( at time 3.7996197E+00 )

 nodal point  x-disp     y-disp      z-disp      x-vel       y-vel       z-vel      x-accl      y-accl      z-accl      x-coor      y-coor      z-coor
    22626 -2.00861E-03 1.45371E-01-2.91600E-01-7.72128E-04 5.01141E-02-1.09986E-01 2.23000E-04-1.17206E-02 8.03336E-03 4.65737E+00-2.80455E+01-4.52733E+01



 n o d a l   p r i n t   o u t   f o r   t i m e  s t e p    7601                              ( at time 3.7996197E+00 )

 nodal point  x-rot      y-rot       z-rot       x-rot vel   y-rot vel   z-rot vel   x-rot acc   y-rot acc   z-rot acc
    22626 -4.47071E-04 1.21933E-06 4.25464E-06-1.25057E-04-1.96760E-07 1.96935E-06 1.82406E-05-3.22170E-05-2.00596E-05



 n o d a l   p r i n t   o u t   f o r   t i m e  s t e p    7801                              ( at time 3.8996097E+00 )

 nodal point  x-disp     y-disp      z-disp      x-vel       y-vel       z-vel      x-accl      y-accl      z-accl      x-coor      y-coor      z-coor
    22626 -2.07405E-03 1.50325E-01-3.02516E-01-5.81812E-04 4.90066E-02-1.08235E-01 1.90335E-03-1.10757E-02 1.75079E-02 4.65730E+00-2.80405E+01-4.52842E+01



 n o d a l   p r i n t   o u t   f o r   t i m e  s t e p    7801                              ( at time 3.8996097E+00 )

 nodal point  x-rot      y-rot       z-rot       x-rot vel   y-rot vel   z-rot vel   x-rot acc   y-rot acc   z-rot acc
    22626 -4.59692E-04 1.22118E-06 4.42973E-06-1.34539E-04 6.87482E-07 8.52213E-07-9.48293E-05 8.84330E-06-1.11725E-05



 n o d a l   p r i n t   o u t   f o r   t i m e  s t e p    8001                              ( at time 3.9995997E+00 )

 nodal point  x-disp     y-disp      z-disp      x-vel       y-vel       z-vel      x-accl      y-accl      z-accl      x-coor      y-coor      z-coor
    22626 -2.12954E-03 1.55166E-01-3.13213E-01-5.36056E-04 4.81756E-02-1.05938E-01 4.57604E-04-8.31088E-03 2.29687E-02 4.65725E+00-2.80357E+01-4.52949E+01



 n o d a l   p r i n t   o u t   f o r   t i m e  s t e p    8001                              ( at time 3.9995997E+00 )

 nodal point  x-rot      y-rot       z-rot       x-rot vel   y-rot vel   z-rot vel   x-rot acc   y-rot acc   z-rot acc
    22626 -4.72727E-04 1.10401E-06 4.24595E-06-1.26979E-04-1.59138E-06-9.62571E-07 7.56089E-05-2.27909E-05-1.81497E-05



 n o d a l   p r i n t   o u t   f o r   t i m e  s t e p    8201                              ( at time 4.0995897E+00 )

 nodal point  x-disp     y-disp      z-disp      x-vel       y-vel       z-vel      x-accl      y-accl      z-accl      x-coor      y-coor      z-coor
    22626 -2.18060E-03 1.59979E-01-3.23765E-01-3.64377E-04 4.81110E-02-1.05429E-01 1.71696E-03-6.46476E-04 5.08970E-03 4.65719E+00-2.80309E+01-4.53055E+01



 n o d a l   p r i n t   o u t   f o r   t i m e  s t e p    8201                              ( at time 4.0995897E+00 )

 nodal point  x-rot      y-rot       z-rot       x-rot vel   y-rot vel   z-rot vel   x-rot acc   y-rot acc   z-rot acc
    22626 -4.84568E-04 1.04179E-06 4.26961E-06-1.18138E-04-2.77794E-07 2.21123E-06 8.84171E-05 1.31371E-05 3.17411E-05



 n o d a l   p r i n t   o u t   f o r   t i m e  s t e p    8401                              ( at time 4.1995797E+00 )

 nodal point  x-disp     y-disp      z-disp      x-vel       y-vel       z-vel      x-accl      y-accl      z-accl      x-coor      y-coor      z-coor
    22626 -2.21590E-03 1.64819E-01-3.34266E-01-3.75796E-04 4.89374E-02-1.04458E-01-1.14196E-04 8.26502E-03 9.71207E-03 4.65716E+00-2.80260E+01-4.53160E+01



 n o d a l   p r i n t   o u t   f o r   t i m e  s t e p    8401                              ( at time 4.1995797E+00 )

 nodal point  x-rot      y-rot       z-rot       x-rot vel   y-rot vel   z-rot vel   x-rot acc   y-rot acc   z-rot acc
    22626 -4.96358E-04 1.12208E-06 4.53236E-06-1.22248E-04 2.94357E-06 5.37464E-06-4.10980E-05 3.22169E-05 3.16373E-05



 n o d a l   p r i n t   o u t   f o r   t i m e  s t e p    8601                              ( at time 4.2995697E+00 )

 nodal point  x-disp     y-disp      z-disp      x-vel       y-vel       z-vel      x-accl      y-accl      z-accl      x-coor      y-coor      z-coor
    22626 -2.24703E-03 1.69775E-01-3.44637E-01-1.79221E-04 5.00410E-02-1.02668E-01 1.96595E-03 1.10371E-02 1.79034E-02 4.65713E+00-2.80211E+01-4.53264E+01



 n o d a l   p r i n t   o u t   f o r   t i m e  s t e p    8601                              ( at time 4.2995697E+00 )

 nodal point  x-rot      y-rot       z-rot       x-rot vel   y-rot vel   z-rot vel   x-rot acc   y-rot acc   z-rot acc
    22626 -5.08659E-04 1.59864E-06 5.59721E-06-1.22311E-04 7.98786E-06 1.59210E-05-6.34673E-07 5.04480E-05 1.05474E-04



 n o d a l   p r i n t   o u t   f o r   t i m e  s t e p    8801                              ( at time 4.3995597E+00 )

 nodal point  x-disp     y-disp      z-disp      x-vel       y-vel       z-vel      x-accl      y-accl      z-accl      x-coor      y-coor      z-coor
    22626 -2.24365E-03 1.74810E-01-3.54776E-01 2.97647E-04 5.09133E-02-1.00055E-01 4.76915E-03 8.72421E-03 2.61335E-02 4.65713E+00-2.80160E+01-4.53365E+01



 n o d a l   p r i n t   o u t   f o r   t i m e  s t e p    8801                              ( at time 4.3995597E+00 )

 nodal point  x-rot      y-rot       z-rot       x-rot vel   y-rot vel   z-rot vel   x-rot acc   y-rot acc   z-rot acc
    22626 -5.21327E-04 2.69707E-06 7.55613E-06-1.26731E-04 1.33494E-05 2.29969E-05-4.42010E-05 5.36211E-05 7.07664E-05



 n o d a l   p r i n t   o u t   f o r   t i m e  s t e p    9001                              ( at time 4.4995497E+00 )

 nodal point  x-disp     y-disp      z-disp      x-vel       y-vel       z-vel      x-accl      y-accl      z-accl      x-coor      y-coor      z-coor
    22626 -2.21801E-03 1.80012E-01-3.64706E-01 2.08826E-04 5.33438E-02-9.86755E-02-8.88294E-04 2.43072E-02 1.37967E-02 4.65716E+00-2.80108E+01-4.53464E+01



 n o d a l   p r i n t   o u t   f o r   t i m e  s t e p    9001                              ( at time 4.4995497E+00 )

 nodal point  x-rot      y-rot       z-rot       x-rot vel   y-rot vel   z-rot vel   x-rot acc   y-rot acc   z-rot acc
    22626 -5.35558E-04 4.15885E-06 9.95103E-06-1.50375E-04 1.35805E-05 2.37348E-05-2.36467E-04 2.31057E-06 7.37979E-06



 n o d a l   p r i n t   o u t   f o r   t i m e  s t e p    9201                              ( at time 4.5995397E+00 )

 nodal point  x-disp     y-disp      z-disp      x-vel       y-vel       z-vel      x-accl      y-accl      z-accl      x-coor      y-coor      z-coor
    22626 -2.17132E-03 1.85548E-01-3.74528E-01 8.43027E-04 5.74638E-02-9.76117E-02 6.34266E-03 4.12041E-02 1.06393E-02 4.65720E+00-2.80053E+01-4.53562E+01



 n o d a l   p r i n t   o u t   f o r   t i m e  s t e p    9201                              ( at time 4.5995397E+00 )

 nodal point  x-rot      y-rot       z-rot       x-rot vel   y-rot vel   z-rot vel   x-rot acc   y-rot acc   z-rot acc
    22626 -5.52050E-04 5.65103E-06 1.28042E-05-1.79530E-04 1.63644E-05 3.39458E-05-2.91581E-04 2.78419E-05 1.02120E-04



 n o d a l   p r i n t   o u t   f o r   t i m e  s t e p    9401                              ( at time 4.6995297E+00 )

 nodal point  x-disp     y-disp      z-disp      x-vel       y-vel       z-vel      x-accl      y-accl      z-accl      x-coor      y-coor      z-coor
    22626 -2.07306E-03 1.91484E-01-3.84166E-01 9.46347E-04 6.15617E-02-9.53981E-02 1.03330E-03 4.09835E-02 2.21380E-02 4.65730E+00-2.79993E+01-4.53659E+01



 n o d a l   p r i n t   o u t   f o r   t i m e  s t e p    9401                              ( at time 4.6995297E+00 )

 nodal point  x-rot      y-rot       z-rot       x-rot vel   y-rot vel   z-rot vel   x-rot acc   y-rot acc   z-rot acc
    22626 -5.72106E-04 7.18725E-06 1.59779E-05-2.27542E-04 1.47721E-05 3.09448E-05-4.80164E-04-1.59239E-05-3.00124E-05



 n o d a l   p r i n t   o u t   f o r   t i m e  s t e p    9601                              ( at time 4.7995197E+00 )

 nodal point  x-disp     y-disp      z-disp      x-vel       y-vel       z-vel      x-accl      y-accl      z-accl      x-coor      y-coor      z-coor
    22626 -1.96048E-03 1.97911E-01-3.93584E-01 1.41004E-03 6.71776E-02-9.29460E-02 4.63742E-03 5.61639E-02 2.45231E-02 4.65741E+00-2.79929E+01-4.53753E+01



 n o d a l   p r i n t   o u t   f o r   t i m e  s t e p    9601                              ( at time 4.7995197E+00 )

 nodal point  x-rot      y-rot       z-rot       x-rot vel   y-rot vel   z-rot vel   x-rot acc   y-rot acc   z-rot acc
    22626 -5.96926E-04 8.64092E-06 1.92975E-05-2.74305E-04 1.80292E-05 4.04732E-05-4.67679E-04 3.25743E-05 9.52931E-05



 n o d a l   p r i n t   o u t   f o r   t i m e  s t e p    9801                              ( at time 4.8995097E+00 )

 nodal point  x-disp     y-disp      z-disp      x-vel       y-vel       z-vel      x-accl      y-accl      z-accl      x-coor      y-coor      z-coor
    22626 -1.80436E-03 2.04970E-01-4.02731E-01 1.39176E-03 7.42518E-02-9.01751E-02-1.82850E-04 7.07499E-02 2.77123E-02 4.65757E+00-2.79859E+01-4.53844E+01



 n o d a l   p r i n t   o u t   f o r   t i m e  s t e p    9801                              ( at time 4.8995097E+00 )

 nodal point  x-rot      y-rot       z-rot       x-rot vel   y-rot vel   z-rot vel   x-rot acc   y-rot acc   z-rot acc
    22626 -6.26870E-04 1.01021E-05 2.25900E-05-3.27889E-04 8.74256E-06 1.98650E-05-5.35891E-04-9.28761E-05-2.06103E-04



 n o d a l   p r i n t   o u t   f o r   t i m e  s t e p   10001                              ( at time 4.9994997E+00 )

 nodal point  x-disp     y-disp      z-disp      x-vel       y-vel       z-vel      x-accl      y-accl      z-accl      x-coor      y-coor      z-coor
    22626 -1.69966E-03 2.12806E-01-4.11685E-01 8.85462E-04 8.29370E-02-8.90816E-02-5.06345E-03 8.68602E-02 1.09362E-02 4.65768E+00-2.79780E+01-4.53934E+01



 n o d a l   p r i n t   o u t   f o r   t i m e  s t e p   10001                              ( at time 4.9994997E+00 )

 nodal point  x-rot      y-rot       z-rot       x-rot vel   y-rot vel   z-rot vel   x-rot acc   y-rot acc   z-rot acc
    22626 -6.62901E-04 1.09671E-05 2.42642E-05-3.97265E-04 1.01017E-05 2.04845E-05-6.93833E-04 1.35931E-05 6.19553E-06



 n o d a l   p r i n t   o u t   f o r   t i m e  s t e p   10202                              ( at time 5.0999896E+00 )

 nodal point  x-disp     y-disp      z-disp      x-vel       y-vel       z-vel      x-accl      y-accl      z-accl      x-coor      y-coor      z-coor
    22626 -1.59342E-03 2.21612E-01-4.20585E-01 1.45024E-03 9.25718E-02-8.77744E-02 5.62027E-03 9.58785E-02 1.30076E-02 4.65778E+00-2.79692E+01-4.54023E+01



 n o d a l   p r i n t   o u t   f o r   t i m e  s t e p   10202                              ( at time 5.0999896E+00 )

 nodal point  x-rot      y-rot       z-rot       x-rot vel   y-rot vel   z-rot vel   x-rot acc   y-rot acc   z-rot acc
    22626 -7.06523E-04 1.20212E-05 2.66292E-05-4.71425E-04 1.23057E-05 2.43718E-05-7.37979E-04 2.19325E-05 3.86838E-05



 n o d a l   p r i n t   o u t   f o r   t i m e  s t e p   10402                              ( at time 5.1999796E+00 )

 nodal point  x-disp     y-disp      z-disp      x-vel       y-vel       z-vel      x-accl      y-accl      z-accl      x-coor      y-coor      z-coor
    22626 -1.45685E-03 2.31373E-01-4.29286E-01 9.90467E-04 1.02617E-01-8.58160E-02-4.59817E-03 1.00461E-01 1.95865E-02 4.65792E+00-2.79595E+01-4.54110E+01



 n o d a l   p r i n t   o u t   f o r   t i m e  s t e p   10402                              ( at time 5.1999796E+00 )

 nodal point  x-rot      y-rot       z-rot       x-rot vel   y-rot vel   z-rot vel   x-rot acc   y-rot acc   z-rot acc
    22626 -7.57816E-04 1.32593E-05 2.87493E-05-5.54048E-04 1.51875E-05 1.80966E-05-8.26318E-04 2.88205E-05-6.27585E-05



 n o d a l   p r i n t   o u t   f o r   t i m e  s t e p   10602                              ( at time 5.2999696E+00 )

 nodal point  x-disp     y-disp      z-disp      x-vel       y-vel       z-vel      x-accl      y-accl      z-accl      x-coor      y-coor      z-coor
    22626 -1.39350E-03 2.42188E-01-4.37755E-01 4.18802E-04 1.14324E-01-8.40013E-02-5.71724E-03 1.17083E-01 1.81485E-02 4.65798E+00-2.79486E+01-4.54195E+01



 n o d a l   p r i n t   o u t   f o r   t i m e  s t e p   10602                              ( at time 5.2999696E+00 )

 nodal point  x-rot      y-rot       z-rot       x-rot vel   y-rot vel   z-rot vel   x-rot acc   y-rot acc   z-rot acc
    22626 -8.17780E-04 1.41953E-05 3.00400E-05-6.50932E-04 2.27793E-06 6.52128E-06-9.68936E-04-1.29109E-04-1.15765E-04



 n o d a l   p r i n t   o u t   f o r   t i m e  s t e p   10802                              ( at time 5.3999596E+00 )

 nodal point  x-disp     y-disp      z-disp      x-vel       y-vel       z-vel      x-accl      y-accl      z-accl      x-coor      y-coor      z-coor
    22626 -1.35723E-03 2.54291E-01-4.46105E-01 2.72958E-04 1.27515E-01-8.31900E-02-1.45858E-03 1.31927E-01 8.11339E-03 4.65802E+00-2.79365E+01-4.54278E+01



 n o d a l   p r i n t   o u t   f o r   t i m e  s t e p   10802                              ( at time 5.3999596E+00 )

 nodal point  x-rot      y-rot       z-rot       x-rot vel   y-rot vel   z-rot vel   x-rot acc   y-rot acc   z-rot acc
    22626 -8.87682E-04 1.44227E-05 3.04832E-05-7.46108E-04 4.55247E-06 1.39620E-06-9.51850E-04 2.27477E-05-5.12560E-05



 n o d a l   p r i n t   o u t   f o r   t i m e  s t e p   11002                              ( at time 5.4999496E+00 )

 nodal point  x-disp     y-disp      z-disp      x-vel       y-vel       z-vel      x-accl      y-accl      z-accl      x-coor      y-coor      z-coor
    22626 -1.31515E-03 2.67728E-01-4.54373E-01 5.18759E-04 1.41370E-01-8.22769E-02 2.45826E-03 1.38558E-01 9.13191E-03 4.65806E+00-2.79231E+01-4.54361E+01



 n o d a l   p r i n t   o u t   f o r   t i m e  s t e p   11002                              ( at time 5.4999496E+00 )

 nodal point  x-rot      y-rot       z-rot       x-rot vel   y-rot vel   z-rot vel   x-rot acc   y-rot acc   z-rot acc
    22626 -9.67231E-04 1.47889E-05 3.00145E-05-8.46257E-04-1.75664E-06-6.04812E-06-1.00159E-03-6.30975E-05-7.44507E-05



 n o d a l   p r i n t   o u t   f o r   t i m e  s t e p   11202                              ( at time 5.5999396E+00 )

 nodal point  x-disp     y-disp      z-disp      x-vel       y-vel       z-vel      x-accl      y-accl      z-accl      x-coor      y-coor      z-coor
    22626 -1.29886E-03 2.82590E-01-4.62497E-01-2.51222E-04 1.56035E-01-8.02032E-02-7.70059E-03 1.46668E-01 2.07397E-02 4.65808E+00-2.79082E+01-4.54442E+01



 n o d a l   p r i n t   o u t   f o r   t i m e  s t e p   11202                              ( at time 5.5999396E+00 )

 nodal point  x-rot      y-rot       z-rot       x-rot vel   y-rot vel   z-rot vel   x-rot acc   y-rot acc   z-rot acc
    22626 -1.05738E-03 1.38246E-05 2.90843E-05-9.55854E-04-1.37339E-05-1.41165E-05-1.09609E-03-1.19785E-04-8.06924E-05



 n o d a l   p r i n t   o u t   f o r   t i m e  s t e p   11402                              ( at time 5.6999296E+00 )

 nodal point  x-disp     y-disp      z-disp      x-vel       y-vel       z-vel      x-accl      y-accl      z-accl      x-coor      y-coor      z-coor
    22626 -1.34342E-03 2.98955E-01-4.70390E-01-5.58043E-04 1.71148E-01-7.74884E-02-3.06851E-03 1.51142E-01 2.71501E-02 4.65803E+00-2.78919E+01-4.54521E+01



 n o d a l   p r i n t   o u t   f o r   t i m e  s t e p   11402                              ( at time 5.6999296E+00 )

 nodal point  x-rot      y-rot       z-rot       x-rot vel   y-rot vel   z-rot vel   x-rot acc   y-rot acc   z-rot acc
    22626 -1.15898E-03 1.19364E-05 2.59995E-05-1.06966E-03-2.24127E-05-4.78468E-05-1.13814E-03-8.67968E-05-3.37335E-04



 n o d a l   p r i n t   o u t   f o r   t i m e  s t e p   11602                              ( at time 5.7999195E+00 )

 nodal point  x-disp     y-disp      z-disp      x-vel       y-vel       z-vel      x-accl      y-accl      z-accl      x-coor      y-coor      z-coor
    22626 -1.42639E-03 3.16884E-01-4.78048E-01-1.31908E-03 1.87782E-01-7.58329E-02-7.61110E-03 1.66355E-01 1.65569E-02 4.65795E+00-2.78739E+01-4.54598E+01



 n o d a l   p r i n t   o u t   f o r   t i m e  s t e p   11602                              ( at time 5.7999195E+00 )

 nodal point  x-rot      y-rot       z-rot       x-rot vel   y-rot vel   z-rot vel   x-rot acc   y-rot acc   z-rot acc
    22626 -1.27184E-03 9.77771E-06 2.14137E-05-1.18266E-03-2.35588E-05-4.45694E-05-1.13011E-03-1.14620E-05 3.27774E-05



 n o d a l   p r i n t   o u t   f o r   t i m e  s t e p   11802                              ( at time 5.8999095E+00 )

 nodal point  x-disp     y-disp      z-disp      x-vel       y-vel       z-vel      x-accl      y-accl      z-accl      x-coor      y-coor      z-coor
    22626 -1.54314E-03 3.36569E-01-4.85604E-01-1.00944E-03 2.05658E-01-7.52996E-02 3.09667E-03 1.78777E-01 5.33411E-03 4.65783E+00-2.78543E+01-4.54673E+01



 n o d a l   p r i n t   o u t   f o r   t i m e  s t e p   11802                              ( at time 5.8999095E+00 )

 nodal point  x-rot      y-rot       z-rot       x-rot vel   y-rot vel   z-rot vel   x-rot acc   y-rot acc   z-rot acc
    22626 -1.39688E-03 6.48637E-06 1.63620E-05-1.31952E-03-3.53804E-05-5.85113E-05-1.36873E-03-1.18228E-04-1.39433E-04



 n o d a l   p r i n t   o u t   f o r   t i m e  s t e p   12002                              ( at time 5.9998995E+00 )

 nodal point  x-disp     y-disp      z-disp      x-vel       y-vel       z-vel      x-accl      y-accl      z-accl      x-coor      y-coor      z-coor
    22626 -1.65876E-03 3.58041E-01-4.93066E-01-1.44246E-03 2.24049E-01-7.39287E-02-4.33059E-03 1.83937E-01 1.37100E-02 4.65772E+00-2.78328E+01-4.54748E+01



 n o d a l   p r i n t   o u t   f o r   t i m e  s t e p   12002                              ( at time 5.9998995E+00 )

 nodal point  x-rot      y-rot       z-rot       x-rot vel   y-rot vel   z-rot vel   x-rot acc   y-rot acc   z-rot acc
    22626 -1.53581E-03 3.24833E-06 1.03228E-05-1.45323E-03-2.44034E-05-5.57695E-05-1.33732E-03 1.09781E-04 2.74203E-05



 n o d a l   p r i n t   o u t   f o r   t i m e  s t e p   12202                              ( at time 6.0998895E+00 )

 nodal point  x-disp     y-disp      z-disp      x-vel       y-vel       z-vel      x-accl      y-accl      z-accl      x-coor      y-coor      z-coor
    22626 -1.87035E-03 3.81432E-01-5.00368E-01-2.55224E-03 2.43843E-01-7.20864E-02-1.10989E-02 1.97958E-01 1.84249E-02 4.65750E+00-2.78094E+01-4.54821E+01



 n o d a l   p r i n t   o u t   f o r   t i m e  s t e p   12202                              ( at time 6.0998895E+00 )

 nodal point  x-rot      y-rot       z-rot       x-rot vel   y-rot vel   z-rot vel   x-rot acc   y-rot acc   z-rot acc
    22626 -1.68830E-03-3.35605E-07 3.70729E-06-1.59555E-03-5.06224E-05-8.05558E-05-1.42328E-03-2.62215E-04-2.47887E-04



 n o d a l   p r i n t   o u t   f o r   t i m e  s t e p   12402                              ( at time 6.1998795E+00 )

 nodal point  x-disp     y-disp      z-disp      x-vel       y-vel       z-vel      x-accl      y-accl      z-accl      x-coor      y-coor      z-coor
    22626 -2.11416E-03 4.06832E-01-5.07534E-01-2.62177E-03 2.64280E-01-7.14547E-02-6.95377E-04 2.04383E-01 6.31784E-03 4.65726E+00-2.77840E+01-4.54893E+01



 n o d a l   p r i n t   o u t   f o r   t i m e  s t e p   12402                              ( at time 6.1998795E+00 )

 nodal point  x-rot      y-rot       z-rot       x-rot vel   y-rot vel   z-rot vel   x-rot acc   y-rot acc   z-rot acc
    22626 -1.85526E-03-4.93773E-06-4.83229E-06-1.73706E-03-4.26966E-05-8.26407E-05-1.41526E-03 7.92655E-05-2.08514E-05



 n o d a l   p r i n t   o u t   f o r   t i m e  s t e p   12602                              ( at time 6.2998695E+00 )

 nodal point  x-disp     y-disp      z-disp      x-vel       y-vel       z-vel      x-accl      y-accl      z-accl      x-coor      y-coor      z-coor
    22626 -2.35574E-03 4.34349E-01-5.14689E-01-2.21360E-03 2.86037E-01-7.15159E-02 4.08215E-03 2.17601E-01-6.12351E-04 4.65702E+00-2.77565E+01-4.54964E+01



 n o d a l   p r i n t   o u t   f o r   t i m e  s t e p   12602                              ( at time 6.2998695E+00 )

 nodal point  x-rot      y-rot       z-rot       x-rot vel   y-rot vel   z-rot vel   x-rot acc   y-rot acc   z-rot acc
    22626 -2.03640E-03-8.99226E-06-1.28291E-05-1.87983E-03-4.37040E-05-7.97721E-05-1.42783E-03-1.00746E-05 2.86897E-05



 n o d a l   p r i n t   o u t   f o r   t i m e  s t e p   12802                              ( at time 6.3998595E+00 )

 nodal point  x-disp     y-disp      z-disp      x-vel       y-vel       z-vel      x-accl      y-accl      z-accl      x-coor      y-coor      z-coor
    22626 -2.61624E-03 4.64068E-01-5.21775E-01-2.45191E-03 3.08218E-01-7.00694E-02-2.38332E-03 2.21832E-01 1.44667E-02 4.65676E+00-2.77268E+01-4.55035E+01



 n o d a l   p r i n t   o u t   f o r   t i m e  s t e p   12802                              ( at time 6.3998595E+00 )

 nodal point  x-rot      y-rot       z-rot       x-rot vel   y-rot vel   z-rot vel   x-rot acc   y-rot acc   z-rot acc
    22626 -2.23315E-03-1.36584E-05-2.13028E-05-2.04684E-03-4.16003E-05-8.70170E-05-1.67032E-03 2.10386E-05-7.24569E-05



 n o d a l   p r i n t   o u t   f o r   t i m e  s t e p   13002                              ( at time 6.4998495E+00 )

 nodal point  x-disp     y-disp      z-disp      x-vel       y-vel       z-vel      x-accl      y-accl      z-accl      x-coor      y-coor      z-coor
    22626 -2.85899E-03 4.96007E-01-5.28686E-01-2.49906E-03 3.30771E-01-6.81853E-02-4.71541E-04 2.25545E-01 1.88428E-02 4.65652E+00-2.76948E+01-4.55104E+01



 n o d a l   p r i n t   o u t   f o r   t i m e  s t e p   13002                              ( at time 6.4998495E+00 )

 nodal point  x-rot      y-rot       z-rot       x-rot vel   y-rot vel   z-rot vel   x-rot acc   y-rot acc   z-rot acc
    22626 -2.44607E-03-1.81118E-05-3.03206E-05-2.19914E-03-4.91527E-05-8.71409E-05-1.52316E-03-7.55317E-05-1.23893E-06



 n o d a l   p r i n t   o u t   f o r   t i m e  s t e p   13202                              ( at time 6.5998395E+00 )

 nodal point  x-disp     y-disp      z-disp      x-vel       y-vel       z-vel      x-accl      y-accl      z-accl      x-coor      y-coor      z-coor
    22626 -3.11611E-03 5.30215E-01-5.35411E-01-2.73349E-03 3.53710E-01-6.59434E-02-2.34461E-03 2.29418E-01 2.24206E-02 4.65626E+00-2.76606E+01-4.55171E+01



 n o d a l   p r i n t   o u t   f o r   t i m e  s t e p   13202                              ( at time 6.5998395E+00 )

 nodal point  x-rot      y-rot       z-rot       x-rot vel   y-rot vel   z-rot vel   x-rot acc   y-rot acc   z-rot acc
    22626 -2.67454E-03-2.29129E-05-3.97574E-05-2.36105E-03-4.83572E-05-9.90598E-05-1.61921E-03 7.95634E-06-1.19200E-04



 n o d a l   p r i n t   o u t   f o r   t i m e  s t e p   13402                              ( at time 6.6998295E+00 )

 nodal point  x-disp     y-disp      z-disp      x-vel       y-vel       z-vel      x-accl      y-accl      z-accl      x-coor      y-coor      z-coor
    22626 -3.33713E-03 5.66766E-01-5.41951E-01-1.71420E-03 3.77778E-01-6.47048E-02 1.01940E-02 2.40698E-01 1.23881E-02 4.65604E+00-2.76241E+01-4.55237E+01



 n o d a l   p r i n t   o u t   f o r   t i m e  s t e p   13402                              ( at time 6.6998295E+00 )

 nodal point  x-rot      y-rot       z-rot       x-rot vel   y-rot vel   z-rot vel   x-rot acc   y-rot acc   z-rot acc
    22626 -2.91981E-03-2.74799E-05-4.91867E-05-2.52971E-03-3.98135E-05-8.91716E-05-1.68679E-03 8.54450E-05 9.88918E-05



 n o d a l   p r i n t   o u t   f o r   t i m e  s t e p   13602                              ( at time 6.7998195E+00 )

 nodal point  x-disp     y-disp      z-disp      x-vel       y-vel       z-vel      x-accl      y-accl      z-accl      x-coor      y-coor      z-coor
    22626 -3.53115E-03 6.05760E-01-5.48377E-01-2.08565E-03 4.02189E-01-6.31075E-02-3.71487E-03 2.44141E-01 1.59745E-02 4.65584E+00-2.75851E+01-4.55301E+01



 n o d a l   p r i n t   o u t   f o r   t i m e  s t e p   13602                              ( at time 6.7998195E+00 )

 nodal point  x-rot      y-rot       z-rot       x-rot vel   y-rot vel   z-rot vel   x-rot acc   y-rot acc   z-rot acc
    22626 -3.18222E-03-3.13132E-05-5.82016E-05-2.70605E-03-3.81489E-05-9.33520E-05-1.76354E-03 1.66478E-05-4.18081E-05



 n o d a l   p r i n t   o u t   f o r   t i m e  s t e p   13802                              ( at time 6.8998095E+00 )

 nodal point  x-disp     y-disp      z-disp      x-vel       y-vel       z-vel      x-accl      y-accl      z-accl      x-coor      y-coor      z-coor
    22626 -3.75687E-03 6.47173E-01-5.54590E-01-2.46131E-03 4.26208E-01-6.06285E-02-3.75700E-03 2.40216E-01 2.47921E-02 4.65562E+00-2.75437E+01-4.55363E+01



 n o d a l   p r i n t   o u t   f o r   t i m e  s t e p   13802                              ( at time 6.8998095E+00 )

 nodal point  x-rot      y-rot       z-rot       x-rot vel   y-rot vel   z-rot vel   x-rot acc   y-rot acc   z-rot acc
    22626 -3.46235E-03-3.57629E-05-6.78369E-05-2.87666E-03-4.38175E-05-9.71763E-05-1.70633E-03-5.66912E-05-3.82472E-05



 n o d a l   p r i n t   o u t   f o r   t i m e  s t e p   14002                              ( at time 6.9997995E+00 )

 nodal point  x-disp     y-disp      z-disp      x-vel       y-vel       z-vel      x-accl      y-accl      z-accl      x-coor      y-coor      z-coor
    22626 -3.98101E-03 6.91042E-01-5.60552E-01-1.78492E-03 4.51682E-01-5.82247E-02 6.76455E-03 2.54757E-01 2.40406E-02 4.65539E+00-2.74998E+01-4.55423E+01



 n o d a l   p r i n t   o u t   f o r   t i m e  s t e p   14002                              ( at time 6.9997995E+00 )

 nodal point  x-rot      y-rot       z-rot       x-rot vel   y-rot vel   z-rot vel   x-rot acc   y-rot acc   z-rot acc
    22626 -3.75992E-03-3.93513E-05-7.72635E-05-3.05516E-03-3.43042E-05-9.17955E-05-1.78519E-03 9.51421E-05 5.38135E-05



 n o d a l   p r i n t   o u t   f o r   t i m e  s t e p   14202                              ( at time 7.0997895E+00 )

 nodal point  x-disp     y-disp      z-disp      x-vel       y-vel       z-vel      x-accl      y-accl      z-accl      x-coor      y-coor      z-coor
    22626 -4.11052E-03 7.37480E-01-5.66277E-01-1.60928E-03 4.77068E-01-5.57700E-02 1.75656E-03 2.53887E-01 2.45493E-02 4.65526E+00-2.74534E+01-4.55480E+01



 n o d a l   p r i n t   o u t   f o r   t i m e  s t e p   14202                              ( at time 7.0997895E+00 )

 nodal point  x-rot      y-rot       z-rot       x-rot vel   y-rot vel   z-rot vel   x-rot acc   y-rot acc   z-rot acc
    22626 -4.07527E-03-4.19940E-05-8.56738E-05-3.23303E-03-2.39622E-05-8.41022E-05-1.77888E-03 1.03430E-04 7.69403E-05



 n o d a l   p r i n t   o u t   f o r   t i m e  s t e p   14402                              ( at time 7.1997794E+00 )

 nodal point  x-disp     y-disp      z-disp      x-vel       y-vel       z-vel      x-accl      y-accl      z-accl      x-coor      y-coor      z-coor
    22626 -4.32060E-03 7.86441E-01-5.71718E-01-2.17160E-03 5.02250E-01-5.27273E-02-5.62376E-03 2.51849E-01 3.04302E-02 4.65505E+00-2.74044E+01-4.55534E+01



 n o d a l   p r i n t   o u t   f o r   t i m e  s t e p   14402                              ( at time 7.1997794E+00 )

 nodal point  x-rot      y-rot       z-rot       x-rot vel   y-rot vel   z-rot vel   x-rot acc   y-rot acc   z-rot acc
    22626 -4.40834E-03-4.49140E-05-9.49220E-05-3.41686E-03-3.21701E-05-9.85945E-05-1.83840E-03-8.20875E-05-1.44938E-04



 n o d a l   p r i n t   o u t   f o r   t i m e  s t e p   14602                              ( at time 7.2997694E+00 )

 nodal point  x-disp     y-disp      z-disp      x-vel       y-vel       z-vel      x-accl      y-accl      z-accl      x-coor      y-coor      z-coor
    22626 -4.47057E-03 8.37911E-01-5.76779E-01-9.54638E-04 5.27171E-01-4.81097E-02 1.21709E-02 2.49229E-01 4.61808E-02 4.65490E+00-2.73529E+01-4.55585E+01



 n o d a l   p r i n t   o u t   f o r   t i m e  s t e p   14602                              ( at time 7.2997694E+00 )

 nodal point  x-rot      y-rot       z-rot       x-rot vel   y-rot vel   z-rot vel   x-rot acc   y-rot acc   z-rot acc
    22626 -4.76008E-03-4.76700E-05-1.03955E-04-3.60336E-03-1.10544E-05-8.15188E-05-1.86519E-03 2.11179E-04 1.70775E-04



 n o d a l   p r i n t   o u t   f o r   t i m e  s t e p   14802                              ( at time 7.3997594E+00 )

 nodal point  x-disp     y-disp      z-disp      x-vel       y-vel       z-vel      x-accl      y-accl      z-accl      x-coor      y-coor      z-coor
    22626 -4.56480E-03 8.91904E-01-5.81326E-01-9.34314E-04 5.52583E-01-4.24580E-02 2.03261E-04 2.54149E-01 5.65221E-02 4.65481E+00-2.72989E+01-4.55630E+01



 n o d a l   p r i n t   o u t   f o r   t i m e  s t e p   14802                              ( at time 7.3997594E+00 )

 nodal point  x-rot      y-rot       z-rot       x-rot vel   y-rot vel   z-rot vel   x-rot acc   y-rot acc   z-rot acc
    22626 -5.13003E-03-4.87560E-05-1.11643E-04-3.78444E-03-2.17590E-05-8.87489E-05-1.81107E-03-1.07057E-04-7.23085E-05



 n o d a l   p r i n t   o u t   f o r   t i m e  s t e p   15002                              ( at time 7.4997494E+00 )

 nodal point  x-disp     y-disp      z-disp      x-vel       y-vel       z-vel      x-accl      y-accl      z-accl      x-coor      y-coor      z-coor
    22626 -4.63588E-03 9.48416E-01-5.85314E-01-1.17661E-03 5.77529E-01-3.67915E-02-2.42319E-03 2.49481E-01 5.66714E-02 4.65474E+00-2.72424E+01-4.55670E+01



 n o d a l   p r i n t   o u t   f o r   t i m e  s t e p   15002                              ( at time 7.4997494E+00 )

 nodal point  x-rot      y-rot       z-rot       x-rot vel   y-rot vel   z-rot vel   x-rot acc   y-rot acc   z-rot acc
    22626 -5.51895E-03-5.15033E-05-1.21165E-04-3.97893E-03-2.77564E-05-9.75179E-05-1.94500E-03-5.99802E-05-8.76978E-05



 n o d a l   p r i n t   o u t   f o r   t i m e  s t e p   15202                              ( at time 7.5997394E+00 )

 nodal point  x-disp     y-disp      z-disp      x-vel       y-vel       z-vel      x-accl      y-accl      z-accl      x-coor      y-coor      z-coor
    22626 -4.70617E-03 1.00743E+00-5.88742E-01 1.14513E-04 6.03313E-01-3.17320E-02 1.29125E-02 2.57872E-01 5.05997E-02 4.65467E+00-2.71834E+01-4.55705E+01



 n o d a l   p r i n t   o u t   f o r   t i m e  s t e p   15202                              ( at time 7.5997394E+00 )

 nodal point  x-rot      y-rot       z-rot       x-rot vel   y-rot vel   z-rot vel   x-rot acc   y-rot acc   z-rot acc
    22626 -5.92656E-03-5.26790E-05-1.30041E-04-4.17246E-03-5.11249E-07-8.42688E-05-1.93557E-03 2.72479E-04 1.32504E-04



 n o d a l   p r i n t   o u t   f o r   t i m e  s t e p   15402                              ( at time 7.6997294E+00 )

 nodal point  x-disp     y-disp      z-disp      x-vel       y-vel       z-vel      x-accl      y-accl      z-accl      x-coor      y-coor      z-coor
    22626 -4.69114E-03 1.06905E+00-5.91589E-01 4.31278E-06 6.28670E-01-2.48594E-02-1.10212E-03 2.53592E-01 6.87329E-02 4.65468E+00-2.71218E+01-4.55733E+01



 n o d a l   p r i n t   o u t   f o r   t i m e  s t e p   15402                              ( at time 7.6997294E+00 )

 nodal point  x-rot      y-rot       z-rot       x-rot vel   y-rot vel   z-rot vel   x-rot acc   y-rot acc   z-rot acc
    22626 -6.35411E-03-5.40906E-05-1.39282E-04-4.37716E-03-2.49229E-05-9.18053E-05-2.04717E-03-2.44141E-04-7.53731E-05



 n o d a l   p r i n t   o u t   f o r   t i m e  s t e p   15602                              ( at time 7.7997194E+00 )

 nodal point  x-disp     y-disp      z-disp      x-vel       y-vel       z-vel      x-accl      y-accl      z-accl      x-coor      y-coor      z-coor
    22626 -4.67642E-03 1.13320E+00-5.93717E-01 3.64481E-04 6.54429E-01-1.79142E-02 3.60205E-03 2.57621E-01 6.94593E-02 4.65470E+00-2.70576E+01-4.55754E+01



 n o d a l   p r i n t   o u t   f o r   t i m e  s t e p   15602                              ( at time 7.7997194E+00 )

 nodal point  x-rot      y-rot       z-rot       x-rot vel   y-rot vel   z-rot vel   x-rot acc   y-rot acc   z-rot acc
    22626 -6.80159E-03-5.62195E-05-1.48322E-04-4.56849E-03-1.28572E-05-8.72033E-05-1.91347E-03 1.20669E-04 4.60246E-05



 n o d a l   p r i n t   o u t   f o r   t i m e  s t e p   15802                              ( at time 7.8997094E+00 )

 nodal point  x-disp     y-disp      z-disp      x-vel       y-vel       z-vel      x-accl      y-accl      z-accl      x-coor      y-coor      z-coor
    22626 -4.59415E-03 1.19994E+00-5.95151E-01 9.24981E-04 6.80251E-01-1.07256E-02 5.60556E-03 2.58242E-01 7.18932E-02 4.65478E+00-2.69909E+01-4.55769E+01



 n o d a l   p r i n t   o u t   f o r   t i m e  s t e p   15802                              ( at time 7.8997094E+00 )

 nodal point  x-rot      y-rot       z-rot       x-rot vel   y-rot vel   z-rot vel   x-rot acc   y-rot acc   z-rot acc
    22626 -7.26826E-03-5.67711E-05-1.57175E-04-4.76356E-03-5.17866E-06-9.04179E-05-1.95097E-03 7.67934E-05-3.21493E-05



 n o d a l   p r i n t   o u t   f o r   t i m e  s t e p   16002                              ( at time 7.9996994E+00 )

 nodal point  x-disp     y-disp      z-disp      x-vel       y-vel       z-vel      x-accl      y-accl      z-accl      x-coor      y-coor      z-coor
    22626 -4.51878E-03 1.26927E+00-5.95818E-01 8.86617E-04 7.05886E-01-2.95462E-03-3.83676E-04 2.56371E-01 7.77171E-02 4.65486E+00-2.69216E+01-4.55775E+01



 n o d a l   p r i n t   o u t   f o r   t i m e  s t e p   16002                              ( at time 7.9996994E+00 )

 nodal point  x-rot      y-rot       z-rot       x-rot vel   y-rot vel   z-rot vel   x-rot acc   y-rot acc   z-rot acc
    22626 -7.75508E-03-5.72877E-05-1.66178E-04-4.97298E-03-6.65838E-06-8.59386E-05-2.09437E-03-1.47986E-05 4.47973E-05



 n o d a l   p r i n t   o u t   f o r   t i m e  s t e p   16202                              ( at time 8.0996894E+00 )

 nodal point  x-disp     y-disp      z-disp      x-vel       y-vel       z-vel      x-accl      y-accl      z-accl      x-coor      y-coor      z-coor
    22626 -4.40224E-03 1.34116E+00-5.95667E-01 1.39271E-03 7.31423E-01 5.31635E-03 5.06146E-03 2.55397E-01 8.27180E-02 4.65497E+00-2.68497E+01-4.55774E+01



 n o d a l   p r i n t   o u t   f o r   t i m e  s t e p   16202                              ( at time 8.0996894E+00 )

 nodal point  x-rot      y-rot       z-rot       x-rot vel   y-rot vel   z-rot vel   x-rot acc   y-rot acc   z-rot acc
    22626 -8.26217E-03-5.82233E-05-1.74918E-04-5.18145E-03-8.80238E-06-9.09466E-05-2.08494E-03-2.14421E-05-5.00847E-05



 n o d a l   p r i n t   o u t   f o r   t i m e  s t e p   16402                              ( at time 8.1996794E+00 )

 nodal point  x-disp     y-disp      z-disp      x-vel       y-vel       z-vel      x-accl      y-accl      z-accl      x-coor      y-coor      z-coor
    22626 -4.30060E-03 1.41557E+00-5.94571E-01 1.08921E-03 7.56427E-01 1.58927E-02-3.03533E-03 2.50072E-01 1.05774E-01 4.65507E+00-2.67753E+01-4.55763E+01



 n o d a l   p r i n t   o u t   f o r   t i m e  s t e p   16402                              ( at time 8.1996794E+00 )

 nodal point  x-rot      y-rot       z-rot       x-rot vel   y-rot vel   z-rot vel   x-rot acc   y-rot acc   z-rot acc
    22626 -8.78978E-03-5.92140E-05-1.85141E-04-5.38367E-03-7.16853E-06-1.09681E-04-2.02235E-03 1.63402E-05-1.87364E-04



 n o d a l   p r i n t   o u t   f o r   t i m e  s t e p   16602                              ( at time 8.2996694E+00 )

 nodal point  x-disp     y-disp      z-disp      x-vel       y-vel       z-vel      x-accl      y-accl      z-accl      x-coor      y-coor      z-coor
    22626 -4.21647E-03 1.49248E+00-5.92386E-01 5.37714E-04 7.81224E-01 2.71456E-02-5.51552E-03 2.47994E-01 1.12540E-01 4.65516E+00-2.66984E+01-4.55741E+01



 n o d a l   p r i n t   o u t   f o r   t i m e  s t e p   16602                              ( at time 8.2996694E+00 )

 nodal point  x-rot      y-rot       z-rot       x-rot vel   y-rot vel   z-rot vel   x-rot acc   y-rot acc   z-rot acc
    22626 -9.33765E-03-6.04078E-05-1.96021E-04-5.58294E-03-1.76268E-05-1.15732E-04-1.99293E-03-1.04593E-04-6.05184E-05



 n o d a l   p r i n t   o u t   f o r   t i m e  s t e p   16802                              ( at time 8.3996594E+00 )

 nodal point  x-disp     y-disp      z-disp      x-vel       y-vel       z-vel      x-accl      y-accl      z-accl      x-coor      y-coor      z-coor
    22626 -4.11171E-03 1.57187E+00-5.89114E-01 1.09332E-03 8.06295E-01 3.77875E-02 5.55666E-03 2.50728E-01 1.06430E-01 4.65526E+00-2.66190E+01-4.55708E+01



 n o d a l   p r i n t   o u t   f o r   t i m e  s t e p   16802                              ( at time 8.3996594E+00 )

 nodal point  x-rot      y-rot       z-rot       x-rot vel   y-rot vel   z-rot vel   x-rot acc   y-rot acc   z-rot acc
    22626 -9.90535E-03-6.19007E-05-2.08584E-04-5.78149E-03-1.73050E-05-1.39317E-04-1.98565E-03 3.21832E-06-2.35869E-04



 n o d a l   p r i n t   o u t   f o r   t i m e  s t e p   17002                              ( at time 8.4996494E+00 )

 nodal point  x-disp     y-disp      z-disp      x-vel       y-vel       z-vel      x-accl      y-accl      z-accl      x-coor      y-coor      z-coor
    22626 -4.05405E-03 1.65373E+00-5.84741E-01 6.33990E-04 8.30385E-01 4.99624E-02-4.59380E-03 2.40928E-01 1.21761E-01 4.65532E+00-2.65371E+01-4.55665E+01



 n o d a l   p r i n t   o u t   f o r   t i m e  s t e p   17002                              ( at time 8.4996494E+00 )

 nodal point  x-rot      y-rot       z-rot       x-rot vel   y-rot vel   z-rot vel   x-rot acc   y-rot acc   z-rot acc
    22626 -1.04941E-02-6.35919E-05-2.22485E-04-5.99515E-03-1.91983E-05-1.43636E-04-2.13682E-03-1.89343E-05-4.31994E-05



 n o d a l   p r i n t   o u t   f o r   t i m e  s t e p   17202                              ( at time 8.5996394E+00 )

 nodal point  x-disp     y-disp      z-disp      x-vel       y-vel       z-vel      x-accl      y-accl      z-accl      x-coor      y-coor      z-coor
    22626 -4.00786E-03 1.73799E+00-5.79092E-01 6.49224E-04 8.55049E-01 6.26102E-02 1.52360E-04 2.46662E-01 1.26491E-01 4.65537E+00-2.64528E+01-4.55608E+01



 n o d a l   p r i n t   o u t   f o r   t i m e  s t e p   17202                              ( at time 8.5996394E+00 )

 nodal point  x-rot      y-rot       z-rot       x-rot vel   y-rot vel   z-rot vel   x-rot acc   y-rot acc   z-rot acc
    22626 -1.11031E-02-6.62969E-05-2.37655E-04-6.19102E-03-3.38952E-05-1.58283E-04-1.95896E-03-1.46984E-04-1.46483E-04



 n o d a l   p r i n t   o u t   f o r   t i m e  s t e p   17402                              ( at time 8.6996293E+00 )

 nodal point  x-disp     y-disp      z-disp      x-vel       y-vel       z-vel      x-accl      y-accl      z-accl      x-coor      y-coor      z-coor
    22626 -3.90907E-03 1.82472E+00-5.72190E-01 1.11025E-03 8.79641E-01 7.54175E-02 4.61072E-03 2.45945E-01 1.28085E-01 4.65547E+00-2.63661E+01-4.55539E+01



 n o d a l   p r i n t   o u t   f o r   t i m e  s t e p   17402                              ( at time 8.6996293E+00 )

 nodal point  x-rot      y-rot       z-rot       x-rot vel   y-rot vel   z-rot vel   x-rot acc   y-rot acc   z-rot acc
    22626 -1.17309E-02-6.87578E-05-2.53806E-04-6.38137E-03-2.26230E-05-1.64004E-04-1.90361E-03 1.12732E-04-5.72177E-05



 n o d a l   p r i n t   o u t   f o r   t i m e  s t e p   17602                              ( at time 8.7996193E+00 )

 nodal point  x-disp     y-disp      z-disp      x-vel       y-vel       z-vel      x-accl      y-accl      z-accl      x-coor      y-coor      z-coor
    22626 -3.74737E-03 1.91390E+00-5.63942E-01 1.88487E-03 9.03819E-01 8.94384E-02 7.74697E-03 2.41809E-01 1.40224E-01 4.65563E+00-2.62769E+01-4.55457E+01



 n o d a l   p r i n t   o u t   f o r   t i m e  s t e p   17602                              ( at time 8.7996193E+00 )

 nodal point  x-rot      y-rot       z-rot       x-rot vel   y-rot vel   z-rot vel   x-rot acc   y-rot acc   z-rot acc
    22626 -1.23782E-02-7.19468E-05-2.70576E-04-6.57312E-03-3.55975E-05-1.65977E-04-1.91771E-03-1.29758E-04-1.97248E-05



 n o d a l   p r i n t   o u t   f o r   t i m e  s t e p   17802                              ( at time 8.8996093E+00 )

 nodal point  x-disp     y-disp      z-disp      x-vel       y-vel       z-vel      x-accl      y-accl      z-accl      x-coor      y-coor      z-coor
    22626 -3.59246E-03 2.00548E+00-5.54301E-01 9.26709E-04 9.28170E-01 1.03000E-01-9.58260E-03 2.43528E-01 1.35634E-01 4.65578E+00-2.61853E+01-4.55360E+01



 n o d a l   p r i n t   o u t   f o r   t i m e  s t e p   17802                              ( at time 8.8996093E+00 )

 nodal point  x-rot      y-rot       z-rot       x-rot vel   y-rot vel   z-rot vel   x-rot acc   y-rot acc   z-rot acc
    22626 -1.30433E-02-7.50384E-05-2.87321E-04-6.74262E-03-2.69608E-05-1.67499E-04-1.69519E-03 8.63760E-05-1.52259E-05



 n o d a l   p r i n t   o u t   f o r   t i m e  s t e p   18002                              ( at time 8.9995993E+00 )

 nodal point  x-disp     y-disp      z-disp      x-vel       y-vel       z-vel      x-accl      y-accl      z-accl      x-coor      y-coor      z-coor
    22626 -3.45159E-03 2.09947E+00-5.43289E-01 2.13203E-03 9.51632E-01 1.17259E-01 1.20545E-02 2.34648E-01 1.42603E-01 4.65592E+00-2.60914E+01-4.55250E+01



 n o d a l   p r i n t   o u t   f o r   t i m e  s t e p   18002                              ( at time 8.9995993E+00 )

 nodal point  x-rot      y-rot       z-rot       x-rot vel   y-rot vel   z-rot vel   x-rot acc   y-rot acc   z-rot acc
    22626 -1.37260E-02-7.80670E-05-3.04557E-04-6.91308E-03-2.77920E-05-1.80169E-04-1.70472E-03-8.31282E-06-1.26713E-04



 n o d a l   p r i n t   o u t   f o r   t i m e  s t e p   18202                              ( at time 9.0995893E+00 )

 nodal point  x-disp     y-disp      z-disp      x-vel       y-vel       z-vel      x-accl      y-accl      z-accl      x-coor      y-coor      z-coor
    22626 -3.26747E-03 2.19579E+00-5.30765E-01 1.71316E-03 9.74958E-01 1.33003E-01-4.18920E-03 2.33280E-01 1.57454E-01 4.65611E+00-2.59950E+01-4.55125E+01



 n o d a l   p r i n t   o u t   f o r   t i m e  s t e p   18202                              ( at time 9.0995893E+00 )

 nodal point  x-rot      y-rot       z-rot       x-rot vel   y-rot vel   z-rot vel   x-rot acc   y-rot acc   z-rot acc
    22626 -1.44252E-02-8.07465E-05-3.21819E-04-7.07540E-03-2.19126E-05-1.69055E-04-1.62340E-03 5.88002E-05 1.11155E-04



 n o d a l   p r i n t   o u t   f o r   t i m e  s t e p   18402                              ( at time 9.1995793E+00 )

 nodal point  x-disp     y-disp      z-disp      x-vel       y-vel       z-vel      x-accl      y-accl      z-accl      x-coor      y-coor      z-coor
    22626 -3.03067E-03 2.29438E+00-5.16706E-01 2.46182E-03 9.97567E-01 1.48375E-01 7.48739E-03 2.26115E-01 1.53734E-01 4.65634E+00-2.58964E+01-4.54984E+01



 n o d a l   p r i n t   o u t   f o r   t i m e  s t e p   18402                              ( at time 9.1995793E+00 )

 nodal point  x-rot      y-rot       z-rot       x-rot vel   y-rot vel   z-rot vel   x-rot acc   y-rot acc   z-rot acc
    22626 -1.51404E-02-8.34637E-05-3.38972E-04-7.22333E-03-3.36595E-05-1.75424E-04-1.47944E-03-1.17482E-04-6.36948E-05



 n o d a l   p r i n t   o u t   f o r   t i m e  s t e p   18602                              ( at time 9.2995693E+00 )

 nodal point  x-disp     y-disp      z-disp      x-vel       y-vel       z-vel      x-accl      y-accl      z-accl      x-coor      y-coor      z-coor
    22626 -2.73363E-03 2.39528E+00-5.01144E-01 3.31493E-03 1.02038E+00 1.63207E-01 8.53196E-03 2.28107E-01 1.48334E-01 4.65664E+00-2.57956E+01-4.54829E+01



 n o d a l   p r i n t   o u t   f o r   t i m e  s t e p   18602                              ( at time 9.2995693E+00 )

 nodal point  x-rot      y-rot       z-rot       x-rot vel   y-rot vel   z-rot vel   x-rot acc   y-rot acc   z-rot acc
    22626 -1.58701E-02-8.64250E-05-3.56694E-04-7.36825E-03-2.24203E-05-1.80613E-04-1.44931E-03 1.12404E-04-5.18987E-05



 n o d a l   p r i n t   o u t   f o r   t i m e  s t e p   18802                              ( at time 9.3995593E+00 )

 nodal point  x-disp     y-disp      z-disp      x-vel       y-vel       z-vel      x-accl      y-accl      z-accl      x-coor      y-coor      z-coor
    22626 -2.38796E-03 2.49842E+00-4.83993E-01 4.09163E-03 1.04234E+00 1.79812E-01 7.76776E-03 2.19665E-01 1.66071E-01 4.65699E+00-2.56924E+01-4.54657E+01



 n o d a l   p r i n t   o u t   f o r   t i m e  s t e p   18802                              ( at time 9.3995593E+00 )

 nodal point  x-rot      y-rot       z-rot       x-rot vel   y-rot vel   z-rot vel   x-rot acc   y-rot acc   z-rot acc
    22626 -1.66137E-02-8.91953E-05-3.74059E-04-7.50759E-03-3.32015E-05-1.74770E-04-1.39360E-03-1.07823E-04 5.84388E-05



 n o d a l   p r i n t   o u t   f o r   t i m e  s t e p   19002                              ( at time 9.4995493E+00 )

 nodal point  x-disp     y-disp      z-disp      x-vel       y-vel       z-vel      x-accl      y-accl      z-accl      x-coor      y-coor      z-coor
    22626 -1.95017E-03 2.60376E+00-4.65177E-01 4.09938E-03 1.06421E+00 1.96299E-01 7.75451E-05 2.18702E-01 1.64879E-01 4.65742E+00-2.55871E+01-4.54469E+01



 n o d a l   p r i n t   o u t   f o r   t i m e  s t e p   19002                              ( at time 9.4995493E+00 )

 nodal point  x-rot      y-rot       z-rot       x-rot vel   y-rot vel   z-rot vel   x-rot acc   y-rot acc   z-rot acc
    22626 -1.73709E-02-9.19733E-05-3.90630E-04-7.63473E-03-2.37336E-05-1.56517E-04-1.27151E-03 9.46885E-05 1.82546E-04



 n o d a l   p r i n t   o u t   f o r   t i m e  s t e p   19202                              ( at time 9.5995393E+00 )

 nodal point  x-disp     y-disp      z-disp      x-vel       y-vel       z-vel      x-accl      y-accl      z-accl      x-coor      y-coor      z-coor
    22626 -1.44225E-03 2.71127E+00-4.44644E-01 5.97223E-03 1.08585E+00 2.14203E-01 1.87302E-02 2.16454E-01 1.79065E-01 4.65793E+00-2.54796E+01-4.54264E+01



 n o d a l   p r i n t   o u t   f o r   t i m e  s t e p   19202                              ( at time 9.5995393E+00 )

 nodal point  x-rot      y-rot       z-rot       x-rot vel   y-rot vel   z-rot vel   x-rot acc   y-rot acc   z-rot acc
    22626 -1.81402E-02-9.31625E-05-4.06047E-04-7.75948E-03-7.31226E-06-1.56250E-04-1.24760E-03 1.64228E-04 2.67212E-06



 n o d a l   p r i n t   o u t   f o r   t i m e  s t e p   19402                              ( at time 9.6995293E+00 )

 nodal point  x-disp     y-disp      z-disp      x-vel       y-vel       z-vel      x-accl      y-accl      z-accl      x-coor      y-coor      z-coor
    22626 -8.60858E-04 2.82085E+00-4.22281E-01 6.29265E-03 1.10597E+00 2.32761E-01 3.20453E-03 2.01197E-01 1.85590E-01 4.65851E+00-2.53700E+01-4.54040E+01



 n o d a l   p r i n t   o u t   f o r   t i m e  s t e p   19402                              ( at time 9.6995293E+00 )

 nodal point  x-rot      y-rot       z-rot       x-rot vel   y-rot vel   z-rot vel   x-rot acc   y-rot acc   z-rot acc
    22626 -1.89214E-02-9.37017E-05-4.20564E-04-7.87796E-03-3.33441E-06-1.35898E-04-1.18496E-03 3.97825E-05 2.03534E-04



 n o d a l   p r i n t   o u t   f o r   t i m e  s t e p   19602                              ( at time 9.7995193E+00 )

 nodal point  x-disp     y-disp      z-disp      x-vel       y-vel       z-vel      x-accl      y-accl      z-accl      x-coor      y-coor      z-coor
    22626 -1.97792E-04 2.93241E+00-3.98061E-01 6.89715E-03 1.12557E+00 2.51824E-01 6.04563E-03 1.95992E-01 1.90652E-01 4.65918E+00-2.52584E+01-4.53798E+01



 n o d a l   p r i n t   o u t   f o r   t i m e  s t e p   19602                              ( at time 9.7995193E+00 )

 nodal point  x-rot      y-rot       z-rot       x-rot vel   y-rot vel   z-rot vel   x-rot acc   y-rot acc   z-rot acc
    22626 -1.97153E-02-9.31142E-05-4.32750E-04-8.00597E-03 1.46585E-05-1.12012E-04-1.28017E-03 1.79947E-04 2.38891E-04



 n o d a l   p r i n t   o u t   f o r   t i m e  s t e p   19802                              ( at time 9.8995093E+00 )

 nodal point  x-disp     y-disp      z-disp      x-vel       y-vel       z-vel      x-accl      y-accl      z-accl      x-coor      y-coor      z-coor
    22626  5.81426E-04 3.04587E+00-3.71845E-01 8.84463E-03 1.14371E+00 2.72450E-01 1.94768E-02 1.81489E-01 2.06281E-01 4.65996E+00-2.51450E+01-4.53536E+01



 n o d a l   p r i n t   o u t   f o r   t i m e  s t e p   19802                              ( at time 9.8995093E+00 )

 nodal point  x-rot      y-rot       z-rot       x-rot vel   y-rot vel   z-rot vel   x-rot acc   y-rot acc   z-rot acc
    22626 -2.05209E-02-9.03904E-05-4.43523E-04-8.11550E-03 3.64113E-05-9.57900E-05-1.09550E-03 2.17551E-04 1.62233E-04



 n o d a l   p r i n t   o u t   f o r   t i m e  s t e p   20003                              ( at time 9.9999992E+00 )

 nodal point  x-disp     y-disp      z-disp      x-vel       y-vel       z-vel      x-accl      y-accl      z-accl      x-coor      y-coor      z-coor
[...]
    22626 -1.94649E-01 2.21191E-03 1.88595E-03-1.90854E-02 1.12679E-04 2.08192E-04-2.43023E-04 1.93165E-06-1.00359E-04



 n o d a l   p r i n t   o u t   f o r   t i m e  s t e p   45205                              ( at time 2.2599738E+01 )

 nodal point  x-disp     y-disp      z-disp      x-vel       y-vel       z-vel      x-accl      y-accl      z-accl      x-coor      y-coor      z-coor
    22626  4.16895E-01 2.06000E+01 1.75352E+01 2.52647E-02 1.74090E+00 8.18038E-01-1.22983E-04 3.82745E-02-1.40047E-01 5.07627E+00-7.59083E+00-2.74465E+01



 n o d a l   p r i n t   o u t   f o r   t i m e  s t e p   45205                              ( at time 2.2599738E+01 )

 nodal point  x-rot      y-rot       z-rot       x-rot vel   y-rot vel   z-rot vel   x-rot acc   y-rot acc   z-rot acc
    22626 -1.96560E-01 2.22385E-03 1.90772E-03-1.91082E-02 1.20404E-04 2.16747E-04-2.28605E-04 7.72551E-05 8.55504E-05



 n o d a l   p r i n t   o u t   f o r   t i m e  s t e p   45405                              ( at time 2.2699728E+01 )

 nodal point  x-disp     y-disp      z-disp      x-vel       y-vel       z-vel      x-accl      y-accl      z-accl      x-coor      y-coor      z-coor
    22626  4.19430E-01 2.07742E+01 1.76163E+01 2.50425E-02 1.74328E+00 8.04469E-01-2.22223E-03 2.37706E-02-1.35700E-01 5.07880E+00-7.41667E+00-2.73654E+01



 n o d a l   p r i n t   o u t   f o r   t i m e  s t e p   45405                              ( at time 2.2699728E+01 )

 nodal point  x-rot      y-rot       z-rot       x-rot vel   y-rot vel   z-rot vel   x-rot acc   y-rot acc   z-rot acc
    22626 -1.98472E-01 2.23539E-03 1.92922E-03-1.91283E-02 1.10289E-04 2.13018E-04-2.00499E-04-1.01161E-04-3.72886E-05



 n o d a l   p r i n t   o u t   f o r   t i m e  s t e p   45605                              ( at time 2.2799718E+01 )

 nodal point  x-disp     y-disp      z-disp      x-vel       y-vel       z-vel      x-accl      y-accl      z-accl      x-coor      y-coor      z-coor
    22626  4.21869E-01 2.09486E+01 1.76961E+01 2.42114E-02 1.74631E+00 7.92137E-01-8.31196E-03 3.03320E-02-1.23330E-01 5.08124E+00-7.24219E+00-2.72856E+01



 n o d a l   p r i n t   o u t   f o r   t i m e  s t e p   45605                              ( at time 2.2799718E+01 )

 nodal point  x-rot      y-rot       z-rot       x-rot vel   y-rot vel   z-rot vel   x-rot acc   y-rot acc   z-rot acc
    22626 -2.00385E-01 2.24603E-03 1.95012E-03-1.91480E-02 1.11983E-04 2.06826E-04-1.97682E-04 1.69361E-05-6.19223E-05



 n o d a l   p r i n t   o u t   f o r   t i m e  s t e p   45805                              ( at time 2.2899708E+01 )

 nodal point  x-disp     y-disp      z-disp      x-vel       y-vel       z-vel      x-accl      y-accl      z-accl      x-coor      y-coor      z-coor
    22626  4.24320E-01 2.11233E+01 1.77748E+01 2.50260E-02 1.74799E+00 7.81267E-01 8.14781E-03 1.67102E-02-1.08714E-01 5.08370E+00-7.06752E+00-2.72069E+01



 n o d a l   p r i n t   o u t   f o r   t i m e  s t e p   45805                              ( at time 2.2899708E+01 )

 nodal point  x-rot      y-rot       z-rot       x-rot vel   y-rot vel   z-rot vel   x-rot acc   y-rot acc   z-rot acc
    22626 -2.02301E-01 2.25691E-03 1.97125E-03-1.91663E-02 1.08991E-04 2.15243E-04-1.83193E-04-2.99161E-05 8.41774E-05



 n o d a l   p r i n t   o u t   f o r   t i m e  s t e p   46005                              ( at time 2.2999698E+01 )

 nodal point  x-disp     y-disp      z-disp      x-vel       y-vel       z-vel      x-accl      y-accl      z-accl      x-coor      y-coor      z-coor
    22626  4.26839E-01 2.12982E+01 1.78524E+01 2.47156E-02 1.74940E+00 7.70937E-01-3.10518E-03 1.41634E-02-1.03309E-01 5.08621E+00-6.89266E+00-2.71294E+01



 n o d a l   p r i n t   o u t   f o r   t i m e  s t e p   46005                              ( at time 2.2999698E+01 )

 nodal point  x-rot      y-rot       z-rot       x-rot vel   y-rot vel   z-rot vel   x-rot acc   y-rot acc   z-rot acc
    22626 -2.04219E-01 2.26832E-03 1.99273E-03-1.91716E-02 1.12901E-04 2.11191E-04-5.21030E-05 3.90980E-05-4.05245E-05



 n o d a l   p r i n t   o u t   f o r   t i m e  s t e p   46205                              ( at time 2.3099688E+01 )

 nodal point  x-disp     y-disp      z-disp      x-vel       y-vel       z-vel      x-accl      y-accl      z-accl      x-coor      y-coor      z-coor
    22626  4.29265E-01 2.14731E+01 1.79290E+01 2.39876E-02 1.75022E+00 7.62256E-01-7.27985E-03 8.19535E-03-8.68178E-02 5.08864E+00-6.71769E+00-2.70527E+01



 n o d a l   p r i n t   o u t   f o r   t i m e  s t e p   46205                              ( at time 2.3099688E+01 )

 nodal point  x-rot      y-rot       z-rot       x-rot vel   y-rot vel   z-rot vel   x-rot acc   y-rot acc   z-rot acc
    22626 -2.06137E-01 2.27887E-03 2.01364E-03-1.91941E-02 9.49342E-05 2.06812E-04-2.25256E-04-1.79686E-04-4.38012E-05



 n o d a l   p r i n t   o u t   f o r   t i m e  s t e p   46405                              ( at time 2.3199678E+01 )

 nodal point  x-disp     y-disp      z-disp      x-vel       y-vel       z-vel      x-accl      y-accl      z-accl      x-coor      y-coor      z-coor
    22626  4.31675E-01 2.16482E+01 1.80048E+01 2.43280E-02 1.75030E+00 7.54000E-01 3.40353E-03 7.74931E-04-8.25725E-02 5.09105E+00-6.54268E+00-2.69769E+01



 n o d a l   p r i n t   o u t   f o r   t i m e  s t e p   46405                              ( at time 2.3199678E+01 )

 nodal point  x-rot      y-rot       z-rot       x-rot vel   y-rot vel   z-rot vel   x-rot acc   y-rot acc   z-rot acc
    22626 -2.08057E-01 2.28882E-03 2.03471E-03-1.91988E-02 1.07885E-04 2.12935E-04-4.71479E-05 1.29516E-04 6.12364E-05



 n o d a l   p r i n t   o u t   f o r   t i m e  s t e p   46605                              ( at time 2.3299668E+01 )

 nodal point  x-disp     y-disp      z-disp      x-vel       y-vel       z-vel      x-accl      y-accl      z-accl      x-coor      y-coor      z-coor
    22626  4.34123E-01 2.18232E+01 1.80799E+01 2.47205E-02 1.75058E+00 7.47772E-01 3.92555E-03 2.82438E-03-6.22896E-02 5.09350E+00-6.36762E+00-2.69018E+01



 n o d a l   p r i n t   o u t   f o r   t i m e  s t e p   46605                              ( at time 2.3299668E+01 )

 nodal point  x-rot      y-rot       z-rot       x-rot vel   y-rot vel   z-rot vel   x-rot acc   y-rot acc   z-rot acc
    22626 -2.09976E-01 2.30010E-03 2.05588E-03-1.91954E-02 1.08380E-04 2.10088E-04 3.41461E-05 4.95286E-06-2.84719E-05



 n o d a l   p r i n t   o u t   f o r   t i m e  s t e p   46805                              ( at time 2.3399658E+01 )

 nodal point  x-disp     y-disp      z-disp      x-vel       y-vel       z-vel      x-accl      y-accl      z-accl      x-coor      y-coor      z-coor
    22626  4.36550E-01 2.19983E+01 1.81543E+01 2.40065E-02 1.75100E+00 7.40813E-01-7.14064E-03 4.18701E-03-6.95900E-02 5.09592E+00-6.19251E+00-2.68274E+01



 n o d a l   p r i n t   o u t   f o r   t i m e  s t e p   46805                              ( at time 2.3399658E+01 )

 nodal point  x-rot      y-rot       z-rot       x-rot vel   y-rot vel   z-rot vel   x-rot acc   y-rot acc   z-rot acc
    22626 -2.11896E-01 2.31063E-03 2.07717E-03-1.91880E-02 9.93304E-05 2.09589E-04 7.32832E-05-9.05028E-05-4.99002E-06



 n o d a l   p r i n t   o u t   f o r   t i m e  s t e p   47005                              ( at time 2.3499648E+01 )

 nodal point  x-disp     y-disp      z-disp      x-vel       y-vel       z-vel      x-accl      y-accl      z-accl      x-coor      y-coor      z-coor
    22626  4.38938E-01 2.21734E+01 1.82282E+01 2.33288E-02 1.74990E+00 7.37823E-01-6.77735E-03-1.10183E-02-2.99016E-02 5.09831E+00-6.01747E+00-2.67535E+01



 n o d a l   p r i n t   o u t   f o r   t i m e  s t e p   47005                              ( at time 2.3499648E+01 )

 nodal point  x-rot      y-rot       z-rot       x-rot vel   y-rot vel   z-rot vel   x-rot acc   y-rot acc   z-rot acc
    22626 -2.13815E-01 2.32065E-03 2.09802E-03-1.91837E-02 9.93488E-05 2.10292E-04 4.37017E-05 1.83808E-07 7.03489E-06



 n o d a l   p r i n t   o u t   f o r   t i m e  s t e p   47205                              ( at time 2.3599638E+01 )

 nodal point  x-disp     y-disp      z-disp      x-vel       y-vel       z-vel      x-accl      y-accl      z-accl      x-coor      y-coor      z-coor
    22626  4.41314E-01 2.23484E+01 1.83017E+01 2.44520E-02 1.75055E+00 7.32395E-01 1.12331E-02 6.48809E-03-5.42856E-02 5.10069E+00-5.84247E+00-2.66800E+01



 n o d a l   p r i n t   o u t   f o r   t i m e  s t e p   47205                              ( at time 2.3599638E+01 )

 nodal point  x-rot      y-rot       z-rot       x-rot vel   y-rot vel   z-rot vel   x-rot acc   y-rot acc   z-rot acc
    22626 -2.15732E-01 2.33090E-03 2.11902E-03-1.91586E-02 1.12720E-04 2.10665E-04 2.50591E-04 1.33725E-04 3.72687E-06



 n o d a l   p r i n t   o u t   f o r   t i m e  s t e p   47405                              ( at time 2.3699628E+01 )

 nodal point  x-disp     y-disp      z-disp      x-vel       y-vel       z-vel      x-accl      y-accl      z-accl      x-coor      y-coor      z-coor
    22626  4.43760E-01 2.25233E+01 1.83749E+01 2.44220E-02 1.74879E+00 7.30501E-01-3.00062E-04-1.76029E-02-1.89483E-02 5.10313E+00-5.66752E+00-2.66069E+01



 n o d a l   p r i n t   o u t   f o r   t i m e  s t e p   47405                              ( at time 2.3699628E+01 )

 nodal point  x-rot      y-rot       z-rot       x-rot vel   y-rot vel   z-rot vel   x-rot acc   y-rot acc   z-rot acc
    22626 -2.17646E-01 2.34195E-03 2.14034E-03-1.91425E-02 1.06981E-04 2.12142E-04 1.61301E-04-5.73920E-05 1.47755E-05



 n o d a l   p r i n t   o u t   f o r   t i m e  s t e p   47605                              ( at time 2.3799618E+01 )

 nodal point  x-disp     y-disp      z-disp      x-vel       y-vel       z-vel      x-accl      y-accl      z-accl      x-coor      y-coor      z-coor
    22626  4.46116E-01 2.26981E+01 1.84478E+01 2.28156E-02 1.74764E+00 7.29121E-01-1.60655E-02-1.14203E-02-1.38000E-02 5.10549E+00-5.49270E+00-2.65339E+01



 n o d a l   p r i n t   o u t   f o r   t i m e  s t e p   47605                              ( at time 2.3799618E+01 )

 nodal point  x-rot      y-rot       z-rot       x-rot vel   y-rot vel   z-rot vel   x-rot acc   y-rot acc   z-rot acc
    22626 -2.19560E-01 2.35148E-03 2.16144E-03-1.91022E-02 8.85615E-05 2.04795E-04 4.02879E-04-1.84217E-04-7.34762E-05



 n o d a l   p r i n t   o u t   f o r   t i m e  s t e p   47805                              ( at time 2.3899608E+01 )

 nodal point  x-disp     y-disp      z-disp      x-vel       y-vel       z-vel      x-accl      y-accl      z-accl      x-coor      y-coor      z-coor
    22626  4.48457E-01 2.28728E+01 1.85206E+01 2.40419E-02 1.74682E+00 7.28239E-01 1.22635E-02-8.28819E-03-8.82528E-03 5.10783E+00-5.31803E+00-2.64611E+01



 n o d a l   p r i n t   o u t   f o r   t i m e  s t e p   47805                              ( at time 2.3899608E+01 )

 nodal point  x-rot      y-rot       z-rot       x-rot vel   y-rot vel   z-rot vel   x-rot acc   y-rot acc   z-rot acc
    22626 -2.21469E-01 2.36144E-03 2.18179E-03-1.90711E-02 1.11301E-04 2.03550E-04 3.11426E-04 2.27415E-04-1.24557E-05



 n o d a l   p r i n t   o u t   f o r   t i m e  s t e p   48005                              ( at time 2.3999598E+01 )

 nodal point  x-disp     y-disp      z-disp      x-vel       y-vel       z-vel      x-accl      y-accl      z-accl      x-coor      y-coor      z-coor
    22626  4.50870E-01 2.30474E+01 1.85934E+01 2.37842E-02 1.74459E+00 7.28467E-01-2.57655E-03-2.22183E-02 2.28073E-03 5.11024E+00-5.14347E+00-2.63883E+01



 n o d a l   p r i n t   o u t   f o r   t i m e  s t e p   48005                              ( at time 2.3999598E+01 )

 nodal point  x-rot      y-rot       z-rot       x-rot vel   y-rot vel   z-rot vel   x-rot acc   y-rot acc   z-rot acc
    22626 -2.23375E-01 2.37243E-03 2.20300E-03-1.90496E-02 1.07644E-04 2.14775E-04 2.14377E-04-3.65721E-05 1.12259E-04



 n o d a l   p r i n t   o u t   f o r   t i m e  s t e p   48205                              ( at time 2.4099588E+01 )

 nodal point  x-disp     y-disp      z-disp      x-vel       y-vel       z-vel      x-accl      y-accl      z-accl      x-coor      y-coor      z-coor
    22626  4.53215E-01 2.32217E+01 1.86664E+01 2.30596E-02 1.74262E+00 7.29757E-01-7.24695E-03-1.97751E-02 1.29044E-02 5.11259E+00-4.96913E+00-2.63154E+01



 n o d a l   p r i n t   o u t   f o r   t i m e  s t e p   48205                              ( at time 2.4099588E+01 )

 nodal point  x-rot      y-rot       z-rot       x-rot vel   y-rot vel   z-rot vel   x-rot acc   y-rot acc   z-rot acc
    22626 -2.25277E-01 2.38229E-03 2.22408E-03-1.89957E-02 9.59205E-05 2.06470E-04 5.39453E-04-1.17247E-04-8.30531E-05



 n o d a l   p r i n t   o u t   f o r   t i m e  s t e p   48405                              ( at time 2.4199578E+01 )

 nodal point  x-disp     y-disp      z-disp      x-vel       y-vel       z-vel      x-accl      y-accl      z-accl      x-coor      y-coor      z-coor
    22626  4.55540E-01 2.33959E+01 1.87395E+01 2.34732E-02 1.73983E+00 7.33107E-01 4.13668E-03-2.78408E-02 3.35021E-02 5.11492E+00-4.79498E+00-2.62422E+01



 n o d a l   p r i n t   o u t   f o r   t i m e  s t e p   48405                              ( at time 2.4199578E+01 )

 nodal point  x-rot      y-rot       z-rot       x-rot vel   y-rot vel   z-rot vel   x-rot acc   y-rot acc   z-rot acc
    22626 -2.27175E-01 2.39249E-03 2.24459E-03-1.89526E-02 1.04002E-04 2.04273E-04 4.30747E-04 8.08203E-05-2.19710E-05



 n o d a l   p r i n t   o u t   f o r   t i m e  s t e p   48605                              ( at time 2.4299568E+01 )

 nodal point  x-disp     y-disp      z-disp      x-vel       y-vel       z-vel      x-accl      y-accl      z-accl      x-coor      y-coor      z-coor
    22626  4.57916E-01 2.35697E+01 1.88130E+01 2.42895E-02 1.73812E+00 7.36439E-01 8.16355E-03-1.71629E-02 3.33280E-02 5.11729E+00-4.62109E+00-2.61688E+01



 n o d a l   p r i n t   o u t   f o r   t i m e  s t e p   48605                              ( at time 2.4299568E+01 )

 nodal point  x-rot      y-rot       z-rot       x-rot vel   y-rot vel   z-rot vel   x-rot acc   y-rot acc   z-rot acc
    22626 -2.29068E-01 2.40330E-03 2.26599E-03-1.89044E-02 1.08851E-04 2.16717E-04 4.82153E-04 4.84990E-05 1.24447E-04



 n o d a l   p r i n t   o u t   f o r   t i m e  s t e p   48805                              ( at time 2.4399558E+01 )

 nodal point  x-disp     y-disp      z-disp      x-vel       y-vel       z-vel      x-accl      y-accl      z-accl      x-coor      y-coor      z-coor
    22626  4.60325E-01 2.37433E+01 1.88869E+01 2.35036E-02 1.73416E+00 7.42403E-01-7.85941E-03-3.95751E-02 5.96423E-02 5.11970E+00-4.44750E+00-2.60949E+01



 n o d a l   p r i n t   o u t   f o r   t i m e  s t e p   48805                              ( at time 2.4399558E+01 )

 nodal point  x-rot      y-rot       z-rot       x-rot vel   y-rot vel   z-rot vel   x-rot acc   y-rot acc   z-rot acc
    22626 -2.30955E-01 2.41406E-03 2.28729E-03-1.88584E-02 1.02722E-04 2.11530E-04 4.59911E-04-6.12970E-05-5.18769E-05



 n o d a l   p r i n t   o u t   f o r   t i m e  s t e p   49006                              ( at time 2.4500048E+01 )

 nodal point  x-disp     y-disp      z-disp      x-vel       y-vel       z-vel      x-accl      y-accl      z-accl      x-coor      y-coor      z-coor
    22626  4.62664E-01 2.39175E+01 1.89617E+01 2.34543E-02 1.73119E+00 7.47702E-01-4.90848E-04-2.95577E-02 5.27356E-02 5.12204E+00-4.27337E+00-2.60200E+01



 n o d a l   p r i n t   o u t   f o r   t i m e  s t e p   49006                              ( at time 2.4500048E+01 )

 nodal point  x-rot      y-rot       z-rot       x-rot vel   y-rot vel   z-rot vel   x-rot acc   y-rot acc   z-rot acc
    22626 -2.32848E-01 2.42392E-03 2.30834E-03-1.88002E-02 9.93112E-05 2.07807E-04 5.79228E-04-3.39411E-05-3.70429E-05



 n o d a l   p r i n t   o u t   f o r   t i m e  s t e p   49206                              ( at time 2.4600038E+01 )

 nodal point  x-disp     y-disp      z-disp      x-vel       y-vel       z-vel      x-accl      y-accl      z-accl      x-coor      y-coor      z-coor
    22626  4.65055E-01 2.40903E+01 1.90368E+01 2.39994E-02 1.72692E+00 7.54579E-01 5.45112E-03-4.27285E-02 6.87698E-02 5.12443E+00-4.10049E+00-2.59449E+01



 n o d a l   p r i n t   o u t   f o r   t i m e  s t e p   49206                              ( at time 2.4600038E+01 )

 nodal point  x-rot      y-rot       z-rot       x-rot vel   y-rot vel   z-rot vel   x-rot acc   y-rot acc   z-rot acc
    22626 -2.34725E-01 2.43476E-03 2.32893E-03-1.87415E-02 1.14564E-04 2.06144E-04 5.87159E-04 1.52543E-04-1.66364E-05



 n o d a l   p r i n t   o u t   f o r   t i m e  s t e p   49406                              ( at time 2.4700028E+01 )

 nodal point  x-disp     y-disp      z-disp      x-vel       y-vel       z-vel      x-accl      y-accl      z-accl      x-coor      y-coor      z-coor
    22626  4.67431E-01 2.42628E+01 1.91127E+01 2.36446E-02 1.72318E+00 7.62568E-01-3.54849E-03-3.73512E-02 7.99029E-02 5.12681E+00-3.92801E+00-2.58690E+01



 n o d a l   p r i n t   o u t   f o r   t i m e  s t e p   49406                              ( at time 2.4700028E+01 )

 nodal point  x-rot      y-rot       z-rot       x-rot vel   y-rot vel   z-rot vel   x-rot acc   y-rot acc   z-rot acc
    22626 -2.36596E-01 2.44588E-03 2.34981E-03-1.86822E-02 1.02933E-04 2.09989E-04 5.93095E-04-1.16320E-04 3.84525E-05



 n o d a l   p r i n t   o u t   f o r   t i m e  s t e p   49606                              ( at time 2.4800018E+01 )

 nodal point  x-disp     y-disp      z-disp      x-vel       y-vel       z-vel      x-accl      y-accl      z-accl      x-coor      y-coor      z-coor
    22626  4.69795E-01 2.44349E+01 1.91893E+01 2.35058E-02 1.71891E+00 7.70167E-01-1.38769E-03-4.26761E-02 7.59969E-02 5.12917E+00-3.75595E+00-2.57924E+01



 n o d a l   p r i n t   o u t   f o r   t i m e  s t e p   49606                              ( at time 2.4800018E+01 )

 nodal point  x-rot      y-rot       z-rot       x-rot vel   y-rot vel   z-rot vel   x-rot acc   y-rot acc   z-rot acc
    22626 -2.38461E-01 2.45604E-03 2.37020E-03-1.86188E-02 1.11639E-04 1.99431E-04 6.34289E-04 8.70636E-05-1.05587E-04



 n o d a l   p r i n t   o u t   f o r   t i m e  s t e p   49806                              ( at time 2.4900008E+01 )

 nodal point  x-disp     y-disp      z-disp      x-vel       y-vel       z-vel      x-accl      y-accl      z-accl      x-coor      y-coor      z-coor
    22626  4.72140E-01 2.46065E+01 1.92668E+01 2.37828E-02 1.71354E+00 7.78817E-01 2.77038E-03-5.37062E-02 8.65048E-02 5.13152E+00-3.58434E+00-2.57150E+01



 n o d a l   p r i n t   o u t   f o r   t i m e  s t e p   49806                              ( at time 2.4900008E+01 )

 nodal point  x-rot      y-rot       z-rot       x-rot vel   y-rot vel   z-rot vel   x-rot acc   y-rot acc   z-rot acc
    22626 -2.40319E-01 2.46693E-03 2.39031E-03-1.85578E-02 1.12923E-04 2.03510E-04 6.09432E-04 1.28387E-05 4.07927E-05



 n o d a l   p r i n t   o u t   f o r   t i m e  s t e p   50006                              ( at time 2.4999998E+01 )

 nodal point  x-disp     y-disp      z-disp      x-vel       y-vel       z-vel      x-accl      y-accl      z-accl      x-coor      y-coor      z-coor
    22626  4.74529E-01 2.47776E+01 1.93451E+01 2.38249E-02 1.70886E+00 7.88509E-01 4.21034E-04-4.68094E-02 9.69308E-02 5.13390E+00-3.41322E+00-2.56366E+01



 n o d a l   p r i n t   o u t   f o r   t i m e  s t e p   50006                              ( at time 2.4999998E+01 )

 nodal point  x-rot      y-rot       z-rot       x-rot vel   y-rot vel   z-rot vel   x-rot acc   y-rot acc   z-rot acc
    22626 -2.42171E-01 2.47761E-03 2.41088E-03-1.84792E-02 1.10443E-04 2.08758E-04 7.86406E-04-2.47950E-05 5.24930E-05
