 LSTC 50th% Full_FE H-III Dummy (Beta Version, February 17, 2019)        
                    ls-dyna smp s R16 R16.0_619_d222963 date 03/18/2025

{BEGIN LEGEND}
 Entity #        Title
        1     Upper_Neck_Force_INJURY                                              
{END LEGEND}



 line#1  section#     time        x-force     y-force     z-force    magnitude
 line#2  resultant  moments       x-moment    y-moment    z-moment   magnitude
 line#3  centroids                x           y           z            area  
           1    0.00000E+00     0.0000E+00  0.0000E+00  0.0000E+00  0.0000E+00
ac ID =   33377                 0.0000E+00  0.0000E+00  0.0000E+00  0.0000E+00
                               -3.7437E-01  1.0501E+01 -4.6940E+01  0.0000E+00

           1    1.00490E-01     1.3629E-04 -4.9880E-03  2.5983E-01  2.5988E-01
ac ID =   33377                 4.2544E-01 -1.2521E+00 -2.7100E-02  1.3227E+00
                               -3.7387E-01  1.0590E+01 -4.6886E+01  2.5147E+03

           1    2.00480E-01    -4.4256E-02  6.5983E-04  4.4136E-01  4.4357E-01
ac ID =   33377                 3.0419E-01 -1.5992E+00  2.1198E-02  1.6280E+00
                               -3.7386E-01  1.0591E+01 -4.6888E+01  2.5147E+03

           1    3.00470E-01     1.4840E-02 -3.0134E-03  2.1767E-01  2.1819E-01
ac ID =   33377                 2.8105E-02 -3.3503E-01  6.5071E-02  3.4244E-01
                               -3.7382E-01  1.0591E+01 -4.6889E+01  2.5147E+03

           1    4.00460E-01     3.1054E-03  1.0508E-02  8.7863E-02  8.8544E-02
ac ID =   33377                -4.9596E-01 -9.4795E-01  4.2898E-03  1.0699E+00
                               -3.7383E-01  1.0592E+01 -4.6890E+01  2.5147E+03

           1    5.00450E-01    -4.0970E-02  4.1798E-03  1.6172E-01  1.6688E-01
ac ID =   33377                -3.9872E-01 -1.5063E+00 -1.1036E-01  1.5620E+00
                               -3.7385E-01  1.0594E+01 -4.6893E+01  2.5147E+03

           1    6.00440E-01    -1.0488E-02  3.9617E-03  3.4354E-01  3.4372E-01
ac ID =   33377                 9.3292E-02 -1.3279E+00 -3.7467E-02  1.3317E+00
                               -3.7385E-01  1.0595E+01 -4.6897E+01  2.5147E+03

           1    7.00430E-01     2.8119E-03 -5.6125E-03  2.9426E-01  2.9433E-01
ac ID =   33377                 1.3857E-01 -5.0262E-01  8.5175E-02  5.2829E-01
                               -3.7389E-01  1.0597E+01 -4.6901E+01  2.5147E+03

           1    8.00420E-01    -3.0941E-02 -1.0007E-03  1.0057E-01  1.0522E-01
ac ID =   33377                 8.7263E-02 -1.0577E+00  4.5595E-02  1.0623E+00
                               -3.7394E-01  1.0599E+01 -4.6905E+01  2.5147E+03

           1    9.00410E-01    -3.9442E-02  6.2244E-04  6.2322E-02  7.3756E-02
ac ID =   33377                 9.0590E-02 -1.0655E+00 -2.5506E-04  1.0694E+00
                               -3.7399E-01  1.0601E+01 -4.6909E+01  2.5147E+03

           1    1.00040E+00     1.5147E-02 -4.0301E-03  2.2080E-01  2.2135E-01
ac ID =   33377                 3.6554E-01 -2.9087E-01 -5.9307E-02  4.7089E-01
                               -3.7400E-01  1.0604E+01 -4.6915E+01  2.5147E+03

           1    1.10039E+00     4.6457E-04 -3.0755E-03  2.7074E-01  2.7076E-01
ac ID =   33377                 3.4422E-01 -8.7846E-01 -5.6041E-02  9.4516E-01
                               -3.7401E-01  1.0607E+01 -4.6921E+01  2.5147E+03

           1    1.20038E+00    -3.2297E-02 -6.7180E-04  1.2922E-01  1.3320E-01
ac ID =   33377                -1.5185E-01 -1.1802E+00  1.1550E-02  1.1900E+00
                               -3.7403E-01  1.0610E+01 -4.6927E+01  2.5147E+03

           1    1.30037E+00    -1.0132E-02  4.8177E-03  7.4939E-02  7.5774E-02
ac ID =   33377                -3.0438E-01 -8.8595E-01  1.5384E-02  9.3691E-01
                               -3.7407E-01  1.0612E+01 -4.6933E+01  2.5147E+03

           1    1.40036E+00     8.1273E-03  3.6082E-03  1.7338E-01  1.7360E-01
ac ID =   33377                -2.9290E-01 -8.3563E-01  2.9711E-02  8.8597E-01
                               -3.7409E-01  1.0616E+01 -4.6941E+01  2.5147E+03

           1    1.50035E+00    -2.6657E-02  1.1962E-03  3.2889E-01  3.2997E-01
ac ID =   33377                -1.5066E-02 -1.5827E+00 -4.7374E-02  1.5835E+00
                               -3.7413E-01  1.0620E+01 -4.6949E+01  2.5147E+03

           1    1.60034E+00    -1.9232E-02 -1.9923E-03  2.2103E-01  2.2188E-01
ac ID =   33377                -2.2238E-02 -1.3759E+00 -1.6770E-02  1.3762E+00
                               -3.7420E-01  1.0624E+01 -4.6957E+01  2.5147E+03

           1    1.70033E+00    -2.8340E-03 -5.2062E-04  5.8607E-02  5.8678E-02
ac ID =   33377                -4.1682E-02 -6.6667E-01  8.9948E-02  6.7400E-01
                               -3.7427E-01  1.0627E+01 -4.6965E+01  2.5147E+03

           1    1.80032E+00    -2.0465E-02  1.0739E-03  7.7633E-02  8.0293E-02
ac ID =   33377                 8.1902E-02 -1.1202E+00  1.2853E-01  1.1305E+00
                               -3.7434E-01  1.0632E+01 -4.6974E+01  2.5147E+03

           1    1.90031E+00    -7.8906E-03 -2.5254E-03  1.9134E-01  1.9152E-01
ac ID =   33377                 2.7111E-01 -8.2236E-01 -6.7595E-02  8.6854E-01
                               -3.7439E-01  1.0636E+01 -4.6984E+01  2.5147E+03

           1    2.00030E+00    -2.2472E-03 -4.3366E-03  1.5714E-01  1.5722E-01
ac ID =   33377                 2.0469E-01 -4.4593E-01 -1.4676E-01  5.1214E-01
                               -3.7444E-01  1.0641E+01 -4.6993E+01  2.5147E+03

           1    2.10029E+00    -2.5671E-02  2.2217E-03  2.2561E-03  2.5865E-02
ac ID =   33377                -7.2848E-02 -6.9113E-01  3.6592E-02  6.9592E-01
                               -3.7450E-01  1.0645E+01 -4.7003E+01  2.5147E+03

           1    2.20028E+00    -1.3203E-02  4.9500E-03  3.7786E-03  1.4598E-02
ac ID =   33377                -2.3774E-01 -6.6022E-01  2.4955E-02  7.0216E-01
                               -3.7456E-01  1.0650E+01 -4.7013E+01  2.5147E+03

           1    2.30027E+00     1.0892E-03  4.8908E-03  1.4841E-01  1.4849E-01
ac ID =   33377                -1.4840E-01 -8.2123E-01 -6.6698E-02  8.3720E-01
                               -3.7462E-01  1.0655E+01 -4.7024E+01  2.5147E+03

           1    2.40026E+00    -1.7467E-02 -1.6501E-03  1.8902E-01  1.8983E-01
ac ID =   33377                -1.5174E-01 -1.1886E+00  7.5628E-02  1.2006E+00
                               -3.7469E-01  1.0661E+01 -4.7035E+01  2.5147E+03

           1    2.50025E+00    -1.8388E-02  1.1078E-03  2.5323E-04  1.8423E-02
ac ID =   33377                -1.9892E-01 -8.8524E-01  1.2887E-01  9.1642E-01
                               -3.7479E-01  1.0665E+01 -4.7045E+01  2.5147E+03

           1    2.60024E+00    -6.9953E-03  5.7017E-03 -7.6809E-02  7.7337E-02
ac ID =   33377                -2.1235E-01 -1.7951E-01  3.7284E-02  2.8055E-01
                               -3.7490E-01  1.0671E+01 -4.7056E+01  2.5147E+03

           1    2.70023E+00    -1.1875E-02 -1.7697E-03  1.0604E-02  1.6019E-02
ac ID =   33377                 3.3975E-02 -2.1314E-01  3.6204E-02  2.1885E-01
                               -3.7501E-01  1.0676E+01 -4.7068E+01  2.5147E+03

           1    2.80022E+00    -5.3264E-03 -4.6255E-03  6.3137E-02  6.3530E-02
ac ID =   33377                 3.6610E-01 -1.3527E-01 -1.9101E-02  3.9076E-01
                               -3.7510E-01  1.0682E+01 -4.7079E+01  2.5147E+03

           1    2.90021E+00     5.3695E-03 -2.7638E-03 -9.5955E-03  1.1338E-02
ac ID =   33377                 1.4731E-01  3.0981E-01 -7.8583E-02  3.5193E-01
                               -3.7520E-01  1.0687E+01 -4.7090E+01  2.5147E+03

           1    3.00020E+00    -7.1545E-03  1.9410E-03 -8.9199E-02  8.9507E-02
ac ID =   33377                -3.7246E-02  7.5916E-02 -5.4101E-02  1.0039E-01
                               -3.7530E-01  1.0692E+01 -4.7101E+01  2.5147E+03

           1    3.10019E+00    -2.7347E-03  4.8438E-04 -8.8445E-03  9.2703E-03
ac ID =   33377                 3.7303E-02 -2.5173E-01 -3.1237E-02  2.5639E-01
                               -3.7538E-01  1.0698E+01 -4.7113E+01  2.5147E+03

           1    3.20018E+00     3.4355E-03  1.8544E-03  6.9693E-02  6.9803E-02
ac ID =   33377                -1.8967E-02 -3.4371E-01  2.4637E-02  3.4512E-01
                               -3.7545E-01  1.0703E+01 -4.7125E+01  2.5147E+03

           1    3.30017E+00     4.8156E-04  1.0721E-03  1.3423E-02  1.3474E-02
ac ID =   33377                -2.3149E-01 -3.6142E-01  1.1159E-01  4.4347E-01
                               -3.7554E-01  1.0708E+01 -4.7137E+01  2.5147E+03

           1    3.40016E+00    -2.5488E-03  2.9439E-03 -1.0079E-01  1.0087E-01
ac ID =   33377                -3.0583E-01 -3.3251E-02  1.1477E-01  3.2834E-01
                               -3.7565E-01  1.0713E+01 -4.7148E+01  2.5147E+03

           1    3.50015E+00    -4.9871E-03  3.0775E-03 -1.3202E-01  1.3215E-01
ac ID =   33377                -1.6004E-01  2.6864E-01  4.5740E-02  3.1603E-01
                               -3.7576E-01  1.0719E+01 -4.7160E+01  2.5147E+03

           1    3.60014E+00     5.6917E-03 -3.2007E-03 -5.2654E-02  5.3058E-02
ac ID =   33377                 1.2128E-01  7.4042E-01 -9.7483E-02  7.5659E-01
                               -3.7586E-01  1.0724E+01 -4.7172E+01  2.5147E+03

           1    3.70013E+00     1.1311E-02 -5.0659E-03 -4.7238E-02  4.8837E-02
ac ID =   33377                 3.1283E-01  8.6694E-01 -1.6598E-01  9.3648E-01
                               -3.7596E-01  1.0729E+01 -4.7183E+01  2.5147E+03

           1    3.80012E+00     9.0456E-03 -2.7102E-03 -1.3029E-01  1.3064E-01
ac ID =   33377                 2.4564E-01  1.0856E+00 -6.8740E-02  1.1151E+00
                               -3.7605E-01  1.0734E+01 -4.7195E+01  2.5147E+03

           1    3.90011E+00     1.1260E-02 -5.7188E-04 -1.9372E-01  1.9405E-01
ac ID =   33377                 1.6668E-01  1.1467E+00 -7.4885E-02  1.1612E+00
                               -3.7613E-01  1.0739E+01 -4.7206E+01  2.5147E+03

           1    4.00010E+00     6.7696E-03 -1.3974E-04 -1.4314E-01  1.4330E-01
ac ID =   33377                -5.0652E-02  7.9130E-01 -3.1040E-02  7.9353E-01
                               -3.7618E-01  1.0744E+01 -4.7217E+01  2.5147E+03

           1    4.10009E+00     1.2773E-02 -7.1911E-04 -1.1025E-01  1.1099E-01
ac ID =   33377                -6.0363E-02  6.8160E-01  6.0250E-03  6.8430E-01
                               -3.7623E-01  1.0749E+01 -4.7228E+01  2.5147E+03

           1    4.20008E+00     9.0697E-03  3.4004E-03 -1.5929E-01  1.5958E-01
ac ID =   33377                -2.2548E-01  7.2289E-01  1.3775E-01  7.6967E-01
                               -3.7629E-01  1.0753E+01 -4.7239E+01  2.5147E+03

           1    4.30007E+00     1.7725E-02  4.0004E-03 -2.6585E-01  2.6647E-01
ac ID =   33377                -2.9799E-01  1.2872E+00  1.0655E-01  1.3256E+00
                               -3.7636E-01  1.0758E+01 -4.7249E+01  2.5147E+03

           1    4.40006E+00     2.8251E-02  3.1811E-03 -2.3961E-01  2.4129E-01
ac ID =   33377                -6.6082E-02  1.6509E+00  4.0812E-02  1.6527E+00
                               -3.7643E-01  1.0763E+01 -4.7260E+01  2.5147E+03

           1    4.50005E+00     2.6248E-02 -2.1833E-03 -1.6107E-01  1.6320E-01
ac ID =   33377                 2.5274E-01  1.4570E+00  4.7220E-04  1.4788E+00
                               -3.7649E-01  1.0769E+01 -4.7271E+01  2.5147E+03

           1    4.60004E+00     3.4741E-02 -6.5175E-03 -2.0926E-01  2.1223E-01
ac ID =   33377                 4.1564E-01  1.6255E+00 -3.4773E-02  1.6782E+00
                               -3.7655E-01  1.0774E+01 -4.7281E+01  2.5147E+03

           1    4.70003E+00     3.9747E-02  6.3342E-04 -2.9528E-01  2.9795E-01
ac ID =   33377                 2.8089E-01  1.6446E+00 -8.0373E-02  1.6704E+00
                               -3.7660E-01  1.0780E+01 -4.7291E+01  2.5147E+03

           1    4.80002E+00     4.0384E-02  1.4657E-04 -3.3203E-01  3.3447E-01
ac ID =   33377                 1.0641E-01  1.6100E+00 -2.5276E-02  1.6137E+00
                               -3.7660E-01  1.0786E+01 -4.7302E+01  2.5147E+03

           1    4.90001E+00     4.7656E-02 -6.5592E-04 -2.8038E-01  2.8440E-01
ac ID =   33377                 2.4258E-02  1.7420E+00 -1.3829E-01  1.7476E+00
                               -3.7660E-01  1.0793E+01 -4.7312E+01  2.5147E+03

           1    5.00000E+00     5.4201E-02  5.9937E-03 -2.7128E-01  2.7671E-01
ac ID =   33377                -3.2989E-01  1.8744E+00  9.1192E-02  1.9054E+00
                               -3.7657E-01  1.0801E+01 -4.7322E+01  2.5147E+03

           1    5.10049E+00     5.3483E-02  3.2697E-03 -3.6405E-01  3.6797E-01
ac ID =   33377                -2.4926E-01  2.0183E+00  1.2697E-01  2.0376E+00
                               -3.7654E-01  1.0809E+01 -4.7333E+01  2.5147E+03

           1    5.20048E+00     6.2764E-02  1.0050E-02 -4.0515E-01  4.1011E-01
ac ID =   33377                -4.2982E-01  2.4528E+00 -2.6031E-02  2.4903E+00
                               -3.7652E-01  1.0819E+01 -4.7343E+01  2.5147E+03

           1    5.30047E+00     7.1765E-02  1.9798E-03 -3.8428E-01  3.9093E-01
ac ID =   33377                -2.9943E-01  2.5296E+00 -8.7430E-02  2.5487E+00
                               -3.7648E-01  1.0829E+01 -4.7354E+01  2.5147E+03

           1    5.40046E+00     8.1204E-02  8.8736E-04 -3.8708E-01  3.9550E-01
ac ID =   33377                 1.8349E-01  2.7092E+00 -1.1563E-01  2.7179E+00
                               -3.7646E-01  1.0841E+01 -4.7365E+01  2.5147E+03

           1    5.50045E+00     8.4095E-02  1.3923E-03 -4.7809E-01  4.8543E-01
ac ID =   33377                 9.2199E-02  2.9584E+00  4.6132E-02  2.9602E+00
                               -3.7640E-01  1.0855E+01 -4.7376E+01  2.5147E+03

           1    5.60044E+00     7.8984E-02  1.2162E-03 -5.5364E-01  5.5925E-01
ac ID =   33377                 2.4852E-02  3.0215E+00 -9.7269E-02  3.0232E+00
                               -3.7634E-01  1.0869E+01 -4.7388E+01  2.5147E+03

           1    5.70043E+00     9.3067E-02  4.1012E-03 -5.6583E-01  5.7345E-01
ac ID =   33377                -1.6921E-01  3.2309E+00 -1.3870E-01  3.2383E+00
                               -3.7628E-01  1.0885E+01 -4.7400E+01  2.5147E+03

           1    5.80042E+00     9.5871E-02  3.4394E-03 -5.3716E-01  5.4566E-01
ac ID =   33377                -1.4356E-01  3.1723E+00  1.4844E-01  3.1790E+00
                               -3.7617E-01  1.0903E+01 -4.7412E+01  2.5147E+03

           1    5.90041E+00     1.0877E-01  4.1572E-03 -5.7065E-01  5.8093E-01
ac ID =   33377                -3.1741E-01  3.6448E+00  2.1776E-01  3.6651E+00
                               -3.7608E-01  1.0922E+01 -4.7424E+01  2.5147E+03

           1    6.00040E+00     1.0116E-01  1.5034E-02 -6.4139E-01  6.4950E-01
ac ID =   33377                -7.4001E-01  3.7060E+00  2.1939E-01  3.7855E+00
                               -3.7600E-01  1.0943E+01 -4.7437E+01  2.5147E+03

           1    6.10039E+00     1.1242E-01  1.7841E-03 -6.5036E-01  6.6000E-01
ac ID =   33377                -3.8432E-01  3.6556E+00 -2.0470E-01  3.6814E+00
                               -3.7591E-01  1.0967E+01 -4.7450E+01  2.5147E+03

           1    6.20038E+00     1.1776E-01  7.2150E-03 -6.3259E-01  6.4350E-01
ac ID =   33377                -5.0972E-01  3.6977E+00 -1.7884E-01  3.7370E+00
                               -3.7582E-01  1.0992E+01 -4.7464E+01  2.5147E+03

           1    6.30037E+00     1.1329E-01  1.9976E-03 -6.6879E-01  6.7832E-01
ac ID =   33377                -8.0670E-03  3.5946E+00  1.4764E-01  3.5976E+00
                               -3.7575E-01  1.1019E+01 -4.7478E+01  2.5147E+03

           1    6.40036E+00     1.2099E-01  3.9720E-03 -7.7603E-01  7.8542E-01
ac ID =   33377                -1.5540E-01  4.1556E+00  2.2271E-01  4.1644E+00
                               -3.7566E-01  1.1048E+01 -4.7492E+01  2.5147E+03

           1    6.50035E+00     1.3481E-01  9.1963E-03 -8.3205E-01  8.4295E-01
ac ID =   33377                -3.7749E-01  4.5940E+00 -2.9853E-02  4.6095E+00
                               -3.7555E-01  1.1079E+01 -4.7507E+01  2.5147E+03

           1    6.60034E+00     1.3174E-01 -4.9321E-03 -8.2315E-01  8.3364E-01
ac ID =   33377                 1.6664E-02  4.7542E+00 -2.6691E-01  4.7617E+00
                               -3.7543E-01  1.1113E+01 -4.7523E+01  2.5147E+03

           1    6.70033E+00     1.3836E-01  8.5728E-03 -8.3117E-01  8.4266E-01
ac ID =   33377                -4.3285E-01  4.8804E+00 -8.8729E-02  4.9003E+00
                               -3.7528E-01  1.1149E+01 -4.7539E+01  2.5147E+03

           1    6.80032E+00     1.4936E-01  1.3053E-02 -9.0220E-01  9.1458E-01
ac ID =   33377                -5.4760E-01  5.2812E+00  1.9815E-01  5.3132E+00
                               -3.7514E-01  1.1188E+01 -4.7555E+01  2.5147E+03

           1    6.90031E+00     1.4457E-01  5.5054E-03 -9.7219E-01  9.8289E-01
ac ID =   33377                -6.4690E-01  5.4353E+00 -4.8915E-02  5.4739E+00
                               -3.7497E-01  1.1229E+01 -4.7572E+01  2.5147E+03

           1    7.00030E+00     1.4538E-01  6.5778E-03 -9.7408E-01  9.8489E-01
ac ID =   33377                -6.5059E-01  5.2351E+00 -1.5694E-01  5.2777E+00
                               -3.7481E-01  1.1272E+01 -4.7590E+01  2.5147E+03

           1    7.10029E+00     1.6094E-01  9.9918E-03 -1.0150E+00  1.0277E+00
ac ID =   33377                -5.7822E-01  5.5994E+00 -1.1367E-01  5.6303E+00
                               -3.7463E-01  1.1318E+01 -4.7608E+01  2.5147E+03

           1    7.20028E+00     1.5976E-01  3.3538E-03 -1.0997E+00  1.1112E+00
ac ID =   33377                -3.9660E-01  5.8007E+00  1.9739E-02  5.8143E+00
                               -3.7446E-01  1.1366E+01 -4.7626E+01  2.5147E+03

           1    7.30027E+00     1.5905E-01  1.1836E-02 -1.1967E+00  1.2073E+00
ac ID =   33377                -5.4902E-01  6.1325E+00  1.0731E-01  6.1580E+00
                               -3.7426E-01  1.1416E+01 -4.7644E+01  2.5147E+03

           1    7.40026E+00     1.8255E-01 -1.0433E-02 -1.2377E+00  1.2511E+00
ac ID =   33377                -1.2318E-01  6.9099E+00  2.2761E-02  6.9110E+00
                               -3.7401E-01  1.1470E+01 -4.7663E+01  2.5147E+03

           1    7.50025E+00     1.9172E-01  1.7414E-02 -1.2436E+00  1.2584E+00
ac ID =   33377                -5.1097E-01  7.2455E+00  1.1598E-01  7.2644E+00
                               -3.7378E-01  1.1525E+01 -4.7682E+01  2.5147E+03

           1    7.60024E+00     1.7410E-01 -9.3968E-04 -1.2893E+00  1.3010E+00
ac ID =   33377                -2.3870E-01  7.1030E+00  1.1083E-01  7.1079E+00
                               -3.7344E-01  1.1583E+01 -4.7701E+01  2.5147E+03

           1    7.70023E+00     1.9506E-01  4.0550E-03 -1.3540E+00  1.3680E+00
ac ID =   33377                -5.6567E-01  7.3843E+00 -4.7317E-02  7.4061E+00
                               -3.7309E-01  1.1644E+01 -4.7720E+01  2.5147E+03

           1    7.80022E+00     1.9444E-01  1.2896E-02 -1.3976E+00  1.4111E+00
ac ID =   33377                -8.1401E-01  7.4351E+00 -2.3181E-01  7.4831E+00
                               -3.7273E-01  1.1707E+01 -4.7740E+01  2.5147E+03

           1    7.90021E+00     1.9350E-01  7.5426E-03 -1.4245E+00  1.4376E+00
ac ID =   33377                -8.3758E-01  7.4454E+00 -1.2230E-01  7.4934E+00
                               -3.7230E-01  1.1773E+01 -4.7759E+01  2.5147E+03

           1    8.00020E+00     2.0307E-01  5.5552E-03 -1.4879E+00  1.5017E+00
ac ID =   33377                -4.8724E-01  8.0037E+00  7.0545E-02  8.0188E+00
                               -3.7188E-01  1.1841E+01 -4.7779E+01  2.5147E+03

           1    8.10019E+00     2.1823E-01  1.1231E-02 -1.5804E+00  1.5955E+00
ac ID =   33377                -7.3065E-01  8.5289E+00  9.2361E-02  8.5606E+00
                               -3.7142E-01  1.1912E+01 -4.7798E+01  2.5147E+03

           1    8.20018E+00     2.2049E-01  8.1289E-03 -1.6589E+00  1.6735E+00
ac ID =   33377                -6.5616E-01  9.0306E+00 -2.3036E-01  9.0573E+00
                               -3.7094E-01  1.1985E+01 -4.7817E+01  2.5147E+03

           1    8.30017E+00     2.2138E-01  1.7228E-04 -1.6902E+00  1.7047E+00
ac ID =   33377                -4.2330E-01  9.2547E+00 -2.7329E-01  9.2684E+00
                               -3.7039E-01  1.2061E+01 -4.7836E+01  2.5147E+03

           1    8.40016E+00     2.4221E-01  6.6902E-03 -1.7215E+00  1.7385E+00
ac ID =   33377                -3.2215E-01  9.8432E+00 -1.5715E-01  9.8497E+00
                               -3.6983E-01  1.2139E+01 -4.7855E+01  2.5147E+03

           1    8.50015E+00     2.3433E-01  8.1491E-03 -1.8125E+00  1.8276E+00
ac ID =   33377                -8.1207E-01  1.0215E+01 -1.3409E-02  1.0247E+01
                               -3.6920E-01  1.2219E+01 -4.7873E+01  2.5147E+03

           1    8.60014E+00     2.2620E-01  1.1177E-02 -1.8840E+00  1.8976E+00
ac ID =   33377                -7.6174E-01  1.0172E+01 -2.1156E-01  1.0203E+01
                               -3.6859E-01  1.2302E+01 -4.7891E+01  2.5147E+03

           1    8.70013E+00     2.5511E-01  9.8006E-03 -1.9411E+00  1.9578E+00
ac ID =   33377                -9.7936E-01  1.0803E+01 -3.4306E-01  1.0853E+01
                               -3.6785E-01  1.2387E+01 -4.7908E+01  2.5147E+03

           1    8.80012E+00     2.5956E-01  2.1220E-02 -2.0168E+00  2.0335E+00
ac ID =   33377                -1.3327E+00  1.0984E+01 -1.8814E-01  1.1066E+01
                               -3.6705E-01  1.2475E+01 -4.7925E+01  2.5147E+03

           1    8.90011E+00     2.4665E-01  1.6536E-03 -2.0719E+00  2.0865E+00
ac ID =   33377                -7.2796E-01  1.1170E+01  7.9054E-02  1.1194E+01
                               -3.6622E-01  1.2565E+01 -4.7941E+01  2.5147E+03

           1    9.00010E+00     2.7696E-01  8.1288E-03 -2.1580E+00  2.1757E+00
ac ID =   33377                -7.8425E-01  1.2050E+01  1.0449E-01  1.2076E+01
                               -3.6540E-01  1.2657E+01 -4.7956E+01  2.5147E+03

           1    9.10009E+00     2.9271E-01  1.2188E-02 -2.2174E+00  2.2366E+00
ac ID =   33377                -8.5712E-01  1.2604E+01 -3.2991E-02  1.2633E+01
                               -3.6454E-01  1.2752E+01 -4.7970E+01  2.5147E+03

           1    9.20008E+00     2.8601E-01  5.9571E-03 -2.2659E+00  2.2839E+00
ac ID =   33377                -5.1296E-01  1.2616E+01  2.4704E-03  1.2626E+01
                               -3.6362E-01  1.2849E+01 -4.7984E+01  2.5147E+03

           1    9.30007E+00     2.9588E-01  7.2355E-03 -2.3383E+00  2.3570E+00
ac ID =   33377                -4.3273E-01  1.2926E+01 -5.8983E-02  1.2934E+01
                               -3.6264E-01  1.2948E+01 -4.7997E+01  2.5147E+03

           1    9.40006E+00     2.9903E-01  1.3728E-03 -2.4070E+00  2.4255E+00
ac ID =   33377                -8.5277E-01  1.3386E+01 -9.4778E-02  1.3414E+01
                               -3.6159E-01  1.3049E+01 -4.8008E+01  2.5147E+03

           1    9.50005E+00     3.0030E-01  1.0137E-02 -2.4730E+00  2.4912E+00
ac ID =   33377                -9.3516E-01  1.3635E+01 -2.7793E-03  1.3667E+01
                               -3.6055E-01  1.3152E+01 -4.8018E+01  2.5147E+03

           1    9.60004E+00     3.2062E-01  8.3278E-03 -2.5252E+00  2.5455E+00
ac ID =   33377                -1.0744E+00  1.4317E+01  1.0085E-01  1.4357E+01
                               -3.5943E-01  1.3258E+01 -4.8028E+01  2.5147E+03

           1    9.70003E+00     3.3129E-01  6.7259E-03 -2.5553E+00  2.5767E+00
ac ID =   33377                -1.1544E+00  1.4869E+01  1.5166E-01  1.4914E+01
                               -3.5828E-01  1.3365E+01 -4.8036E+01  2.5147E+03

           1    9.80002E+00     3.2462E-01  3.1886E-03 -2.6131E+00  2.6332E+00
ac ID =   33377                -8.7621E-01  1.5153E+01  9.3687E-02  1.5179E+01
                               -3.5713E-01  1.3475E+01 -4.8042E+01  2.5147E+03

           1    9.90001E+00     3.3230E-01  5.5154E-03 -2.6832E+00  2.7037E+00
ac ID =   33377                -7.8107E-01  1.5659E+01 -6.3118E-02  1.5678E+01
                               -3.5596E-01  1.3586E+01 -4.8047E+01  2.5147E+03

           1    1.00005E+01     3.5637E-01 -4.0491E-03 -2.7406E+00  2.7637E+00
ac ID =   33377                -6.8432E-01  1.6414E+01  7.4162E-02  1.6429E+01
                               -3.5475E-01  1.3699E+01 -4.8050E+01  2.5147E+03

           1    1.01005E+01     3.4342E-01  8.3009E-03 -2.8008E+00  2.8218E+00
ac ID =   33377                -5.8907E-01  1.6700E+01  1.9090E-01  1.6711E+01
                               -3.5351E-01  1.3814E+01 -4.8051E+01  2.5147E+03

           1    1.02005E+01     3.4015E-01 -2.2271E-03 -2.8678E+00  2.8880E+00
ac ID =   33377                -6.5703E-01  1.6880E+01 -8.5219E-02  1.6893E+01
                               -3.5212E-01  1.3930E+01 -4.8050E+01  2.5147E+03

           1    1.03005E+01     3.5256E-01  1.1970E-02 -2.9158E+00  2.9370E+00
ac ID =   33377                -8.9205E-01  1.7584E+01 -4.1239E-01  1.7612E+01
                               -3.5073E-01  1.4048E+01 -4.8048E+01  2.5147E+03

           1    1.04005E+01     3.5900E-01  1.4163E-02 -2.9665E+00  2.9882E+00
ac ID =   33377                -1.0960E+00  1.7907E+01 -3.5173E-01  1.7944E+01
                               -3.4924E-01  1.4167E+01 -4.8042E+01  2.5147E+03

           1    1.05004E+01     3.5798E-01  8.5557E-03 -2.9922E+00  3.0135E+00
ac ID =   33377                -1.1638E+00  1.8050E+01 -1.4585E-01  1.8088E+01
                               -3.4761E-01  1.4287E+01 -4.8035E+01  2.5147E+03

           1    1.06004E+01     3.7287E-01  1.1021E-02 -3.0094E+00  3.0324E+00
ac ID =   33377                -1.1368E+00  1.8385E+01 -1.1420E-02  1.8420E+01
                               -3.4598E-01  1.4408E+01 -4.8025E+01  2.5147E+03

           1    1.07004E+01     3.8505E-01  1.1962E-02 -3.0602E+00  3.0843E+00
ac ID =   33377                -9.5589E-01  1.8803E+01  1.5626E-01  1.8828E+01
                               -3.4428E-01  1.4530E+01 -4.8012E+01  2.5147E+03

           1    1.08004E+01     3.6814E-01  1.2160E-03 -3.1063E+00  3.1280E+00
ac ID =   33377                -7.3539E-01  1.8619E+01  3.0388E-02  1.8633E+01
                               -3.4250E-01  1.4653E+01 -4.7996E+01  2.5147E+03

           1    1.09004E+01     3.7667E-01 -6.0829E-03 -3.1528E+00  3.1752E+00
ac ID =   33377                -4.2661E-01  1.9115E+01 -1.5719E-01  1.9120E+01
                               -3.4066E-01  1.4777E+01 -4.7978E+01  2.5147E+03

           1    1.10004E+01     3.8697E-01  2.3827E-05 -3.2022E+00  3.2255E+00
ac ID =   33377                -5.0021E-01  1.9631E+01  8.2980E-02  1.9638E+01
                               -3.3878E-01  1.4901E+01 -4.7956E+01  2.5147E+03

           1    1.11004E+01     4.0537E-01  8.9329E-03 -3.2340E+00  3.2594E+00
ac ID =   33377                -5.5258E-01  2.0348E+01 -1.3680E-01  2.0356E+01
                               -3.3685E-01  1.5027E+01 -4.7932E+01  2.5147E+03

           1    1.12004E+01     4.2304E-01 -3.2529E-03 -3.2804E+00  3.3076E+00
ac ID =   33377                -5.9864E-01  2.1313E+01 -1.2971E-01  2.1322E+01
                               -3.3482E-01  1.5153E+01 -4.7905E+01  2.5147E+03

           1    1.13004E+01     4.0819E-01  7.1370E-03 -3.3000E+00  3.3251E+00
ac ID =   33377                -8.3636E-01  2.1447E+01  2.7143E-02  2.1463E+01
                               -3.3276E-01  1.5280E+01 -4.7875E+01  2.5147E+03

           1    1.14004E+01     4.2567E-01  7.5943E-03 -3.3118E+00  3.3391E+00
ac ID =   33377                -9.8509E-01  2.1863E+01  1.6571E-01  2.1886E+01
                               -3.3067E-01  1.5408E+01 -4.7842E+01  2.5147E+03

           1    1.15003E+01     4.2937E-01  3.1603E-03 -3.3342E+00  3.3618E+00
ac ID =   33377                -7.6970E-01  2.2144E+01  2.7797E-01  2.2159E+01
                               -3.2855E-01  1.5536E+01 -4.7806E+01  2.5147E+03

           1    1.16003E+01     4.2130E-01  3.1044E-03 -3.3491E+00  3.3754E+00
ac ID =   33377                -6.6213E-01  2.2258E+01  2.9414E-01  2.2270E+01
                               -3.2634E-01  1.5665E+01 -4.7767E+01  2.5147E+03

           1    1.17003E+01     4.3132E-01  1.0840E-03 -3.3953E+00  3.4226E+00
ac ID =   33377                -6.6249E-01  2.2816E+01 -2.2002E-01  2.2827E+01
                               -3.2414E-01  1.5795E+01 -4.7725E+01  2.5147E+03

           1    1.18003E+01     4.5042E-01  2.3068E-03 -3.4226E+00  3.4522E+00
ac ID =   33377                -2.2871E-01  2.3658E+01 -3.5503E-01  2.3662E+01
                               -3.2192E-01  1.5925E+01 -4.7680E+01  2.5147E+03

           1    1.19003E+01     4.3911E-01 -6.1766E-03 -3.4056E+00  3.4338E+00
ac ID =   33377                -2.1077E-01  2.3807E+01 -1.8613E-01  2.3809E+01
                               -3.1955E-01  1.6056E+01 -4.7632E+01  2.5147E+03

           1    1.20003E+01     4.3986E-01  2.5253E-04 -3.4228E+00  3.4509E+00
ac ID =   33377                -3.2642E-01  2.4088E+01 -2.0508E-01  2.4091E+01
                               -3.1720E-01  1.6187E+01 -4.7580E+01  2.5147E+03

           1    1.21003E+01     4.6031E-01  2.7402E-03 -3.4271E+00  3.4579E+00
ac ID =   33377                -3.0962E-01  2.4602E+01 -2.1208E-02  2.4604E+01
                               -3.1480E-01  1.6319E+01 -4.7525E+01  2.5147E+03

           1    1.22003E+01     4.5597E-01  2.8339E-03 -3.3866E+00  3.4172E+00
ac ID =   33377                -5.8495E-01  2.4407E+01 -5.4132E-03  2.4414E+01
                               -3.1229E-01  1.6450E+01 -4.7467E+01  2.5147E+03

           1    1.23003E+01     4.4405E-01  9.5431E-03 -3.3589E+00  3.3881E+00
ac ID =   33377                -7.2921E-01  2.4157E+01 -2.7134E-03  2.4168E+01
                               -3.0978E-01  1.6582E+01 -4.7406E+01  2.5147E+03

           1    1.24003E+01     4.4942E-01  1.7117E-03 -3.3464E+00  3.3765E+00
ac ID =   33377                -4.9088E-01  2.4170E+01 -7.7116E-02  2.4176E+01
                               -3.0725E-01  1.6714E+01 -4.7341E+01  2.5147E+03

           1    1.25002E+01     4.5786E-01 -8.0033E-05 -3.3358E+00  3.3670E+00
ac ID =   33377                -5.1861E-01  2.4327E+01  3.7402E-01  2.4336E+01
                               -3.0463E-01  1.6846E+01 -4.7273E+01  2.5147E+03

           1    1.26002E+01     4.4972E-01  1.1421E-02 -3.3185E+00  3.3489E+00
ac ID =   33377                -4.9310E-01  2.4340E+01  2.0362E-01  2.4346E+01
                               -3.0208E-01  1.6979E+01 -4.7202E+01  2.5147E+03

           1    1.27002E+01     4.5815E-01 -2.9379E-03 -3.2871E+00  3.3189E+00
ac ID =   33377                -3.9151E-02  2.4898E+01  7.3996E-02  2.4898E+01
                               -2.9941E-01  1.7111E+01 -4.7127E+01  2.5147E+03

           1    1.28002E+01     4.8246E-01 -4.2256E-03 -3.2790E+00  3.3143E+00
ac ID =   33377                -9.7870E-02  2.5061E+01 -4.8902E-02  2.5061E+01
                               -2.9673E-01  1.7243E+01 -4.7049E+01  2.5147E+03

           1    1.29002E+01     3.8882E-01  2.6592E-03 -3.1379E+00  3.1619E+00
ac ID =   33377                -1.1120E-01  2.3842E+01 -3.9847E-01  2.3846E+01
                               -2.9404E-01  1.7375E+01 -4.6967E+01  2.5147E+03

           1    1.30002E+01     4.3109E-01  1.9690E-03 -3.0477E+00  3.0780E+00
ac ID =   33377                -1.0617E-01  2.3594E+01 -2.2445E-01  2.3595E+01
                               -2.9130E-01  1.7506E+01 -4.6881E+01  2.5147E+03

           1    1.31002E+01     4.2274E-01  1.0244E-02 -3.0936E+00  3.1224E+00
ac ID =   33377                -7.2079E-01  2.3724E+01  3.6197E-01  2.3737E+01
                               -2.8851E-01  1.7636E+01 -4.6792E+01  2.5147E+03

           1    1.32002E+01     3.9427E-01  1.1173E-02 -3.0049E+00  3.0307E+00
ac ID =   33377                -6.1835E-01  2.2471E+01  7.8487E-02  2.2480E+01
                               -2.8570E-01  1.7765E+01 -4.6697E+01  2.5147E+03

           1    1.33002E+01     4.0171E-01  1.3973E-02 -2.9563E+00  2.9835E+00
ac ID =   33377                -6.7030E-01  2.2520E+01 -3.7589E-01  2.2533E+01
                               -2.8286E-01  1.7893E+01 -4.6600E+01  2.5147E+03

           1    1.34002E+01     3.8568E-01  5.7936E-03 -2.8549E+00  2.8809E+00
ac ID =   33377                -6.7246E-01  2.2641E+01  6.8614E-02  2.2651E+01
                               -2.7993E-01  1.8020E+01 -4.6498E+01  2.5147E+03

           1    1.35001E+01     4.0321E-01  1.5903E-02 -2.8060E+00  2.8349E+00
ac ID =   33377                -5.1692E-01  2.2073E+01  7.1459E-02  2.2080E+01
                               -2.7707E-01  1.8146E+01 -4.6392E+01  2.5147E+03

           1    1.36001E+01     3.7535E-01 -1.4794E-03 -2.8034E+00  2.8284E+00
ac ID =   33377                -2.2006E-01  2.2439E+01  1.3572E-01  2.2441E+01
                               -2.7408E-01  1.8270E+01 -4.6283E+01  2.5147E+03

           1    1.37001E+01     4.0572E-01  1.3845E-02 -2.6866E+00  2.7171E+00
ac ID =   33377                -1.6839E-01  2.1488E+01 -2.2725E-03  2.1488E+01
                               -2.7105E-01  1.8394E+01 -4.6169E+01  2.5147E+03

           1    1.38001E+01     3.7353E-01  3.3782E-03 -2.6101E+00  2.6367E+00
ac ID =   33377                -3.0221E-01  2.1392E+01 -2.3281E-01  2.1395E+01
                               -2.6798E-01  1.8516E+01 -4.6053E+01  2.5147E+03

           1    1.39001E+01     3.7291E-01  1.2205E-02 -2.5320E+00  2.5593E+00
ac ID =   33377                -3.9093E-01  2.0243E+01  1.8733E-01  2.0248E+01
                               -2.6486E-01  1.8638E+01 -4.5933E+01  2.5147E+03

           1    1.40001E+01     3.7579E-01  3.6822E-03 -2.5014E+00  2.5295E+00
ac ID =   33377                -7.2331E-01  2.0102E+01  1.0549E-01  2.0116E+01
                               -2.6169E-01  1.8759E+01 -4.5809E+01  2.5147E+03

           1    1.41001E+01     3.7148E-01  2.1141E-02 -2.4085E+00  2.4371E+00
ac ID =   33377                -1.0387E+00  1.9399E+01 -2.3170E-02  1.9427E+01
                               -2.5850E-01  1.8879E+01 -4.5683E+01  2.5147E+03

           1    1.42001E+01     3.7889E-01  8.1310E-03 -2.2777E+00  2.3090E+00
ac ID =   33377                -5.2780E-01  1.9028E+01 -1.5008E-01  1.9036E+01
                               -2.5536E-01  1.8998E+01 -4.5553E+01  2.5147E+03

           1    1.43001E+01     3.6485E-01  2.1629E-02 -2.2439E+00  2.2735E+00
ac ID =   33377                -9.3062E-01  1.9501E+01  9.5371E-02  1.9524E+01
                               -2.5213E-01  1.9117E+01 -4.5421E+01  2.5147E+03

           1    1.44001E+01     3.6555E-01  2.2932E-03 -2.1716E+00  2.2021E+00
ac ID =   33377                -6.0353E-01  1.7790E+01  2.2926E-01  1.7802E+01
                               -2.4890E-01  1.9235E+01 -4.5286E+01  2.5147E+03

           1    1.45000E+01     3.5445E-01  6.1963E-03 -2.0507E+00  2.0811E+00
ac ID =   33377                -1.2568E-01  1.7874E+01 -3.0565E-01  1.7877E+01
                               -2.4575E-01  1.9353E+01 -4.5149E+01  2.5147E+03

           1    1.46000E+01     3.9995E-01  2.3283E-03 -1.9942E+00  2.0339E+00
ac ID =   33377                -2.5161E-02  1.7396E+01 -4.5467E-01  1.7402E+01
                               -2.4246E-01  1.9471E+01 -4.5010E+01  2.5147E+03

           1    1.47000E+01     3.1391E-01  9.6943E-03 -1.9270E+00  1.9525E+00
ac ID =   33377                -5.2845E-01  1.5865E+01  2.2572E-01  1.5876E+01
                               -2.3917E-01  1.9589E+01 -4.4869E+01  2.5147E+03

           1    1.48005E+01     3.5823E-01  8.1900E-03 -1.7856E+00  1.8212E+00
ac ID =   33377                -1.4469E-01  1.5910E+01  3.2126E-01  1.5914E+01
                               -2.3598E-01  1.9707E+01 -4.4725E+01  2.5147E+03

           1    1.49005E+01     3.4294E-01  8.7560E-03 -1.7265E+00  1.7603E+00
ac ID =   33377                -5.3904E-01  1.5021E+01 -2.3272E-01  1.5033E+01
                               -2.3266E-01  1.9824E+01 -4.4580E+01  2.5147E+03

           1    1.50005E+01     3.4339E-01 -2.8558E-03 -1.6498E+00  1.6851E+00
ac ID =   33377                -5.6219E-01  1.4424E+01 -3.9927E-01  1.4440E+01
                               -2.2935E-01  1.9942E+01 -4.4434E+01  2.5147E+03

           1    1.51005E+01     2.8667E-01  1.8197E-02 -1.4907E+00  1.5182E+00
ac ID =   33377                -4.6273E-01  1.2626E+01  8.5199E-02  1.2635E+01
                               -2.2621E-01  2.0059E+01 -4.4286E+01  2.5147E+03

           1    1.52005E+01     2.7112E-01  7.7994E-04 -1.3661E+00  1.3928E+00
ac ID =   33377                -2.4543E-01  1.2058E+01  4.8879E-01  1.2070E+01
                               -2.2298E-01  2.0177E+01 -4.4138E+01  2.5147E+03

           1    1.53005E+01     3.2924E-01  3.8297E-03 -1.3515E+00  1.3910E+00
ac ID =   33377                 2.8182E-02  1.2039E+01 -2.8272E-01  1.2042E+01
                               -2.1985E-01  2.0295E+01 -4.3987E+01  2.5147E+03

           1    1.54005E+01     2.2431E-01  1.0375E-02 -1.2365E+00  1.2568E+00
ac ID =   33377                -4.1412E-01  1.0045E+01 -4.3045E-01  1.0062E+01
                               -2.1673E-01  2.0413E+01 -4.3836E+01  2.5147E+03

           1    1.55004E+01     2.4713E-01  1.7591E-03 -1.1047E+00  1.1320E+00
ac ID =   33377                 3.0879E-01  9.4618E+00 -6.4437E-01  9.4887E+00
                               -2.1364E-01  2.0531E+01 -4.3684E+01  2.5147E+03

           1    1.56004E+01     2.6613E-01  2.0040E-03 -1.0457E+00  1.0791E+00
ac ID =   33377                 7.6061E-02  9.9821E+00  3.6126E-02  9.9824E+00
                               -2.1055E-01  2.0649E+01 -4.3532E+01  2.5147E+03

           1    1.57004E+01     2.0820E-01  1.0129E-02 -9.1860E-01  9.4195E-01
ac ID =   33377                -1.9931E-02  7.7558E+00  6.9870E-01  7.7873E+00
                               -2.0746E-01  2.0768E+01 -4.3378E+01  2.5147E+03

           1    1.58004E+01     2.0944E-01  7.6401E-03 -8.3654E-01  8.6239E-01
ac ID =   33377                -1.8259E-01  7.2624E+00 -2.5607E-01  7.2692E+00
                               -2.0442E-01  2.0887E+01 -4.3224E+01  2.5147E+03

           1    1.59004E+01     2.1520E-01 -3.0856E-03 -7.3529E-01  7.6614E-01
ac ID =   33377                 8.5871E-02  6.9009E+00 -5.2228E-01  6.9212E+00
                               -2.0142E-01  2.1005E+01 -4.3069E+01  2.5147E+03

           1    1.60004E+01     1.7859E-01  1.1790E-03 -6.2080E-01  6.4598E-01
ac ID =   33377                 8.2749E-02  5.3663E+00 -2.6211E-01  5.3734E+00
                               -1.9841E-01  2.1125E+01 -4.2914E+01  2.5147E+03

           1    1.61004E+01     1.0568E-01  1.1751E-02 -5.3044E-01  5.4099E-01
ac ID =   33377                -1.7368E-01  3.6429E+00  2.2899E-01  3.6542E+00
                               -1.9542E-01  2.1244E+01 -4.2759E+01  2.5147E+03

           1    1.62004E+01     1.9618E-01 -8.7614E-04 -4.4854E-01  4.8956E-01
ac ID =   33377                 2.8194E-01  4.7037E+00  2.5174E-01  4.7189E+00
                               -1.9245E-01  2.1363E+01 -4.2604E+01  2.5147E+03

           1    1.63004E+01     1.0019E-01 -1.1098E-02 -3.8109E-01  3.9419E-01
ac ID =   33377                 6.0966E-01  3.6562E+00 -2.9493E-01  3.7184E+00
                               -1.8949E-01  2.1484E+01 -4.2449E+01  2.5147E+03

           1    1.64004E+01     1.4105E-01  1.1384E-02 -2.9611E-01  3.2819E-01
ac ID =   33377                -6.7865E-02  4.2823E+00 -3.9798E-01  4.3013E+00
                               -1.8645E-01  2.1604E+01 -4.2293E+01  2.5147E+03

           1    1.65003E+01     1.3965E-01  8.7554E-04 -2.0905E-01  2.5141E-01
ac ID =   33377                 4.3355E-01  5.5331E+00 -3.0360E-01  5.5584E+00
                               -1.8354E-01  2.1724E+01 -4.2139E+01  2.5147E+03

           1    1.66003E+01     1.6072E-01 -2.6707E-03 -1.2350E-01  2.0271E-01
ac ID =   33377                 2.5600E-01  5.8605E+00  1.5167E-01  5.8681E+00
                               -1.8054E-01  2.1845E+01 -4.1984E+01  2.5147E+03

           1    1.67003E+01     1.4546E-01 -4.0799E-03 -7.5233E-02  1.6382E-01
ac ID =   33377                 9.1139E-02  6.0167E+00  2.2974E-01  6.0218E+00
                               -1.7750E-01  2.1966E+01 -4.1830E+01  2.5147E+03

           1    1.68003E+01     1.3228E-01  2.9080E-02  2.5493E-02  1.3782E-01
ac ID =   33377                -2.6458E-01  6.2666E+00 -3.5143E-01  6.2821E+00
                               -1.7464E-01  2.2087E+01 -4.1677E+01  2.5147E+03

           1    1.69003E+01     1.3221E-01 -1.2911E-02  1.2731E-01  1.8400E-01
ac ID =   33377                 6.9729E-01  6.2533E+00 -3.8278E-01  6.3037E+00
                               -1.7166E-01  2.2208E+01 -4.1525E+01  2.5147E+03

           1    1.70003E+01     1.4903E-01 -3.5698E-03  1.8402E-01  2.3683E-01
ac ID =   33377                 2.0884E-01  7.1930E+00  1.6206E-01  7.1979E+00
                               -1.6863E-01  2.2330E+01 -4.1374E+01  2.5147E+03

           1    1.71003E+01     1.5604E-01  6.1757E-03  2.6729E-01  3.0957E-01
ac ID =   33377                 3.0917E-01  8.1751E+00 -1.0147E-02  8.1809E+00
                               -1.6580E-01  2.2452E+01 -4.1224E+01  2.5147E+03

           1    1.72003E+01     1.5267E-01 -1.1750E-03  3.1660E-01  3.5149E-01
ac ID =   33377                 2.5761E-01  8.2170E+00  4.1617E-01  8.2316E+00
                               -1.6284E-01  2.2574E+01 -4.1075E+01  2.5147E+03

           1    1.73003E+01     1.4955E-01 -1.7530E-02  3.7398E-01  4.0315E-01
ac ID =   33377                 8.9281E-01  8.5132E+00  2.4847E-01  8.5635E+00
                               -1.5987E-01  2.2697E+01 -4.0928E+01  2.5147E+03

           1    1.74003E+01     1.6699E-01  1.7944E-02  4.7765E-01  5.0632E-01
ac ID =   33377                -1.5307E-01  8.1529E+00 -6.2902E-02  8.1546E+00
                               -1.5697E-01  2.2819E+01 -4.0782E+01  2.5147E+03

           1    1.75002E+01     1.2859E-01 -1.5532E-02  5.4984E-01  5.6489E-01
ac ID =   33377                 6.6359E-01  7.3102E+00 -4.2973E-01  7.3528E+00
                               -1.5406E-01  2.2942E+01 -4.0639E+01  2.5147E+03

           1    1.76002E+01     1.4874E-01 -7.6646E-03  5.7840E-01  5.9727E-01
ac ID =   33377                 2.9759E-01  7.5163E+00 -3.3666E-01  7.5297E+00
                               -1.5110E-01  2.3065E+01 -4.0497E+01  2.5147E+03

           1    1.77002E+01     1.5600E-01  1.6331E-02  6.5921E-01  6.7762E-01
ac ID =   33377                -6.7424E-02  8.2400E+00  3.2252E-01  8.2465E+00
                               -1.4823E-01  2.3189E+01 -4.0357E+01  2.5147E+03

           1    1.78002E+01     1.0968E-01 -1.3164E-02  7.4396E-01  7.5212E-01
ac ID =   33377                 6.3864E-01  7.4418E+00  3.8821E-01  7.4793E+00
                               -1.4536E-01  2.3313E+01 -4.0219E+01  2.5147E+03

           1    1.79002E+01     9.5909E-02  1.9397E-02  7.7497E-01  7.8112E-01
ac ID =   33377                 3.3780E-02  6.6032E+00 -2.2480E-01  6.6071E+00
                               -1.4251E-01  2.3437E+01 -4.0084E+01  2.5147E+03

           1    1.80002E+01     1.2989E-01 -1.0159E-02  8.4168E-01  8.5170E-01
ac ID =   33377                 4.2408E-01  6.9073E+00 -7.2499E-01  6.9581E+00
                               -1.3964E-01  2.3561E+01 -3.9950E+01  2.5147E+03

           1    1.81002E+01     1.0478E-01  6.6303E-03  8.8345E-01  8.8967E-01
ac ID =   33377                 3.9756E-01  5.9319E+00 -3.2989E-01  5.9543E+00
                               -1.3685E-01  2.3686E+01 -3.9820E+01  2.5147E+03

           1    1.82002E+01     6.1505E-02  2.9712E-03  9.3600E-01  9.3802E-01
ac ID =   33377                 4.2916E-01  5.2902E+00  2.0456E-01  5.3115E+00
                               -1.3406E-01  2.3812E+01 -3.9692E+01  2.5147E+03

           1    1.83002E+01     1.0763E-01  6.8391E-03  9.7120E-01  9.7717E-01
ac ID =   33377                 4.8244E-02  5.4285E+00  4.3748E-01  5.4463E+00
                               -1.3126E-01  2.3938E+01 -3.9566E+01  2.5147E+03

           1    1.84002E+01     8.7933E-02 -3.9856E-03  9.9850E-01  1.0024E+00
ac ID =   33377                 3.3613E-01  4.7720E+00 -3.2544E-01  4.7949E+00
                               -1.2850E-01  2.4065E+01 -3.9443E+01  2.5147E+03

           1    1.85001E+01     2.7819E-02 -7.2244E-03  1.0419E+00  1.0423E+00
ac ID =   33377                 2.9771E-01  3.2043E+00 -5.9084E-01  3.2719E+00
                               -1.2574E-01  2.4192E+01 -3.9323E+01  2.5147E+03

           1    1.86001E+01     5.8254E-02  1.0116E-02  1.0803E+00  1.0819E+00
ac ID =   33377                -4.3929E-02  3.0473E+00 -1.3585E-01  3.0506E+00
                               -1.2307E-01  2.4320E+01 -3.9205E+01  2.5147E+03

           1    1.87001E+01     6.1843E-02  1.3771E-02  1.1011E+00  1.1029E+00
ac ID =   33377                 1.1806E-01  2.9420E+00  5.0037E-01  2.9866E+00
                               -1.2041E-01  2.4449E+01 -3.9091E+01  2.5147E+03

           1    1.88001E+01     2.4095E-02 -1.4450E-02  1.1400E+00  1.1404E+00
ac ID =   33377                 2.2300E-01  1.6847E+00  5.4077E-01  1.7834E+00
                               -1.1771E-01  2.4578E+01 -3.8979E+01  2.5147E+03

           1    1.89001E+01     2.1355E-03  1.6487E-02  1.1689E+00  1.1690E+00
ac ID =   33377                -8.0962E-02  9.8755E-01 -4.8881E-02  9.9206E-01
                               -1.1517E-01  2.4708E+01 -3.8870E+01  2.5147E+03

           1    1.90001E+01     5.1712E-02  1.5540E-04  1.1755E+00  1.1766E+00
ac ID =   33377                 1.8933E-01  1.1516E+00 -4.7469E-01  1.2599E+00
                               -1.1259E-01  2.4839E+01 -3.8764E+01  2.5147E+03

           1    1.91001E+01     6.8769E-03 -3.7555E-04  1.2099E+00  1.2099E+00
ac ID =   33377                 4.8027E-01  1.0824E-01 -2.3618E-01  5.4604E-01
                               -1.1004E-01  2.4970E+01 -3.8661E+01  2.5147E+03

           1    1.92001E+01     3.5771E-03  1.1663E-02  1.2410E+00  1.2410E+00
ac ID =   33377                -1.7824E-01 -6.8656E-01  1.1918E-01  7.1927E-01
                               -1.0754E-01  2.5102E+01 -3.8561E+01  2.5147E+03

           1    1.93001E+01     2.3552E-02  7.7534E-03  1.2417E+00  1.2420E+00
ac ID =   33377                 5.4424E-02 -2.0071E-01  7.2280E-02  2.2016E-01
                               -1.0504E-01  2.5235E+01 -3.8464E+01  2.5147E+03

           1    1.94001E+01     7.2334E-03 -4.4083E-03  1.2545E+00  1.2545E+00
ac ID =   33377                 1.4575E-01 -8.9828E-01 -1.8947E-01  9.2954E-01
                               -1.0255E-01  2.5369E+01 -3.8370E+01  2.5147E+03

           1    1.95000E+01    -1.5218E-02  5.4825E-03  1.2860E+00  1.2861E+00
ac ID =   33377                 1.1109E-01 -2.0497E+00 -1.9719E-01  2.0621E+00
                               -1.0019E-01  2.5504E+01 -3.8279E+01  2.5147E+03

           1    1.96000E+01    -1.3165E-03  1.4072E-02  1.3014E+00  1.3015E+00
ac ID =   33377                -1.8512E-01 -2.1333E+00 -3.2342E-01  2.1656E+00
                               -9.7822E-02  2.5639E+01 -3.8191E+01  2.5147E+03

           1    1.97005E+01     9.2553E-03 -2.7407E-03  1.2888E+00  1.2888E+00
ac ID =   33377                 9.7455E-02 -2.3726E+00 -2.4353E-01  2.3871E+00
                               -9.5438E-02  2.5776E+01 -3.8105E+01  2.5147E+03

           1    1.98005E+01    -2.9876E-02 -6.8185E-04  1.3181E+00  1.3184E+00
ac ID =   33377                 2.0875E-01 -3.3936E+00  2.5357E-01  3.4095E+00
                               -9.3205E-02  2.5913E+01 -3.8024E+01  2.5147E+03

           1    1.99005E+01     9.0954E-04  1.3725E-02  1.3485E+00  1.3485E+00
ac ID =   33377                -6.9724E-02 -2.9121E+00  1.6445E-01  2.9176E+00
                               -9.0949E-02  2.6051E+01 -3.7945E+01  2.5147E+03

           1    2.00005E+01    -2.3589E-03 -1.1623E-03  1.3220E+00  1.3220E+00
ac ID =   33377                 2.9091E-01 -3.4808E+00 -3.0090E-01  3.5059E+00
                               -8.8755E-02  2.6190E+01 -3.7870E+01  2.5147E+03

           1    2.01005E+01    -3.5453E-02  2.8610E-03  1.3344E+00  1.3348E+00
ac ID =   33377                 1.7708E-01 -4.5348E+00 -3.6392E-01  4.5529E+00
                               -8.6604E-02  2.6330E+01 -3.7797E+01  2.5147E+03

           1    2.02005E+01     4.1858E-03  5.9862E-03  1.3378E+00  1.3378E+00
ac ID =   33377                 3.2932E-02 -4.1956E+00 -9.4025E-02  4.1968E+00
                               -8.4477E-02  2.6470E+01 -3.7728E+01  2.5147E+03

           1    2.03005E+01    -2.9460E-02  4.1018E-03  1.3118E+00  1.3121E+00
ac ID =   33377                 6.0627E-02 -4.9236E+00  2.9122E-01  4.9326E+00
                               -8.2382E-02  2.6612E+01 -3.7662E+01  2.5147E+03

           1    2.04005E+01    -2.0472E-02  5.0206E-03  1.2922E+00  1.2923E+00
ac ID =   33377                 1.7627E-01 -5.2788E+00  3.2379E-01  5.2917E+00
                               -8.0371E-02  2.6754E+01 -3.7599E+01  2.5147E+03

           1    2.05004E+01    -1.0416E-02  6.7583E-03  1.2889E+00  1.2890E+00
ac ID =   33377                 1.4038E-01 -5.0602E+00 -1.9359E-01  5.0658E+00
                               -7.8371E-02  2.6897E+01 -3.7539E+01  2.5147E+03

           1    2.06004E+01    -1.1507E-02 -5.4569E-03  1.2539E+00  1.2540E+00
ac ID =   33377                 3.8912E-01 -5.5048E+00 -3.1777E-01  5.5277E+00
                               -7.6366E-02  2.7041E+01 -3.7482E+01  2.5147E+03

           1    2.07004E+01    -3.2430E-02  9.1058E-03  1.2475E+00  1.2479E+00
ac ID =   33377                 2.1908E-01 -6.0673E+00  1.7540E-01  6.0738E+00
                               -7.4466E-02  2.7186E+01 -3.7427E+01  2.5147E+03

           1    2.08004E+01     2.8812E-03  3.4740E-03  1.2261E+00  1.2261E+00
ac ID =   33377                 4.2313E-01 -5.5096E+00  3.5174E-01  5.5370E+00
                               -7.2570E-02  2.7331E+01 -3.7376E+01  2.5147E+03

           1    2.09004E+01    -1.6196E-02 -6.2514E-03  1.2173E+00  1.2174E+00
ac ID =   33377                 5.8373E-01 -6.0320E+00 -4.9931E-02  6.0604E+00
                               -7.0639E-02  2.7478E+01 -3.7328E+01  2.5147E+03

           1    2.10004E+01    -1.9624E-02  4.0172E-03  1.1857E+00  1.1859E+00
ac ID =   33377                 2.7691E-01 -6.5260E+00 -3.7246E-01  6.5424E+00
                               -6.8819E-02  2.7625E+01 -3.7282E+01  2.5147E+03

           1    2.11004E+01    -3.6232E-03  1.0630E-02  1.1603E+00  1.1604E+00
ac ID =   33377                 1.6175E-01 -6.6850E+00 -1.8985E-01  6.6897E+00
                               -6.6980E-02  2.7773E+01 -3.7240E+01  2.5147E+03

           1    2.12004E+01    -5.9980E-03 -7.3422E-03  1.1337E+00  1.1338E+00
ac ID =   33377                 4.6899E-01 -6.9415E+00  1.1974E-01  6.9584E+00
                               -6.5146E-02  2.7922E+01 -3.7199E+01  2.5147E+03

           1    2.13004E+01    -1.6753E-02  5.3747E-03  1.0905E+00  1.0906E+00
ac ID =   33377                 3.2947E-01 -7.2233E+00  3.0759E-01  7.2373E+00
                               -6.3376E-02  2.8071E+01 -3.7162E+01  2.5147E+03

           1    2.14004E+01    -1.4367E-02  1.1107E-02  1.0524E+00  1.0525E+00
ac ID =   33377                -2.6965E-02 -7.3103E+00  7.0726E-02  7.3107E+00
                               -6.1631E-02  2.8221E+01 -3.7127E+01  2.5147E+03

           1    2.15003E+01     8.5368E-03 -7.2852E-03  1.0314E+00  1.0315E+00
ac ID =   33377                 6.7744E-01 -7.0471E+00 -1.3397E-01  7.0809E+00
                               -5.9880E-02  2.8372E+01 -3.7095E+01  2.5147E+03

           1    2.16003E+01    -2.3963E-02 -4.5464E-03  1.0093E+00  1.0096E+00
ac ID =   33377                 4.2499E-01 -8.0639E+00  9.1010E-02  8.0756E+00
                               -5.8142E-02  2.8523E+01 -3.7064E+01  2.5147E+03

           1    2.17003E+01    -8.6847E-03  1.2606E-02  9.7239E-01  9.7251E-01
ac ID =   33377                 3.7120E-01 -7.8054E+00 -1.5725E-01  7.8158E+00
                               -5.6478E-02  2.8675E+01 -3.7037E+01  2.5147E+03

           1    2.18003E+01    -5.4777E-03 -7.5709E-03  9.5660E-01  9.5665E-01
ac ID =   33377                 5.8777E-01 -8.2295E+00  7.7475E-02  8.2508E+00
                               -5.4744E-02  2.8827E+01 -3.7011E+01  2.5147E+03

           1    2.19003E+01    -2.4678E-03 -4.3050E-03  9.0844E-01  9.0846E-01
ac ID =   33377                 7.3347E-01 -8.2282E+00  3.2524E-02  8.2609E+00
                               -5.3093E-02  2.8981E+01 -3.6987E+01  2.5147E+03

           1    2.20003E+01     1.6736E-03  5.0312E-03  8.6370E-01  8.6371E-01
ac ID =   33377                 8.2777E-02 -8.1087E+00 -4.8956E-02  8.1093E+00
                               -5.1403E-02  2.9134E+01 -3.6966E+01  2.5147E+03

           1    2.21003E+01     2.1361E-02  1.0109E-02  8.4173E-01  8.4206E-01
ac ID =   33377                 2.4627E-01 -8.2499E+00 -7.6646E-02  8.2539E+00
                               -4.9753E-02  2.9288E+01 -3.6947E+01  2.5147E+03

           1    2.22003E+01     2.5896E-02 -1.3558E-02  7.9591E-01  7.9644E-01
ac ID =   33377                 7.5357E-01 -7.7745E+00 -4.9283E-02  7.8110E+00
                               -4.8116E-02  2.9443E+01 -3.6929E+01  2.5147E+03

           1    2.23003E+01     1.6642E-02  6.8469E-03  7.3640E-01  7.3662E-01
ac ID =   33377                 7.4150E-02 -8.1902E+00  2.7642E-01  8.1952E+00
                               -4.6470E-02  2.9598E+01 -3.6914E+01  2.5147E+03

           1    2.24003E+01     4.3923E-02  8.7836E-03  7.0130E-01  7.0273E-01
ac ID =   33377                 2.2735E-01 -7.7269E+00  2.9061E-01  7.7357E+00
                               -4.4888E-02  2.9753E+01 -3.6900E+01  2.5147E+03

           1    2.25002E+01     6.5017E-02 -1.3143E-03  6.5953E-01  6.6272E-01
ac ID =   33377                 5.3270E-01 -7.5385E+00  4.9168E-02  7.5575E+00
                               -4.3270E-02  2.9908E+01 -3.6888E+01  2.5147E+03

           1    2.26002E+01     4.9835E-02 -8.3302E-03  6.0260E-01  6.0471E-01
ac ID =   33377                 6.3401E-01 -7.6654E+00 -3.5907E-01  7.6999E+00
                               -4.1668E-02  3.0064E+01 -3.6877E+01  2.5147E+03

           1    2.27002E+01     5.3537E-02  7.6470E-03  5.6175E-01  5.6435E-01
ac ID =   33377                 1.5290E-01 -7.7839E+00 -2.1552E-01  7.7884E+00
                               -4.0085E-02  3.0220E+01 -3.6868E+01  2.5147E+03

           1    2.28002E+01     8.9931E-02  9.5410E-04  5.0508E-01  5.1302E-01
ac ID =   33377                 3.0297E-01 -7.3257E+00 -7.5101E-02  7.3324E+00
                               -3.8525E-02  3.0376E+01 -3.6860E+01  2.5147E+03

           1    2.29002E+01     7.2121E-02 -6.3551E-03  4.6129E-01  4.6694E-01
ac ID =   33377                 5.3003E-01 -7.5254E+00  3.9413E-02  7.5441E+00
                               -3.6956E-02  3.0532E+01 -3.6853E+01  2.5147E+03

           1    2.30002E+01     7.9489E-02  7.4348E-03  4.0304E-01  4.1087E-01
ac ID =   33377                 1.7195E-02 -7.6480E+00  9.9509E-02  7.6486E+00
                               -3.5374E-02  3.0688E+01 -3.6847E+01  2.5147E+03

           1    2.31002E+01     9.6087E-02  6.4383E-03  3.4449E-01  3.5770E-01
ac ID =   33377                -4.4606E-02 -7.3047E+00 -2.3066E-01  7.3085E+00
                               -3.3843E-02  3.0845E+01 -3.6843E+01  2.5147E+03

           1    2.32002E+01     9.1345E-02 -1.2074E-03  2.9622E-01  3.0999E-01
ac ID =   33377                 2.6808E-01 -7.9722E+00 -1.6866E-01  7.9785E+00
                               -3.2315E-02  3.1001E+01 -3.6839E+01  2.5147E+03

           1    2.33002E+01     7.9562E-02  2.3462E-03  2.4805E-01  2.6051E-01
ac ID =   33377                 2.5832E-01 -8.6058E+00  2.0306E-01  8.6121E+00
                               -3.0763E-02  3.1157E+01 -3.6835E+01  2.5147E+03

           1    2.34002E+01     1.0307E-01  1.5139E-02  1.8651E-01  2.1363E-01
ac ID =   33377                -2.3540E-01 -8.5466E+00  3.2568E-02  8.5499E+00
                               -2.9244E-02  3.1312E+01 -3.6833E+01  2.5147E+03

           1    2.35001E+01     9.8500E-02 -1.5735E-03  1.4233E-01  1.7309E-01
ac ID =   33377                 4.0219E-01 -9.3201E+00 -2.1151E-01  9.3312E+00
                               -2.7759E-02  3.1468E+01 -3.6831E+01  2.5147E+03

           1    2.36001E+01     8.9458E-02 -5.7381E-03  1.0189E-01  1.3571E-01
ac ID =   33377                 3.5428E-01 -9.6440E+00 -1.4718E-01  9.6516E+00
                               -2.6228E-02  3.1623E+01 -3.6829E+01  2.5147E+03

           1    2.37001E+01     1.0608E-01  9.7412E-03  5.0760E-02  1.1801E-01
ac ID =   33377                -1.5059E-01 -9.9580E+00 -2.5783E-01  9.9624E+00
                               -2.4732E-02  3.1779E+01 -3.6827E+01  2.5147E+03

           1    2.38001E+01     9.9048E-02  9.9610E-03 -4.5143E-03  9.9650E-02
ac ID =   33377                -3.4868E-02 -1.0400E+01 -1.3394E-01  1.0401E+01
                               -2.3266E-02  3.1934E+01 -3.6826E+01  2.5147E+03

           1    2.39001E+01     9.6223E-02 -8.4395E-03 -4.0889E-02  1.0489E-01
ac ID =   33377                 3.8098E-01 -1.0936E+01 -4.3920E-02  1.0943E+01
                               -2.1752E-02  3.2089E+01 -3.6824E+01  2.5147E+03

           1    2.40001E+01     9.3097E-02  4.7809E-03 -1.0125E-01  1.3763E-01
ac ID =   33377                -8.6337E-02 -1.1194E+01 -8.8334E-02  1.1195E+01
                               -2.0275E-02  3.2243E+01 -3.6822E+01  2.5147E+03

           1    2.41001E+01     1.0071E-01  1.9132E-02 -1.3637E-01  1.7060E-01
ac ID =   33377                -3.7249E-01 -1.1763E+01  1.1367E-02  1.1769E+01
                               -1.8839E-02  3.2397E+01 -3.6820E+01  2.5147E+03

           1    2.42001E+01     1.1102E-01 -1.1846E-03 -1.8639E-01  2.1695E-01
ac ID =   33377                 8.8887E-02 -1.1886E+01 -1.0706E-01  1.1887E+01
                               -1.7357E-02  3.2551E+01 -3.6818E+01  2.5147E+03

           1    2.43001E+01     9.9554E-02 -3.5916E-03 -2.4526E-01  2.6472E-01
ac ID =   33377                 2.2094E-01 -1.2387E+01 -2.9200E-01  1.2393E+01
                               -1.5883E-02  3.2705E+01 -3.6815E+01  2.5147E+03

           1    2.44001E+01     1.1527E-01  1.7917E-02 -2.8399E-01  3.0702E-01
ac ID =   33377                -3.4350E-01 -1.2412E+01 -9.0910E-02  1.2418E+01
                               -1.4419E-02  3.2858E+01 -3.6811E+01  2.5147E+03

           1    2.45005E+01     1.1169E-01  1.3375E-03 -3.2190E-01  3.4073E-01
ac ID =   33377                 1.7038E-01 -1.2595E+01 -4.0839E-02  1.2596E+01
                               -1.2951E-02  3.3012E+01 -3.6807E+01  2.5147E+03

           1    2.46005E+01     1.3238E-01 -5.2327E-03 -3.7036E-01  3.9335E-01
ac ID =   33377                 2.6638E-01 -1.2456E+01 -5.4756E-02  1.2459E+01
                               -1.1432E-02  3.3164E+01 -3.6801E+01  2.5147E+03

           1    2.47005E+01     1.2625E-01  3.3764E-03 -4.1111E-01  4.3007E-01
ac ID =   33377                 1.9377E-02 -1.2542E+01 -1.4734E-01  1.2542E+01
                               -9.9631E-03  3.3316E+01 -3.6795E+01  2.5147E+03

           1    2.48005E+01     1.3472E-01  1.6762E-02 -4.5023E-01  4.7026E-01
ac ID =   33377                -1.3820E-01 -1.2283E+01 -3.0991E-01  1.2288E+01
                               -8.4996E-03  3.3468E+01 -3.6788E+01  2.5147E+03

           1    2.49005E+01     1.4762E-01 -3.7299E-03 -4.8375E-01  5.0578E-01
ac ID =   33377                 9.0253E-02 -1.2167E+01 -8.3184E-02  1.2168E+01
                               -6.9864E-03  3.3619E+01 -3.6779E+01  2.5147E+03

