 LSTC 50th% Full_FE H-III Dummy (Beta Version, February 17, 2019)        
                    ls-dyna smp s R16 R16.0_619_d222963 date 03/18/2025

{BEGIN LEGEND}
 Entity #        Title
    22626                                                                                     
{END LEGEND}




 n o d a l   p r i n t   o u t   f o r   t i m e  s t e p       1                              ( at time 0.0000000E+00 )

 nodal point  x-disp     y-disp      z-disp      x-vel       y-vel       z-vel      x-accl      y-accl      z-accl      x-coor      y-coor      z-coor
    22626  0.00000E+00 0.00000E+00 0.00000E+00 0.00000E+00 0.00000E+00-3.12000E+00 0.00000E+00 0.00000E+00 0.00000E+00 4.79642E+01-2.20298E+01 7.33850E+00



 n o d a l   p r i n t   o u t   f o r   t i m e  s t e p       1                              ( at time 0.0000000E+00 )

 nodal point  x-rot      y-rot       z-rot       x-rot vel   y-rot vel   z-rot vel   x-rot acc   y-rot acc   z-rot acc
    22626  0.00000E+00 0.00000E+00 0.00000E+00 0.00000E+00 0.00000E+00 0.00000E+00 0.00000E+00 0.00000E+00 0.00000E+00



 n o d a l   p r i n t   o u t   f o r   t i m e  s t e p     201                              ( at time 9.9989993E-02 )

 nodal point  x-disp     y-disp      z-disp      x-vel       y-vel       z-vel      x-accl      y-accl      z-accl      x-coor      y-coor      z-coor
    22626  8.34381E-07-4.04520E-06-3.12016E-01 4.76718E-05-4.96496E-04-3.12074E+00 4.76766E-04-4.96546E-03-7.42748E-03 4.79642E+01-2.20298E+01 7.02648E+00



 n o d a l   p r i n t   o u t   f o r   t i m e  s t e p     201                              ( at time 9.9989993E-02 )

 nodal point  x-rot      y-rot       z-rot       x-rot vel   y-rot vel   z-rot vel   x-rot acc   y-rot acc   z-rot acc
    22626  9.60768E-09 3.04101E-08 5.27141E-08 1.30699E-06 2.72176E-06 5.21216E-06 1.30712E-05 2.72204E-05 5.21269E-05



 n o d a l   p r i n t   o u t   f o r   t i m e  s t e p     401                              ( at time 1.9997999E-01 )

 nodal point  x-disp     y-disp      z-disp      x-vel       y-vel       z-vel      x-accl      y-accl      z-accl      x-coor      y-coor      z-coor
    22626 -5.12801E-05-5.21552E-04-6.23853E-01-1.09679E-03-1.11140E-02-3.11558E+00-1.14457E-02-1.06186E-01 5.16204E-02 4.79641E+01-2.20303E+01 6.71465E+00



 n o d a l   p r i n t   o u t   f o r   t i m e  s t e p     401                              ( at time 1.9997999E-01 )

 nodal point  x-rot      y-rot       z-rot       x-rot vel   y-rot vel   z-rot vel   x-rot acc   y-rot acc   z-rot acc
    22626  4.60290E-07 1.32985E-06 2.50218E-06 2.64377E-06 1.90701E-05 3.49809E-05 1.33691E-05 1.63500E-04 2.97717E-04



 n o d a l   p r i n t   o u t   f o r   t i m e  s t e p     601                              ( at time 2.9996998E-01 )

 nodal point  x-disp     y-disp      z-disp      x-vel       y-vel       z-vel      x-accl      y-accl      z-accl      x-coor      y-coor      z-coor
    22626 -2.45697E-05-1.97633E-03-9.35238E-01 1.66171E-03-1.60429E-02-3.11415E+00 2.75878E-02-4.92938E-02 1.43304E-02 4.79642E+01-2.20318E+01 6.40326E+00



 n o d a l   p r i n t   o u t   f o r   t i m e  s t e p     601                              ( at time 2.9996998E-01 )

 nodal point  x-rot      y-rot       z-rot       x-rot vel   y-rot vel   z-rot vel   x-rot acc   y-rot acc   z-rot acc
    22626  6.75135E-07 2.41164E-06 4.82786E-06 8.22223E-06 5.37252E-06 1.46917E-05 5.57902E-05-1.36990E-04-2.02912E-04



 n o d a l   p r i n t   o u t   f o r   t i m e  s t e p     801                              ( at time 3.9995997E-01 )

 nodal point  x-disp     y-disp      z-disp      x-vel       y-vel       z-vel      x-accl      y-accl      z-accl      x-coor      y-coor      z-coor
    22626  5.94498E-05-3.57406E-03-1.24663E+00 1.94118E-04-1.73898E-02-3.11353E+00-1.46774E-02-1.34702E-02 6.16135E-03 4.79642E+01-2.20334E+01 6.09187E+00



 n o d a l   p r i n t   o u t   f o r   t i m e  s t e p     801                              ( at time 3.9995997E-01 )

 nodal point  x-rot      y-rot       z-rot       x-rot vel   y-rot vel   z-rot vel   x-rot acc   y-rot acc   z-rot acc
    22626  1.58183E-06 3.68122E-06 6.68077E-06 6.27725E-06 2.42658E-05 3.82298E-05-1.94517E-05 1.88952E-04 2.35405E-04



 n o d a l   p r i n t   o u t   f o r   t i m e  s t e p    1001                              ( at time 4.9994997E-01 )

 nodal point  x-disp     y-disp      z-disp      x-vel       y-vel       z-vel      x-accl      y-accl      z-accl      x-coor      y-coor      z-coor
    22626  7.27377E-05-5.63145E-03-1.55782E+00 8.89569E-04-2.38484E-02-3.11085E+00 6.95520E-03-6.45928E-02 2.67986E-02 4.79643E+01-2.20354E+01 5.78068E+00



 n o d a l   p r i n t   o u t   f o r   t i m e  s t e p    1001                              ( at time 4.9994997E-01 )

 nodal point  x-rot      y-rot       z-rot       x-rot vel   y-rot vel   z-rot vel   x-rot acc   y-rot acc   z-rot acc
    22626  1.49419E-06 6.64840E-06 1.18374E-05-4.84295E-06 4.37452E-05 7.20335E-05-1.11213E-04 1.94813E-04 3.38071E-04



 n o d a l   p r i n t   o u t   f o r   t i m e  s t e p    1201                              ( at time 5.9993996E-01 )

 nodal point  x-disp     y-disp      z-disp      x-vel       y-vel       z-vel      x-accl      y-accl      z-accl      x-coor      y-coor      z-coor
    22626  5.29493E-05-8.13741E-03-1.86888E+00-5.64975E-04-2.61269E-02-3.11084E+00-1.45469E-02-2.27871E-02 1.52603E-04 4.79642E+01-2.20379E+01 5.46962E+00



 n o d a l   p r i n t   o u t   f o r   t i m e  s t e p    1201                              ( at time 5.9993996E-01 )

 nodal point  x-rot      y-rot       z-rot       x-rot vel   y-rot vel   z-rot vel   x-rot acc   y-rot acc   z-rot acc
    22626  1.26554E-06 9.87444E-06 1.77367E-05-2.15011E-06 2.63059E-05 5.29203E-05 2.69311E-05-1.74410E-04-1.91152E-04



 n o d a l   p r i n t   o u t   f o r   t i m e  s t e p    1401                              ( at time 6.9992995E-01 )

 nodal point  x-disp     y-disp      z-disp      x-vel       y-vel       z-vel      x-accl      y-accl      z-accl      x-coor      y-coor      z-coor
    22626  1.97079E-05-1.10206E-02-2.17976E+00 7.16040E-04-3.22423E-02-3.10769E+00 1.28114E-02-6.11604E-02 3.14267E-02 4.79642E+01-2.20408E+01 5.15874E+00



 n o d a l   p r i n t   o u t   f o r   t i m e  s t e p    1401                              ( at time 6.9992995E-01 )

 nodal point  x-rot      y-rot       z-rot       x-rot vel   y-rot vel   z-rot vel   x-rot acc   y-rot acc   z-rot acc
    22626  1.10229E-06 1.30695E-05 2.27047E-05-2.44694E-06 3.79262E-05 5.93975E-05-2.96861E-06 1.16214E-04 6.47786E-05



 n o d a l   p r i n t   o u t   f o r   t i m e  s t e p    1601                              ( at time 7.9991994E-01 )

 nodal point  x-disp     y-disp      z-disp      x-vel       y-vel       z-vel      x-accl      y-accl      z-accl      x-coor      y-coor      z-coor
    22626  1.33062E-04-1.45710E-02-2.49038E+00 1.37208E-03-3.68135E-02-3.10600E+00 6.56101E-03-4.57157E-02 1.69127E-02 4.79643E+01-2.20444E+01 4.84812E+00



 n o d a l   p r i n t   o u t   f o r   t i m e  s t e p    1601                              ( at time 7.9991994E-01 )

 nodal point  x-rot      y-rot       z-rot       x-rot vel   y-rot vel   z-rot vel   x-rot acc   y-rot acc   z-rot acc
    22626  1.00715E-06 1.72053E-05 2.96647E-05 3.01533E-06 4.87352E-05 7.64163E-05 5.46282E-05 1.08101E-04 1.70205E-04



 n o d a l   p r i n t   o u t   f o r   t i m e  s t e p    1801                              ( at time 8.9990994E-01 )

 nodal point  x-disp     y-disp      z-disp      x-vel       y-vel       z-vel      x-accl      y-accl      z-accl      x-coor      y-coor      z-coor
    22626  2.07420E-04-1.82140E-02-2.80104E+00-5.09852E-04-3.64308E-02-3.10742E+00-1.88212E-02 3.82697E-03-1.41444E-02 4.79644E+01-2.20480E+01 4.53746E+00



 n o d a l   p r i n t   o u t   f o r   t i m e  s t e p    1801                              ( at time 8.9990994E-01 )

 nodal point  x-rot      y-rot       z-rot       x-rot vel   y-rot vel   z-rot vel   x-rot acc   y-rot acc   z-rot acc
    22626  1.02454E-06 2.13199E-05 3.66575E-05-1.88517E-06 3.79823E-05 6.83415E-05-4.90099E-05-1.07540E-04-8.07558E-05



 n o d a l   p r i n t   o u t   f o r   t i m e  s t e p    2001                              ( at time 9.9989993E-01 )

 nodal point  x-disp     y-disp      z-disp      x-vel       y-vel       z-vel      x-accl      y-accl      z-accl      x-coor      y-coor      z-coor
    22626  1.09826E-04-2.19276E-02-3.11175E+00-8.21156E-04-3.83974E-02-3.10755E+00-3.11335E-03-1.96681E-02-1.34243E-03 4.79643E+01-2.20517E+01 4.22675E+00



 n o d a l   p r i n t   o u t   f o r   t i m e  s t e p    2001                              ( at time 9.9989993E-01 )

 nodal point  x-rot      y-rot       z-rot       x-rot vel   y-rot vel   z-rot vel   x-rot acc   y-rot acc   z-rot acc
    22626  8.56489E-07 2.55329E-05 4.38510E-05-9.07191E-07 4.62490E-05 8.59525E-05 9.78075E-06 8.26755E-05 1.76128E-04



 n o d a l   p r i n t   o u t   f o r   t i m e  s t e p    2201                              ( at time 1.0998899E+00 )

 nodal point  x-disp     y-disp      z-disp      x-vel       y-vel       z-vel      x-accl      y-accl      z-accl      x-coor      y-coor      z-coor
    22626  9.18955E-05-2.58760E-02-3.42246E+00-2.18221E-04-4.02554E-02-3.10712E+00 6.02996E-03-1.85814E-02 4.29673E-03 4.79643E+01-2.20557E+01 3.91605E+00



 n o d a l   p r i n t   o u t   f o r   t i m e  s t e p    2201                              ( at time 1.0998899E+00 )

 nodal point  x-rot      y-rot       z-rot       x-rot vel   y-rot vel   z-rot vel   x-rot acc   y-rot acc   z-rot acc
    22626  9.33271E-07 3.03109E-05 5.24805E-05 5.32254E-06 4.64730E-05 7.51923E-05 6.23036E-05 2.24053E-06-1.07612E-04



 n o d a l   p r i n t   o u t   f o r   t i m e  s t e p    2401                              ( at time 1.1998799E+00 )

 nodal point  x-disp     y-disp      z-disp      x-vel       y-vel       z-vel      x-accl      y-accl      z-accl      x-coor      y-coor      z-coor
    22626  1.34317E-04-2.98901E-02-3.73320E+00 7.36329E-04-3.98000E-02-3.10850E+00 9.54645E-03 4.55377E-03-1.37462E-02 4.79643E+01-2.20597E+01 3.60531E+00



 n o d a l   p r i n t   o u t   f o r   t i m e  s t e p    2401                              ( at time 1.1998799E+00 )

 nodal point  x-rot      y-rot       z-rot       x-rot vel   y-rot vel   z-rot vel   x-rot acc   y-rot acc   z-rot acc
    22626  1.33728E-06 3.44645E-05 5.93288E-05 5.09701E-06 3.99420E-05 6.55121E-05-2.25548E-06-6.53171E-05-9.68119E-05



 n o d a l   p r i n t   o u t   f o r   t i m e  s t e p    2601                              ( at time 1.2998699E+00 )

 nodal point  x-disp     y-disp      z-disp      x-vel       y-vel       z-vel      x-accl      y-accl      z-accl      x-coor      y-coor      z-coor
    22626  1.46183E-04-3.37303E-02-4.04413E+00-4.21563E-04-3.65917E-02-3.11133E+00-1.15801E-02 3.20867E-02-2.82840E-02 4.79643E+01-2.20635E+01 3.29437E+00



 n o d a l   p r i n t   o u t   f o r   t i m e  s t e p    2601                              ( at time 1.2998699E+00 )

 nodal point  x-rot      y-rot       z-rot       x-rot vel   y-rot vel   z-rot vel   x-rot acc   y-rot acc   z-rot acc
    22626  1.63936E-06 3.85419E-05 6.61326E-05-2.51393E-06 4.54297E-05 7.99394E-05-7.61171E-05 5.48827E-05 1.44287E-04



 n o d a l   p r i n t   o u t   f o r   t i m e  s t e p    2801                              ( at time 1.3998599E+00 )

 nodal point  x-disp     y-disp      z-disp      x-vel       y-vel       z-vel      x-accl      y-accl      z-accl      x-coor      y-coor      z-coor
    22626  3.22098E-05-3.71240E-02-4.35543E+00-1.30710E-03-3.14360E-02-3.11511E+00-8.85626E-03 5.15624E-02-3.78265E-02 4.79642E+01-2.20669E+01 2.98307E+00



 n o d a l   p r i n t   o u t   f o r   t i m e  s t e p    2801                              ( at time 1.3998599E+00 )

 nodal point  x-rot      y-rot       z-rot       x-rot vel   y-rot vel   z-rot vel   x-rot acc   y-rot acc   z-rot acc
    22626  1.20473E-06 4.29465E-05 7.39877E-05-4.58467E-06 4.45791E-05 7.35035E-05-2.07095E-05-8.50717E-06-6.43654E-05



 n o d a l   p r i n t   o u t   f o r   t i m e  s t e p    3001                              ( at time 1.4998499E+00 )

 nodal point  x-disp     y-disp      z-disp      x-vel       y-vel       z-vel      x-accl      y-accl      z-accl      x-coor      y-coor      z-coor
    22626 -7.75814E-05-4.01686E-02-4.66702E+00-4.95406E-04-2.97672E-02-3.11713E+00 8.11775E-03 1.66890E-02-2.02199E-02 4.79641E+01-2.20700E+01 2.67148E+00



 n o d a l   p r i n t   o u t   f o r   t i m e  s t e p    3001                              ( at time 1.4998499E+00 )

 nodal point  x-rot      y-rot       z-rot       x-rot vel   y-rot vel   z-rot vel   x-rot acc   y-rot acc   z-rot acc
    22626  8.27760E-07 4.68497E-05 8.05191E-05-1.63244E-06 3.20449E-05 5.71502E-05 2.95253E-05-1.25354E-04-1.63549E-04



 n o d a l   p r i n t   o u t   f o r   t i m e  s t e p    3201                              ( at time 1.5998399E+00 )

 nodal point  x-disp     y-disp      z-disp      x-vel       y-vel       z-vel      x-accl      y-accl      z-accl      x-coor      y-coor      z-coor
    22626 -1.24388E-04-4.30592E-02-4.97879E+00-6.92734E-04-2.75070E-02-3.11940E+00-1.97348E-03 2.26045E-02-2.27212E-02 4.79641E+01-2.20728E+01 2.35971E+00



 n o d a l   p r i n t   o u t   f o r   t i m e  s t e p    3201                              ( at time 1.5998399E+00 )

 nodal point  x-rot      y-rot       z-rot       x-rot vel   y-rot vel   z-rot vel   x-rot acc   y-rot acc   z-rot acc
    22626  5.15580E-07 4.99088E-05 8.53934E-05-1.55042E-06 3.26508E-05 4.79816E-05 8.20268E-07 6.05904E-06-9.16950E-05



 n o d a l   p r i n t   o u t   f o r   t i m e  s t e p    3401                              ( at time 1.6998299E+00 )

 nodal point  x-disp     y-disp      z-disp      x-vel       y-vel       z-vel      x-accl      y-accl      z-accl      x-coor      y-coor      z-coor
    22626 -2.11093E-04-4.55734E-02-5.29089E+00-1.12550E-03-2.24381E-02-3.12325E+00-4.32807E-03 5.06943E-02-3.84989E-02 4.79640E+01-2.20754E+01 2.04762E+00



 n o d a l   p r i n t   o u t   f o r   t i m e  s t e p    3401                              ( at time 1.6998299E+00 )

 nodal point  x-rot      y-rot       z-rot       x-rot vel   y-rot vel   z-rot vel   x-rot acc   y-rot acc   z-rot acc
    22626  3.02113E-07 5.29912E-05 9.04281E-05-3.71788E-06 2.99009E-05 4.78539E-05-2.16767E-05-2.75011E-05-1.27746E-06



 n o d a l   p r i n t   o u t   f o r   t i m e  s t e p    3601                              ( at time 1.7998199E+00 )

 nodal point  x-disp     y-disp      z-disp      x-vel       y-vel       z-vel      x-accl      y-accl      z-accl      x-coor      y-coor      z-coor
    22626 -3.12664E-04-4.75641E-02-5.60339E+00-1.33073E-03-1.77203E-02-3.12732E+00-2.05253E-03 4.71830E-02-4.06521E-02 4.79639E+01-2.20774E+01 1.73511E+00



 n o d a l   p r i n t   o u t   f o r   t i m e  s t e p    3601                              ( at time 1.7998199E+00 )

 nodal point  x-rot      y-rot       z-rot       x-rot vel   y-rot vel   z-rot vel   x-rot acc   y-rot acc   z-rot acc
    22626  1.55276E-07 5.57795E-05 9.51874E-05-4.60565E-07 2.14738E-05 4.20535E-05 3.25764E-05-8.42798E-05-5.80094E-05



 n o d a l   p r i n t   o u t   f o r   t i m e  s t e p    3801                              ( at time 1.8998099E+00 )

 nodal point  x-disp     y-disp      z-disp      x-vel       y-vel       z-vel      x-accl      y-accl      z-accl      x-coor      y-coor      z-coor
    22626 -5.00231E-04-4.92019E-02-5.91621E+00-2.16616E-03-1.51682E-02-3.12982E+00-8.35512E-03 2.55229E-02-2.50722E-02 4.79637E+01-2.20790E+01 1.42229E+00



 n o d a l   p r i n t   o u t   f o r   t i m e  s t e p    3801                              ( at time 1.8998099E+00 )

 nodal point  x-rot      y-rot       z-rot       x-rot vel   y-rot vel   z-rot vel   x-rot acc   y-rot acc   z-rot acc
    22626 -8.93050E-08 5.76776E-05 9.86026E-05 1.58929E-06 1.55400E-05 2.76355E-05 2.05006E-05-5.93441E-05-1.44195E-04



 n o d a l   p r i n t   o u t   f o r   t i m e  s t e p    4001                              ( at time 1.9997999E+00 )

 nodal point  x-disp     y-disp      z-disp      x-vel       y-vel       z-vel      x-accl      y-accl      z-accl      x-coor      y-coor      z-coor
    22626 -6.73637E-04-5.05921E-02-6.22929E+00-1.64922E-03-1.28102E-02-3.13210E+00 5.16991E-03 2.35824E-02-2.27951E-02 4.79635E+01-2.20804E+01 1.10921E+00



 n o d a l   p r i n t   o u t   f o r   t i m e  s t e p    4001                              ( at time 1.9997999E+00 )

 nodal point  x-rot      y-rot       z-rot       x-rot vel   y-rot vel   z-rot vel   x-rot acc   y-rot acc   z-rot acc
    22626  1.16805E-07 5.90143E-05 1.00913E-04 3.40261E-06 1.33242E-05 2.02421E-05 1.81350E-05-2.21605E-05-7.39410E-05



 n o d a l   p r i n t   o u t   f o r   t i m e  s t e p    4201                              ( at time 2.0997899E+00 )

 nodal point  x-disp     y-disp      z-disp      x-vel       y-vel       z-vel      x-accl      y-accl      z-accl      x-coor      y-coor      z-coor
    22626 -8.42743E-04-5.16832E-02-6.54262E+00-1.86288E-03-9.14986E-03-3.13518E+00-2.13682E-03 3.66071E-02-3.07996E-02 4.79633E+01-2.20815E+01 7.95877E-01



 n o d a l   p r i n t   o u t   f o r   t i m e  s t e p    4201                              ( at time 2.0997899E+00 )

 nodal point  x-rot      y-rot       z-rot       x-rot vel   y-rot vel   z-rot vel   x-rot acc   y-rot acc   z-rot acc
    22626  4.02441E-07 5.96575E-05 1.02005E-04-1.31810E-06 3.29590E-06 1.46313E-06-4.72118E-05-1.00293E-04-1.87809E-04



 n o d a l   p r i n t   o u t   f o r   t i m e  s t e p    4401                              ( at time 2.1997798E+00 )

 nodal point  x-disp     y-disp      z-disp      x-vel       y-vel       z-vel      x-accl      y-accl      z-accl      x-coor      y-coor      z-coor
    22626 -1.08484E-03-5.23699E-02-6.85629E+00-2.77835E-03-4.41278E-03-3.13895E+00-9.15562E-03 4.73756E-02-3.76906E-02 4.79631E+01-2.20822E+01 4.82212E-01



 n o d a l   p r i n t   o u t   f o r   t i m e  s t e p    4401                              ( at time 2.1997798E+00 )

 nodal point  x-rot      y-rot       z-rot       x-rot vel   y-rot vel   z-rot vel   x-rot acc   y-rot acc   z-rot acc
    22626  2.24948E-07 5.96486E-05 1.01934E-04-1.23764E-06-2.08159E-06-3.08646E-06 8.04692E-07-5.37804E-05-4.55006E-05



 n o d a l   p r i n t   o u t   f o r   t i m e  s t e p    4601                              ( at time 2.2997698E+00 )

 nodal point  x-disp     y-disp      z-disp      x-vel       y-vel       z-vel      x-accl      y-accl      z-accl      x-coor      y-coor      z-coor
    22626 -1.39370E-03-5.25650E-02-7.17034E+00-3.51873E-03-8.67596E-05-3.14228E+00-7.40452E-03 4.32645E-02-3.32889E-02 4.79628E+01-2.20824E+01 1.68162E-01



 n o d a l   p r i n t   o u t   f o r   t i m e  s t e p    4601                              ( at time 2.2997698E+00 )

 nodal point  x-rot      y-rot       z-rot       x-rot vel   y-rot vel   z-rot vel   x-rot acc   y-rot acc   z-rot acc
    22626 -1.62947E-07 5.93370E-05 1.01563E-04-4.52919E-06-9.75909E-06-1.29106E-05-3.29187E-05-7.67825E-05-9.82508E-05



 n o d a l   p r i n t   o u t   f o r   t i m e  s t e p    4801                              ( at time 2.3997598E+00 )

 nodal point  x-disp     y-disp      z-disp      x-vel       y-vel       z-vel      x-accl      y-accl      z-accl      x-coor      y-coor      z-coor
    22626 -1.76249E-03-5.24780E-02-7.48464E+00-3.60961E-03 1.86893E-03-3.14440E+00-9.08897E-04 1.95589E-02-2.11952E-02 4.79624E+01-2.20823E+01-1.46135E-01



 n o d a l   p r i n t   o u t   f o r   t i m e  s t e p    4801                              ( at time 2.3997598E+00 )

 nodal point  x-rot      y-rot       z-rot       x-rot vel   y-rot vel   z-rot vel   x-rot acc   y-rot acc   z-rot acc
    22626 -7.10365E-07 5.80715E-05 9.90780E-05-6.05071E-06-1.62241E-05-3.38235E-05-1.52168E-05-6.46570E-05-2.09150E-04



 n o d a l   p r i n t   o u t   f o r   t i m e  s t e p    5001                              ( at time 2.4997498E+00 )

 nodal point  x-disp     y-disp      z-disp      x-vel       y-vel       z-vel      x-accl      y-accl      z-accl      x-coor      y-coor      z-coor
    22626 -2.15607E-03-5.21703E-02-7.79916E+00-4.23593E-03 4.96637E-03-3.14711E+00-6.26386E-03 3.09774E-02-2.71371E-02 4.79620E+01-2.20820E+01-4.60662E-01



 n o d a l   p r i n t   o u t   f o r   t i m e  s t e p    5001                              ( at time 2.4997498E+00 )

 nodal point  x-rot      y-rot       z-rot       x-rot vel   y-rot vel   z-rot vel   x-rot acc   y-rot acc   z-rot acc
    22626 -1.15905E-06 5.58359E-05 9.51082E-05-4.02825E-06-2.63486E-05-4.86272E-05 2.02266E-05-1.01255E-04-1.48052E-04



 n o d a l   p r i n t   o u t   f o r   t i m e  s t e p    5201                              ( at time 2.5997398E+00 )

 nodal point  x-disp     y-disp      z-disp      x-vel       y-vel       z-vel      x-accl      y-accl      z-accl      x-coor      y-coor      z-coor
    22626 -2.63041E-03-5.14559E-02-8.11403E+00-5.25662E-03 9.27200E-03-3.15070E+00-1.02079E-02 4.30607E-02-3.58904E-02 4.79615E+01-2.20812E+01-7.75527E-01



 n o d a l   p r i n t   o u t   f o r   t i m e  s t e p    5201                              ( at time 2.5997398E+00 )

 nodal point  x-rot      y-rot       z-rot       x-rot vel   y-rot vel   z-rot vel   x-rot acc   y-rot acc   z-rot acc
    22626 -1.53048E-06 5.27339E-05 8.96717E-05-4.76884E-06-3.57772E-05-6.23989E-05-7.40664E-06-9.42952E-05-1.37731E-04



 n o d a l   p r i n t   o u t   f o r   t i m e  s t e p    5401                              ( at time 2.6997298E+00 )

 nodal point  x-disp     y-disp      z-disp      x-vel       y-vel       z-vel      x-accl      y-accl      z-accl      x-coor      y-coor      z-coor
    22626 -3.20009E-03-5.03211E-02-8.42925E+00-6.42294E-03 1.29804E-02-3.15422E+00-1.16643E-02 3.70880E-02-3.51917E-02 4.79610E+01-2.20801E+01-1.09075E+00



 n o d a l   p r i n t   o u t   f o r   t i m e  s t e p    5401                              ( at time 2.6997298E+00 )

 nodal point  x-rot      y-rot       z-rot       x-rot vel   y-rot vel   z-rot vel   x-rot acc   y-rot acc   z-rot acc
    22626 -1.82581E-06 4.89846E-05 8.31710E-05-1.73390E-06-4.13870E-05-6.68975E-05 3.03524E-05-5.61040E-05-4.49906E-05



 n o d a l   p r i n t   o u t   f o r   t i m e  s t e p    5601                              ( at time 2.7997198E+00 )

 nodal point  x-disp     y-disp      z-disp      x-vel       y-vel       z-vel      x-accl      y-accl      z-accl      x-coor      y-coor      z-coor
    22626 -3.91386E-03-4.88963E-02-8.74475E+00-7.68361E-03 1.51496E-02-3.15635E+00-1.26079E-02 2.16942E-02-2.13120E-02 4.79603E+01-2.20787E+01-1.40625E+00



 n o d a l   p r i n t   o u t   f o r   t i m e  s t e p    5601                              ( at time 2.7997198E+00 )

 nodal point  x-rot      y-rot       z-rot       x-rot vel   y-rot vel   z-rot vel   x-rot acc   y-rot acc   z-rot acc
    22626 -1.95816E-06 4.40922E-05 7.50665E-05 2.88477E-07-5.73983E-05-9.85627E-05 2.02258E-05-1.60129E-04-3.16684E-04



 n o d a l   p r i n t   o u t   f o r   t i m e  s t e p    5801                              ( at time 2.8997098E+00 )

 nodal point  x-disp     y-disp      z-disp      x-vel       y-vel       z-vel      x-accl      y-accl      z-accl      x-coor      y-coor      z-coor
    22626 -4.68543E-03-4.73277E-02-9.06045E+00-7.82407E-03 1.61411E-02-3.15804E+00-1.40475E-03 9.91592E-03-1.68889E-02 4.79595E+01-2.20771E+01-1.72195E+00



 n o d a l   p r i n t   o u t   f o r   t i m e  s t e p    5801                              ( at time 2.8997098E+00 )

 nodal point  x-rot      y-rot       z-rot       x-rot vel   y-rot vel   z-rot vel   x-rot acc   y-rot acc   z-rot acc
    22626 -1.75978E-06 3.76552E-05 6.41613E-05 2.40452E-06-6.65332E-05-1.15254E-04 2.11626E-05-9.13581E-05-1.66928E-04



 n o d a l   p r i n t   o u t   f o r   t i m e  s t e p    6001                              ( at time 2.9996998E+00 )

 nodal point  x-disp     y-disp      z-disp      x-vel       y-vel       z-vel      x-accl      y-accl      z-accl      x-coor      y-coor      z-coor
    22626 -5.50581E-03-4.55958E-02-9.37632E+00-8.83116E-03 1.86460E-02-3.16041E+00-1.00719E-02 2.50509E-02-2.37631E-02 4.79587E+01-2.20754E+01-2.03782E+00



 n o d a l   p r i n t   o u t   f o r   t i m e  s t e p    6001                              ( at time 2.9996998E+00 )

 nodal point  x-rot      y-rot       z-rot       x-rot vel   y-rot vel   z-rot vel   x-rot acc   y-rot acc   z-rot acc
    22626 -1.52823E-06 3.07945E-05 5.26001E-05 5.75307E-07-7.08059E-05-1.20821E-04-1.82940E-05-4.27307E-05-5.56727E-05



 n o d a l   p r i n t   o u t   f o r   t i m e  s t e p    6201                              ( at time 3.0996898E+00 )

 nodal point  x-disp     y-disp      z-disp      x-vel       y-vel       z-vel      x-accl      y-accl      z-accl      x-coor      y-coor      z-coor
    22626 -6.47107E-03-4.36145E-02-9.69245E+00-1.04139E-02 2.05627E-02-3.16241E+00-1.58290E-02 1.91697E-02-1.99171E-02 4.79577E+01-2.20734E+01-2.35395E+00



 n o d a l   p r i n t   o u t   f o r   t i m e  s t e p    6201                              ( at time 3.0996898E+00 )

 nodal point  x-rot      y-rot       z-rot       x-rot vel   y-rot vel   z-rot vel   x-rot acc   y-rot acc   z-rot acc
    22626 -1.57436E-06 2.34375E-05 3.99714E-05-1.91556E-06-7.58741E-05-1.33443E-04-2.49112E-05-5.06876E-05-1.26234E-04



 n o d a l   p r i n t   o u t   f o r   t i m e  s t e p    6401                              ( at time 3.1996798E+00 )

 nodal point  x-disp     y-disp      z-disp      x-vel       y-vel       z-vel      x-accl      y-accl      z-accl      x-coor      y-coor      z-coor
    22626 -7.54209E-03-4.15838E-02-1.00087E+01-1.09337E-02 1.97612E-02-3.16298E+00-5.19808E-03-8.01663E-03-5.70592E-03 4.79566E+01-2.20714E+01-2.67020E+00



 n o d a l   p r i n t   o u t   f o r   t i m e  s t e p    6401                              ( at time 3.1996798E+00 )

 nodal point  x-rot      y-rot       z-rot       x-rot vel   y-rot vel   z-rot vel   x-rot acc   y-rot acc   z-rot acc
    22626 -1.70720E-06 1.53666E-05 2.63788E-05-1.57283E-06-8.51959E-05-1.43778E-04 3.42760E-06-9.32273E-05-1.03365E-04



 n o d a l   p r i n t   o u t   f o r   t i m e  s t e p    6601                              ( at time 3.2996698E+00 )

 nodal point  x-disp     y-disp      z-disp      x-vel       y-vel       z-vel      x-accl      y-accl      z-accl      x-coor      y-coor      z-coor
    22626 -8.64793E-03-3.97040E-02-1.03249E+01-1.11886E-02 1.78256E-02-3.16269E+00-2.55014E-03-1.93577E-02 2.83270E-03 4.79555E+01-2.20695E+01-2.98645E+00



 n o d a l   p r i n t   o u t   f o r   t i m e  s t e p    6601                              ( at time 3.2996698E+00 )

 nodal point  x-rot      y-rot       z-rot       x-rot vel   y-rot vel   z-rot vel   x-rot acc   y-rot acc   z-rot acc
    22626 -1.97426E-06 6.67519E-06 1.16216E-05-2.48147E-06-8.94829E-05-1.51497E-04-9.08728E-06-4.28741E-05-7.71948E-05



 n o d a l   p r i n t   o u t   f o r   t i m e  s t e p    6801                              ( at time 3.3996598E+00 )

 nodal point  x-disp     y-disp      z-disp      x-vel       y-vel       z-vel      x-accl      y-accl      z-accl      x-coor      y-coor      z-coor
    22626 -9.79847E-03-3.80125E-02-1.06412E+01-1.16929E-02 1.60405E-02-3.16262E+00-5.04286E-03-1.78524E-02 6.91482E-04 4.79544E+01-2.20678E+01-3.30268E+00



 n o d a l   p r i n t   o u t   f o r   t i m e  s t e p    6801                              ( at time 3.3996598E+00 )

 nodal point  x-rot      y-rot       z-rot       x-rot vel   y-rot vel   z-rot vel   x-rot acc   y-rot acc   z-rot acc
    22626 -2.02281E-06-2.21336E-06-3.67208E-06-2.58718E-06-8.80686E-05-1.53210E-04-1.05726E-06 1.41448E-05-1.71353E-05



 n o d a l   p r i n t   o u t   f o r   t i m e  s t e p    7001                              ( at time 3.4996498E+00 )

 nodal point  x-disp     y-disp      z-disp      x-vel       y-vel       z-vel      x-accl      y-accl      z-accl      x-coor      y-coor      z-coor
    22626 -1.09959E-02-3.64827E-02-1.09574E+01-1.23264E-02 1.44955E-02-3.16281E+00-6.33610E-03-1.54520E-02-1.87416E-03 4.79532E+01-2.20663E+01-3.61893E+00



 n o d a l   p r i n t   o u t   f o r   t i m e  s t e p    7001                              ( at time 3.4996498E+00 )

 nodal point  x-rot      y-rot       z-rot       x-rot vel   y-rot vel   z-rot vel   x-rot acc   y-rot acc   z-rot acc
    22626 -2.01496E-06-1.08716E-05-1.84954E-05 6.66666E-07-8.71216E-05-1.47373E-04 3.25418E-05 9.47105E-06 5.83809E-05



 n o d a l   p r i n t   o u t   f o r   t i m e  s t e p    7201                              ( at time 3.5996397E+00 )

 nodal point  x-disp     y-disp      z-disp      x-vel       y-vel       z-vel      x-accl      y-accl      z-accl      x-coor      y-coor      z-coor
    22626 -1.22502E-02-3.51397E-02-1.12737E+01-1.24113E-02 1.20920E-02-3.16261E+00-8.48595E-04-2.40369E-02 2.03392E-03 4.79519E+01-2.20649E+01-3.93517E+00



 n o d a l   p r i n t   o u t   f o r   t i m e  s t e p    7201                              ( at time 3.5996397E+00 )

 nodal point  x-rot      y-rot       z-rot       x-rot vel   y-rot vel   z-rot vel   x-rot acc   y-rot acc   z-rot acc
    22626 -2.02652E-06-1.94931E-05-3.29753E-05 2.10234E-06-8.48363E-05-1.38802E-04 1.43582E-05 2.28552E-05 8.57119E-05



 n o d a l   p r i n t   o u t   f o r   t i m e  s t e p    7401                              ( at time 3.6996297E+00 )

 nodal point  x-disp     y-disp      z-disp      x-vel       y-vel       z-vel      x-accl      y-accl      z-accl      x-coor      y-coor      z-coor
    22626 -1.34802E-02-3.40957E-02-1.15899E+01-1.21402E-02 8.71177E-03-3.16159E+00 2.71148E-03-3.38059E-02 1.01457E-02 4.79507E+01-2.20639E+01-4.25135E+00



 n o d a l   p r i n t   o u t   f o r   t i m e  s t e p    7401                              ( at time 3.6996297E+00 )

 nodal point  x-rot      y-rot       z-rot       x-rot vel   y-rot vel   z-rot vel   x-rot acc   y-rot acc   z-rot acc
    22626 -1.77097E-06-2.77775E-05-4.67670E-05 3.72885E-06-8.12732E-05-1.36472E-04 1.62667E-05 3.56340E-05 2.33097E-05



 n o d a l   p r i n t   o u t   f o r   t i m e  s t e p    7601                              ( at time 3.7996197E+00 )

 nodal point  x-disp     y-disp      z-disp      x-vel       y-vel       z-vel      x-accl      y-accl      z-accl      x-coor      y-coor      z-coor
    22626 -1.46648E-02-3.33632E-02-1.19059E+01-1.15886E-02 6.00702E-03-3.16088E+00 5.51635E-03-2.70502E-02 7.11275E-03 4.79495E+01-2.20632E+01-4.56744E+00



 n o d a l   p r i n t   o u t   f o r   t i m e  s t e p    7601                              ( at time 3.7996197E+00 )

 nodal point  x-rot      y-rot       z-rot       x-rot vel   y-rot vel   z-rot vel   x-rot acc   y-rot acc   z-rot acc
    22626 -1.30662E-06-3.55867E-05-6.00271E-05 5.23632E-06-7.23505E-05-1.21975E-04 1.50763E-05 8.92362E-05 1.44985E-04



 n o d a l   p r i n t   o u t   f o r   t i m e  s t e p    7801                              ( at time 3.8996097E+00 )

 nodal point  x-disp     y-disp      z-disp      x-vel       y-vel       z-vel      x-accl      y-accl      z-accl      x-coor      y-coor      z-coor
    22626 -1.57919E-02-3.28622E-02-1.22220E+01-1.09453E-02 4.22965E-03-3.16081E+00 6.43348E-03-1.77754E-02 6.84329E-04 4.79484E+01-2.20627E+01-4.88349E+00



 n o d a l   p r i n t   o u t   f o r   t i m e  s t e p    7801                              ( at time 3.8996097E+00 )

 nodal point  x-rot      y-rot       z-rot       x-rot vel   y-rot vel   z-rot vel   x-rot acc   y-rot acc   z-rot acc
    22626 -9.43549E-07-4.21864E-05-7.11473E-05 6.44366E-07-5.77828E-05-9.61484E-05-4.59241E-05 1.45692E-04 2.58288E-04



 n o d a l   p r i n t   o u t   f o r   t i m e  s t e p    8001                              ( at time 3.9995997E+00 )

 nodal point  x-disp     y-disp      z-disp      x-vel       y-vel       z-vel      x-accl      y-accl      z-accl      x-coor      y-coor      z-coor
    22626 -1.68597E-02-3.24914E-02-1.25381E+01-1.03875E-02 3.14030E-03-3.16114E+00 5.57873E-03-1.08947E-02-3.29051E-03 4.79473E+01-2.20623E+01-5.19956E+00



 n o d a l   p r i n t   o u t   f o r   t i m e  s t e p    8001                              ( at time 3.9995997E+00 )

 nodal point  x-rot      y-rot       z-rot       x-rot vel   y-rot vel   z-rot vel   x-rot acc   y-rot acc   z-rot acc
    22626 -8.14950E-07-4.74351E-05-7.98329E-05-6.84175E-08-4.66676E-05-7.97931E-05-7.12856E-06 1.11163E-04 1.63569E-04



 n o d a l   p r i n t   o u t   f o r   t i m e  s t e p    8201                              ( at time 4.0995897E+00 )

 nodal point  x-disp     y-disp      z-disp      x-vel       y-vel       z-vel      x-accl      y-accl      z-accl      x-coor      y-coor      z-coor
    22626 -1.78159E-02-3.22923E-02-1.28541E+01-8.59268E-03 6.36181E-04-3.16063E+00 1.79497E-02-2.50436E-02 5.15273E-03 4.79464E+01-2.20621E+01-5.51562E+00



 n o d a l   p r i n t   o u t   f o r   t i m e  s t e p    8201                              ( at time 4.0995897E+00 )

 nodal point  x-rot      y-rot       z-rot       x-rot vel   y-rot vel   z-rot vel   x-rot acc   y-rot acc   z-rot acc
    22626 -8.19545E-07-5.15586E-05-8.67965E-05-3.13423E-07-3.20235E-05-5.64105E-05-2.45030E-06 1.46456E-04 2.33850E-04



 n o d a l   p r i n t   o u t   f o r   t i m e  s t e p    8401                              ( at time 4.1995797E+00 )

 nodal point  x-disp     y-disp      z-disp      x-vel       y-vel       z-vel      x-accl      y-accl      z-accl      x-coor      y-coor      z-coor
    22626 -1.85972E-02-3.23545E-02-1.31701E+01-6.97056E-03-1.79204E-03-3.16005E+00 1.62228E-02-2.42846E-02 5.78700E-03 4.79456E+01-2.20621E+01-5.83162E+00



 n o d a l   p r i n t   o u t   f o r   t i m e  s t e p    8401                              ( at time 4.1995797E+00 )

 nodal point  x-rot      y-rot       z-rot       x-rot vel   y-rot vel   z-rot vel   x-rot acc   y-rot acc   z-rot acc
    22626 -8.04402E-07-5.39375E-05-9.07528E-05-1.72854E-07-1.40155E-05-2.28740E-05 1.40583E-06 1.80098E-04 3.35398E-04



 n o d a l   p r i n t   o u t   f o r   t i m e  s t e p    8601                              ( at time 4.2995697E+00 )

 nodal point  x-disp     y-disp      z-disp      x-vel       y-vel       z-vel      x-accl      y-accl      z-accl      x-coor      y-coor      z-coor
    22626 -1.92305E-02-3.26531E-02-1.34861E+01-5.55823E-03-3.88386E-03-3.15987E+00 1.41248E-02-2.09203E-02 1.77401E-03 4.79450E+01-2.20624E+01-6.14757E+00



 n o d a l   p r i n t   o u t   f o r   t i m e  s t e p    8601                              ( at time 4.2995697E+00 )

 nodal point  x-rot      y-rot       z-rot       x-rot vel   y-rot vel   z-rot vel   x-rot acc   y-rot acc   z-rot acc
    22626 -8.26493E-07-5.43735E-05-9.16046E-05-4.01860E-07 2.84300E-06 4.81038E-06-2.29029E-06 1.68602E-04 2.76872E-04



 n o d a l   p r i n t   o u t   f o r   t i m e  s t e p    8801                              ( at time 4.3995597E+00 )

 nodal point  x-disp     y-disp      z-disp      x-vel       y-vel       z-vel      x-accl      y-accl      z-accl      x-coor      y-coor      z-coor
    22626 -1.96965E-02-3.30822E-02-1.38021E+01-3.81154E-03-4.73321E-03-3.16048E+00 1.74686E-02-8.49434E-03-6.03975E-03 4.79445E+01-2.20629E+01-6.46355E+00



 n o d a l   p r i n t   o u t   f o r   t i m e  s t e p    8801                              ( at time 4.3995597E+00 )

 nodal point  x-rot      y-rot       z-rot       x-rot vel   y-rot vel   z-rot vel   x-rot acc   y-rot acc   z-rot acc
    22626 -7.99462E-07-5.30933E-05-8.92774E-05 7.81343E-07 2.22550E-05 4.00518E-05 1.18332E-05 1.94140E-04 3.52450E-04



 n o d a l   p r i n t   o u t   f o r   t i m e  s t e p    9001                              ( at time 4.4995497E+00 )

 nodal point  x-disp     y-disp      z-disp      x-vel       y-vel       z-vel      x-accl      y-accl      z-accl      x-coor      y-coor      z-coor
    22626 -1.99940E-02-3.36516E-02-1.41181E+01-2.05637E-03-6.99818E-03-3.16009E+00 1.75533E-02-2.26519E-02 3.84368E-03 4.79442E+01-2.20634E+01-6.77956E+00



 n o d a l   p r i n t   o u t   f o r   t i m e  s t e p    9001                              ( at time 4.4995497E+00 )

 nodal point  x-rot      y-rot       z-rot       x-rot vel   y-rot vel   z-rot vel   x-rot acc   y-rot acc   z-rot acc
    22626 -6.63450E-07-4.96275E-05-8.31712E-05 3.49956E-06 4.39737E-05 7.64343E-05 2.71847E-05 2.17208E-04 3.63860E-04



 n o d a l   p r i n t   o u t   f o r   t i m e  s t e p    9201                              ( at time 4.5995397E+00 )

 nodal point  x-disp     y-disp      z-disp      x-vel       y-vel       z-vel      x-accl      y-accl      z-accl      x-coor      y-coor      z-coor
    22626 -2.01050E-02-3.45055E-02-1.44340E+01-1.21629E-04-9.90083E-03-3.15951E+00 1.93494E-02-2.90294E-02 5.85615E-03 4.79441E+01-2.20643E+01-7.09550E+00



 n o d a l   p r i n t   o u t   f o r   t i m e  s t e p    9201                              ( at time 4.5995397E+00 )

 nodal point  x-rot      y-rot       z-rot       x-rot vel   y-rot vel   z-rot vel   x-rot acc   y-rot acc   z-rot acc
    22626 -3.58340E-07-4.44049E-05-7.40588E-05 4.23149E-06 5.98863E-05 1.02848E-04 7.32004E-06 1.59142E-04 2.64160E-04



 n o d a l   p r i n t   o u t   f o r   t i m e  s t e p    9401                              ( at time 4.6995297E+00 )

 nodal point  x-disp     y-disp      z-disp      x-vel       y-vel       z-vel      x-accl      y-accl      z-accl      x-coor      y-coor      z-coor
    22626 -2.00003E-02-3.55763E-02-1.47499E+01 2.12236E-03-1.15059E-02-3.15936E+00 2.24422E-02-1.60522E-02 1.49742E-03 4.79442E+01-2.20654E+01-7.41142E+00



 n o d a l   p r i n t   o u t   f o r   t i m e  s t e p    9401                              ( at time 4.6995297E+00 )

 nodal point  x-rot      y-rot       z-rot       x-rot vel   y-rot vel   z-rot vel   x-rot acc   y-rot acc   z-rot acc
    22626  1.91287E-08-3.72527E-05-6.16207E-05 2.79501E-06 8.47039E-05 1.45663E-04-1.43662E-05 2.48201E-04 4.28193E-04



 n o d a l   p r i n t   o u t   f o r   t i m e  s t e p    9601                              ( at time 4.7995197E+00 )

 nodal point  x-disp     y-disp      z-disp      x-vel       y-vel       z-vel      x-accl      y-accl      z-accl      x-coor      y-coor      z-coor
    22626 -1.96888E-02-3.67981E-02-1.50658E+01 3.99588E-03-1.27486E-02-3.15961E+00 1.87370E-02-1.24281E-02-2.58472E-03 4.79445E+01-2.20666E+01-7.72733E+00



 n o d a l   p r i n t   o u t   f o r   t i m e  s t e p    9601                              ( at time 4.7995197E+00 )

 nodal point  x-rot      y-rot       z-rot       x-rot vel   y-rot vel   z-rot vel   x-rot acc   y-rot acc   z-rot acc
    22626  3.19051E-07-2.75391E-05-4.49735E-05-2.45331E-07 1.09302E-04 1.87142E-04-3.04065E-05 2.46004E-04 4.14839E-04



 n o d a l   p r i n t   o u t   f o r   t i m e  s t e p    9801                              ( at time 4.8995097E+00 )

 nodal point  x-disp     y-disp      z-disp      x-vel       y-vel       z-vel      x-accl      y-accl      z-accl      x-coor      y-coor      z-coor
    22626 -1.91994E-02-3.81245E-02-1.53818E+01 5.78464E-03-1.38617E-02-3.15986E+00 1.78894E-02-1.11325E-02-2.45834E-03 4.79450E+01-2.20679E+01-8.04328E+00



 n o d a l   p r i n t   o u t   f o r   t i m e  s t e p    9801                              ( at time 4.8995097E+00 )

 nodal point  x-rot      y-rot       z-rot       x-rot vel   y-rot vel   z-rot vel   x-rot acc   y-rot acc   z-rot acc
    22626  3.47529E-07-1.56967E-05-2.46167E-05-1.04263E-06 1.26338E-04 2.16733E-04-7.97378E-06 1.70381E-04 2.95937E-04



 n o d a l   p r i n t   o u t   f o r   t i m e  s t e p   10001                              ( at time 4.9994997E+00 )

 nodal point  x-disp     y-disp      z-disp      x-vel       y-vel       z-vel      x-accl      y-accl      z-accl      x-coor      y-coor      z-coor
    22626 -1.84864E-02-3.96272E-02-1.56977E+01 8.30806E-03-1.61522E-02-3.15832E+00 2.52366E-02-2.29073E-02 1.53747E-02 4.79457E+01-2.20694E+01-8.35918E+00



 n o d a l   p r i n t   o u t   f o r   t i m e  s t e p   10001                              ( at time 4.9994997E+00 )

 nodal point  x-rot      y-rot       z-rot       x-rot vel   y-rot vel   z-rot vel   x-rot acc   y-rot acc   z-rot acc
    22626 -1.89690E-07-1.70752E-06-8.51348E-07-6.56557E-06 1.55584E-04 2.50954E-04-5.52347E-05 2.92491E-04 3.42239E-04



 n o d a l   p r i n t   o u t   f o r   t i m e  s t e p   10202                              ( at time 5.0999896E+00 )

 nodal point  x-disp     y-disp      z-disp      x-vel       y-vel       z-vel      x-accl      y-accl      z-accl      x-coor      y-coor      z-coor
    22626 -1.75525E-02-4.12846E-02-1.60149E+01 1.02249E-02-1.67593E-02-3.15565E+00 1.90755E-02-6.04097E-03 2.65775E-02 4.79466E+01-2.20711E+01-8.67643E+00



 n o d a l   p r i n t   o u t   f o r   t i m e  s t e p   10202                              ( at time 5.0999896E+00 )

 nodal point  x-rot      y-rot       z-rot       x-rot vel   y-rot vel   z-rot vel   x-rot acc   y-rot acc   z-rot acc
    22626 -3.82365E-08 1.63594E-05 2.59013E-05 8.71954E-06 2.10473E-04 2.80057E-04 1.52106E-04 5.46208E-04 2.89616E-04



 n o d a l   p r i n t   o u t   f o r   t i m e  s t e p   10402                              ( at time 5.1999796E+00 )

 nodal point  x-disp     y-disp      z-disp      x-vel       y-vel       z-vel      x-accl      y-accl      z-accl      x-coor      y-coor      z-coor
    22626 -1.64519E-02-4.29521E-02-1.63301E+01 1.19860E-02-1.63885E-02-3.14873E+00 1.76126E-02 3.70846E-03 6.92649E-02 4.79477E+01-2.20727E+01-8.99164E+00



 n o d a l   p r i n t   o u t   f o r   t i m e  s t e p   10402                              ( at time 5.1999796E+00 )

 nodal point  x-rot      y-rot       z-rot       x-rot vel   y-rot vel   z-rot vel   x-rot acc   y-rot acc   z-rot acc
    22626  1.14532E-06 4.21511E-05 5.55737E-05 1.69678E-05 3.02954E-04 3.02746E-04 8.24907E-05 9.24902E-04 2.26912E-04



 n o d a l   p r i n t   o u t   f o r   t i m e  s t e p   10602                              ( at time 5.2999696E+00 )

 nodal point  x-disp     y-disp      z-disp      x-vel       y-vel       z-vel      x-accl      y-accl      z-accl      x-coor      y-coor      z-coor
    22626 -1.51846E-02-4.44243E-02-1.66444E+01 1.33736E-02-1.31716E-02-3.13697E+00 1.38774E-02 3.21714E-02 1.17621E-01 4.79490E+01-2.20742E+01-9.30592E+00



 n o d a l   p r i n t   o u t   f o r   t i m e  s t e p   10602                              ( at time 5.2999696E+00 )

 nodal point  x-rot      y-rot       z-rot       x-rot vel   y-rot vel   z-rot vel   x-rot acc   y-rot acc   z-rot acc
    22626  6.67288E-06 7.89933E-05 8.53236E-05 9.59913E-05 4.34391E-04 2.90000E-04 7.90315E-04 1.31450E-03-1.27475E-04



 n o d a l   p r i n t   o u t   f o r   t i m e  s t e p   10802                              ( at time 5.3999596E+00 )

 nodal point  x-disp     y-disp      z-disp      x-vel       y-vel       z-vel      x-accl      y-accl      z-accl      x-coor      y-coor      z-coor
    22626 -1.37556E-02-4.56150E-02-1.69572E+01 1.55259E-02-1.02240E-02-3.11876E+00 2.15251E-02 2.94794E-02 1.82056E-01 4.79504E+01-2.20754E+01-9.61875E+00



 n o d a l   p r i n t   o u t   f o r   t i m e  s t e p   10802                              ( at time 5.3999596E+00 )

 nodal point  x-rot      y-rot       z-rot       x-rot vel   y-rot vel   z-rot vel   x-rot acc   y-rot acc   z-rot acc
    22626  1.90550E-05 1.31125E-04 1.14001E-04 1.58894E-04 6.14531E-04 2.69227E-04 6.29091E-04 1.80159E-03-2.07753E-04



 n o d a l   p r i n t   o u t   f o r   t i m e  s t e p   11002                              ( at time 5.4999496E+00 )

 nodal point  x-disp     y-disp      z-disp      x-vel       y-vel       z-vel      x-accl      y-accl      z-accl      x-coor      y-coor      z-coor
    22626 -1.20602E-02-4.64534E-02-1.72680E+01 1.83748E-02-5.98502E-03-3.09742E+00 2.84916E-02 4.23942E-02 2.13490E-01 4.79521E+01-2.20762E+01-9.92954E+00



 n o d a l   p r i n t   o u t   f o r   t i m e  s t e p   11002                              ( at time 5.4999496E+00 )

 nodal point  x-rot      y-rot       z-rot       x-rot vel   y-rot vel   z-rot vel   x-rot acc   y-rot acc   z-rot acc
    22626  4.10053E-05 2.02870E-04 1.39736E-04 2.76883E-04 8.23450E-04 2.36512E-04 1.18000E-03 2.08939E-03-3.27177E-04



 n o d a l   p r i n t   o u t   f o r   t i m e  s t e p   11202                              ( at time 5.5999396E+00 )

 nodal point  x-disp     y-disp      z-disp      x-vel       y-vel       z-vel      x-accl      y-accl      z-accl      x-coor      y-coor      z-coor
    22626 -1.01226E-02-4.67755E-02-1.75765E+01 2.04225E-02 2.09836E-04-3.07129E+00 2.04793E-02 6.19548E-02 2.61319E-01 4.79541E+01-2.20766E+01-1.02380E+01



 n o d a l   p r i n t   o u t   f o r   t i m e  s t e p   11202                              ( at time 5.5999396E+00 )

 nodal point  x-rot      y-rot       z-rot       x-rot vel   y-rot vel   z-rot vel   x-rot acc   y-rot acc   z-rot acc
    22626  7.42291E-05 2.97873E-04 1.61854E-04 3.99586E-04 1.06883E-03 1.91346E-04 1.22716E-03 2.45403E-03-4.51709E-04



 n o d a l   p r i n t   o u t   f o r   t i m e  s t e p   11402                              ( at time 5.6999296E+00 )

 nodal point  x-disp     y-disp      z-disp      x-vel       y-vel       z-vel      x-accl      y-accl      z-accl      x-coor      y-coor      z-coor
    22626 -7.91965E-03-4.65086E-02-1.78822E+01 2.31014E-02 6.60711E-03-3.04242E+00 2.67913E-02 6.39789E-02 2.88729E-01 4.79563E+01-2.20763E+01-1.05437E+01



 n o d a l   p r i n t   o u t   f o r   t i m e  s t e p   11402                              ( at time 5.6999296E+00 )

 nodal point  x-rot      y-rot       z-rot       x-rot vel   y-rot vel   z-rot vel   x-rot acc   y-rot acc   z-rot acc
    22626  1.20270E-04 4.19404E-04 1.79336E-04 5.41533E-04 1.34969E-03 1.38012E-04 1.41960E-03 2.80890E-03-5.33394E-04



 n o d a l   p r i n t   o u t   f o r   t i m e  s t e p   11602                              ( at time 5.7999195E+00 )

 nodal point  x-disp     y-disp      z-disp      x-vel       y-vel       z-vel      x-accl      y-accl      z-accl      x-coor      y-coor      z-coor
    22626 -5.46397E-03-4.55228E-02-1.81848E+01 2.58583E-02 1.24692E-02-3.01048E+00 2.75715E-02 5.86267E-02 3.19370E-01 4.79587E+01-2.20753E+01-1.08463E+01



 n o d a l   p r i n t   o u t   f o r   t i m e  s t e p   11602                              ( at time 5.7999195E+00 )

 nodal point  x-rot      y-rot       z-rot       x-rot vel   y-rot vel   z-rot vel   x-rot acc   y-rot acc   z-rot acc
    22626  1.81088E-04 5.69458E-04 1.90644E-04 6.75794E-04 1.65496E-03 8.56489E-05 1.34275E-03 3.05302E-03-5.23681E-04



 n o d a l   p r i n t   o u t   f o r   t i m e  s t e p   11802                              ( at time 5.8999095E+00 )

 nodal point  x-disp     y-disp      z-disp      x-vel       y-vel       z-vel      x-accl      y-accl      z-accl      x-coor      y-coor      z-coor
    22626 -2.77658E-03-4.39466E-02-1.84841E+01 2.87660E-02 1.84417E-02-2.97508E+00 2.90800E-02 5.97317E-02 3.54042E-01 4.79614E+01-2.20737E+01-1.11456E+01



 n o d a l   p r i n t   o u t   f o r   t i m e  s t e p   11802                              ( at time 5.8999095E+00 )

 nodal point  x-rot      y-rot       z-rot       x-rot vel   y-rot vel   z-rot vel   x-rot acc   y-rot acc   z-rot acc
    22626  2.57879E-04 7.51535E-04 1.94201E-04 8.41117E-04 2.00039E-03 8.40999E-06 1.65339E-03 3.45462E-03-7.72467E-04



 n o d a l   p r i n t   o u t   f o r   t i m e  s t e p   12002                              ( at time 5.9998995E+00 )

 nodal point  x-disp     y-disp      z-disp      x-vel       y-vel       z-vel      x-accl      y-accl      z-accl      x-coor      y-coor      z-coor
    22626  2.22810E-04-4.17384E-02-1.87797E+01 3.17483E-02 2.48993E-02-2.93819E+00 2.98258E-02 6.45823E-02 3.68961E-01 4.79644E+01-2.20715E+01-1.14412E+01



 n o d a l   p r i n t   o u t   f o r   t i m e  s t e p   12002                              ( at time 5.9998995E+00 )

 nodal point  x-rot      y-rot       z-rot       x-rot vel   y-rot vel   z-rot vel   x-rot acc   y-rot acc   z-rot acc
    22626  3.50725E-04 9.66898E-04 1.90118E-04 1.00951E-03 2.31969E-03-7.39165E-05 1.68407E-03 3.19331E-03-8.23348E-04



 n o d a l   p r i n t   o u t   f o r   t i m e  s t e p   12202                              ( at time 6.0998895E+00 )

 nodal point  x-disp     y-disp      z-disp      x-vel       y-vel       z-vel      x-accl      y-accl      z-accl      x-coor      y-coor      z-coor
    22626  3.58292E-03-3.88272E-02-1.90715E+01 3.51268E-02 3.22462E-02-2.90010E+00 3.37889E-02 7.34759E-02 3.80901E-01 4.79678E+01-2.20686E+01-1.17330E+01



 n o d a l   p r i n t   o u t   f o r   t i m e  s t e p   12202                              ( at time 6.0998895E+00 )

 nodal point  x-rot      y-rot       z-rot       x-rot vel   y-rot vel   z-rot vel   x-rot acc   y-rot acc   z-rot acc
    22626  4.60645E-04 1.21527E-03 1.76514E-04 1.18633E-03 2.66433E-03-1.76823E-04 1.76843E-03 3.44676E-03-1.02917E-03



 n o d a l   p r i n t   o u t   f o r   t i m e  s t e p   12402                              ( at time 6.1998795E+00 )

 nodal point  x-disp     y-disp      z-disp      x-vel       y-vel       z-vel      x-accl      y-accl      z-accl      x-coor      y-coor      z-coor
    22626  7.23561E-03-3.52236E-02-1.93594E+01 3.87689E-02 3.94755E-02-2.85843E+00 3.64247E-02 7.23007E-02 4.16731E-01 4.79714E+01-2.20650E+01-1.20209E+01



 n o d a l   p r i n t   o u t   f o r   t i m e  s t e p   12402                              ( at time 6.1998795E+00 )

 nodal point  x-rot      y-rot       z-rot       x-rot vel   y-rot vel   z-rot vel   x-rot acc   y-rot acc   z-rot acc
    22626  5.87636E-04 1.49930E-03 1.53216E-04 1.36727E-03 3.01348E-03-2.81189E-04 1.80956E-03 3.49182E-03-1.04377E-03



 n o d a l   p r i n t   o u t   f o r   t i m e  s t e p   12602                              ( at time 6.2998695E+00 )

 nodal point  x-disp     y-disp      z-disp      x-vel       y-vel       z-vel      x-accl      y-accl      z-accl      x-coor      y-coor      z-coor
    22626  1.13602E-02-3.09050E-02-1.96430E+01 4.42329E-02 4.69033E-02-2.81404E+00 5.46449E-02 7.42854E-02 4.44009E-01 4.79755E+01-2.20607E+01-1.23045E+01



 n o d a l   p r i n t   o u t   f o r   t i m e  s t e p   12602                              ( at time 6.2998695E+00 )

 nodal point  x-rot      y-rot       z-rot       x-rot vel   y-rot vel   z-rot vel   x-rot acc   y-rot acc   z-rot acc
    22626  7.33912E-04 1.81716E-03 1.19162E-04 1.55311E-03 3.34432E-03-4.06895E-04 1.85856E-03 3.30873E-03-1.25718E-03



 n o d a l   p r i n t   o u t   f o r   t i m e  s t e p   12802                              ( at time 6.3998595E+00 )

 nodal point  x-disp     y-disp      z-disp      x-vel       y-vel       z-vel      x-accl      y-accl      z-accl      x-coor      y-coor      z-coor
    22626  1.60815E-02-2.58551E-02-1.99222E+01 4.98675E-02 5.35786E-02-2.76967E+00 5.63518E-02 6.67593E-02 4.43713E-01 4.79803E+01-2.20556E+01-1.25837E+01



 n o d a l   p r i n t   o u t   f o r   t i m e  s t e p   12802                              ( at time 6.3998595E+00 )

 nodal point  x-rot      y-rot       z-rot       x-rot vel   y-rot vel   z-rot vel   x-rot acc   y-rot acc   z-rot acc
    22626  8.99782E-04 2.17008E-03 7.26416E-05 1.74976E-03 3.71810E-03-5.14097E-04 1.96670E-03 3.73821E-03-1.07214E-03



 n o d a l   p r i n t   o u t   f o r   t i m e  s t e p   13002                              ( at time 6.4998495E+00 )

 nodal point  x-disp     y-disp      z-disp      x-vel       y-vel       z-vel      x-accl      y-accl      z-accl      x-coor      y-coor      z-coor
    22626  2.14292E-02-2.01073E-02-2.01968E+01 5.70902E-02 6.20569E-02-2.72213E+00 7.22351E-02 8.47916E-02 4.75428E-01 4.79856E+01-2.20499E+01-1.28583E+01



 n o d a l   p r i n t   o u t   f o r   t i m e  s t e p   13002                              ( at time 6.4998495E+00 )

 nodal point  x-rot      y-rot       z-rot       x-rot vel   y-rot vel   z-rot vel   x-rot acc   y-rot acc   z-rot acc
    22626  1.08510E-03 2.55769E-03 1.58653E-05 1.96240E-03 4.03116E-03-6.27047E-04 2.12666E-03 3.13092E-03-1.12961E-03



 n o d a l   p r i n t   o u t   f o r   t i m e  s t e p   13202                              ( at time 6.5998395E+00 )

 nodal point  x-disp     y-disp      z-disp      x-vel       y-vel       z-vel      x-accl      y-accl      z-accl      x-coor      y-coor      z-coor
    22626  2.75042E-02-1.35155E-02-2.04667E+01 6.50350E-02 7.00712E-02-2.67545E+00 7.94552E-02 8.01510E-02 4.66838E-01 4.79917E+01-2.20433E+01-1.31282E+01



 n o d a l   p r i n t   o u t   f o r   t i m e  s t e p   13202                              ( at time 6.5998395E+00 )

 nodal point  x-rot      y-rot       z-rot       x-rot vel   y-rot vel   z-rot vel   x-rot acc   y-rot acc   z-rot acc
    22626  1.29227E-03 2.97768E-03-5.30973E-05 2.19196E-03 4.36022E-03-7.52107E-04 2.29579E-03 3.29088E-03-1.25072E-03



 n o d a l   p r i n t   o u t   f o r   t i m e  s t e p   13402                              ( at time 6.6998295E+00 )

 nodal point  x-disp     y-disp      z-disp      x-vel       y-vel       z-vel      x-accl      y-accl      z-accl      x-coor      y-coor      z-coor
    22626  3.43724E-02-6.15346E-03-2.07317E+01 7.34003E-02 7.70331E-02-2.62579E+00 8.36619E-02 6.96256E-02 4.96650E-01 4.79986E+01-2.20359E+01-1.33932E+01



 n o d a l   p r i n t   o u t   f o r   t i m e  s t e p   13402                              ( at time 6.6998295E+00 )

 nodal point  x-rot      y-rot       z-rot       x-rot vel   y-rot vel   z-rot vel   x-rot acc   y-rot acc   z-rot acc
    22626  1.52087E-03 3.42981E-03-1.34101E-04 2.39056E-03 4.66706E-03-8.67408E-04 1.98622E-03 3.06871E-03-1.15313E-03



 n o d a l   p r i n t   o u t   f o r   t i m e  s t e p   13602                              ( at time 6.7998195E+00 )

 nodal point  x-disp     y-disp      z-disp      x-vel       y-vel       z-vel      x-accl      y-accl      z-accl      x-coor      y-coor      z-coor
    22626  4.21156E-02 1.91750E-03-2.09917E+01 8.17406E-02 8.47254E-02-2.57481E+00 8.34114E-02 7.69305E-02 5.09900E-01 4.80063E+01-2.20279E+01-1.36532E+01



 n o d a l   p r i n t   o u t   f o r   t i m e  s t e p   13602                              ( at time 6.7998195E+00 )

 nodal point  x-rot      y-rot       z-rot       x-rot vel   y-rot vel   z-rot vel   x-rot acc   y-rot acc   z-rot acc
    22626  1.77203E-03 3.91277E-03-2.27152E-04 2.63459E-03 4.97846E-03-9.88504E-04 2.44049E-03 3.11430E-03-1.21108E-03



 n o d a l   p r i n t   o u t   f o r   t i m e  s t e p   13802                              ( at time 6.8998095E+00 )

 nodal point  x-disp     y-disp      z-disp      x-vel       y-vel       z-vel      x-accl      y-accl      z-accl      x-coor      y-coor      z-coor
    22626  5.08240E-02 1.08150E-02-2.12465E+01 9.17739E-02 9.28416E-02-2.52205E+00 1.00343E-01 8.11707E-02 5.27643E-01 4.80150E+01-2.20190E+01-1.39080E+01



 n o d a l   p r i n t   o u t   f o r   t i m e  s t e p   13802                              ( at time 6.8998095E+00 )

 nodal point  x-rot      y-rot       z-rot       x-rot vel   y-rot vel   z-rot vel   x-rot acc   y-rot acc   z-rot acc
    22626  2.04625E-03 4.42484E-03-3.33679E-04 2.85632E-03 5.27962E-03-1.12835E-03 2.21761E-03 3.01192E-03-1.39857E-03



 n o d a l   p r i n t   o u t   f o r   t i m e  s t e p   14002                              ( at time 6.9997995E+00 )

 nodal point  x-disp     y-disp      z-disp      x-vel       y-vel       z-vel      x-accl      y-accl      z-accl      x-coor      y-coor      z-coor
    22626  6.04571E-02 2.04603E-02-2.14961E+01 1.01113E-01 9.99875E-02-2.47044E+00 9.34046E-02 7.14660E-02 5.16131E-01 4.80246E+01-2.20093E+01-1.41576E+01



 n o d a l   p r i n t   o u t   f o r   t i m e  s t e p   14002                              ( at time 6.9997995E+00 )

 nodal point  x-rot      y-rot       z-rot       x-rot vel   y-rot vel   z-rot vel   x-rot acc   y-rot acc   z-rot acc
    22626  2.34395E-03 4.96631E-03-4.52355E-04 3.09829E-03 5.56601E-03-1.24082E-03 2.41987E-03 2.86425E-03-1.12481E-03



 n o d a l   p r i n t   o u t   f o r   t i m e  s t e p   14202                              ( at time 7.0997895E+00 )

 nodal point  x-disp     y-disp      z-disp      x-vel       y-vel       z-vel      x-accl      y-accl      z-accl      x-coor      y-coor      z-coor
    22626  7.10170E-02 3.09591E-02-2.17403E+01 1.10909E-01 1.08339E-01-2.41525E+00 9.79685E-02 8.35244E-02 5.51952E-01 4.80352E+01-2.19988E+01-1.44018E+01



 n o d a l   p r i n t   o u t   f o r   t i m e  s t e p   14202                              ( at time 7.0997895E+00 )

 nodal point  x-rot      y-rot       z-rot       x-rot vel   y-rot vel   z-rot vel   x-rot acc   y-rot acc   z-rot acc
    22626  2.66516E-03 5.53689E-03-5.84045E-04 3.34133E-03 5.84407E-03-1.38142E-03 2.43072E-03 2.78084E-03-1.40619E-03



 n o d a l   p r i n t   o u t   f o r   t i m e  s t e p   14402                              ( at time 7.1997794E+00 )

 nodal point  x-disp     y-disp      z-disp      x-vel       y-vel       z-vel      x-accl      y-accl      z-accl      x-coor      y-coor      z-coor
    22626  8.25647E-02 4.20818E-02-2.19790E+01 1.20151E-01 1.14243E-01-2.35985E+00 9.24211E-02 5.90403E-02 5.54029E-01 4.80467E+01-2.19877E+01-1.46405E+01



 n o d a l   p r i n t   o u t   f o r   t i m e  s t e p   14402                              ( at time 7.1997794E+00 )

 nodal point  x-rot      y-rot       z-rot       x-rot vel   y-rot vel   z-rot vel   x-rot acc   y-rot acc   z-rot acc
    22626  3.01132E-03 6.13598E-03-7.27816E-04 3.57136E-03 6.13043E-03-1.49902E-03 2.30051E-03 2.86384E-03-1.17606E-03



 n o d a l   p r i n t   o u t   f o r   t i m e  s t e p   14602                              ( at time 7.2997694E+00 )

 nodal point  x-disp     y-disp      z-disp      x-vel       y-vel       z-vel      x-accl      y-accl      z-accl      x-coor      y-coor      z-coor
    22626  9.50778E-02 5.38326E-02-2.22121E+01 1.29288E-01 1.21236E-01-2.30288E+00 9.13798E-02 6.99455E-02 5.69842E-01 4.80593E+01-2.19760E+01-1.48736E+01



 n o d a l   p r i n t   o u t   f o r   t i m e  s t e p   14602                              ( at time 7.2997694E+00 )

 nodal point  x-rot      y-rot       z-rot       x-rot vel   y-rot vel   z-rot vel   x-rot acc   y-rot acc   z-rot acc
    22626  3.38185E-03 6.76356E-03-8.82725E-04 3.82628E-03 6.41838E-03-1.61187E-03 2.54939E-03 2.87982E-03-1.12861E-03



 n o d a l   p r i n t   o u t   f o r   t i m e  s t e p   14802                              ( at time 7.3997594E+00 )

 nodal point  x-disp     y-disp      z-disp      x-vel       y-vel       z-vel      x-accl      y-accl      z-accl      x-coor      y-coor      z-coor
    22626  1.08486E-01 6.62496E-02-2.24396E+01 1.38604E-01 1.26391E-01-2.24672E+00 9.31771E-02 5.15477E-02 5.61623E-01 4.80727E+01-2.19635E+01-1.51011E+01



 n o d a l   p r i n t   o u t   f o r   t i m e  s t e p   14802                              ( at time 7.3997594E+00 )

 nodal point  x-rot      y-rot       z-rot       x-rot vel   y-rot vel   z-rot vel   x-rot acc   y-rot acc   z-rot acc
    22626  3.77869E-03 7.41941E-03-1.04953E-03 4.09852E-03 6.68610E-03-1.70872E-03 2.72276E-03 2.67752E-03-9.68595E-04



 n o d a l   p r i n t   o u t   f o r   t i m e  s t e p   15002                              ( at time 7.4997494E+00 )

 nodal point  x-disp     y-disp      z-disp      x-vel       y-vel       z-vel      x-accl      y-accl      z-accl      x-coor      y-coor      z-coor
    22626  1.22756E-01 7.90828E-02-2.26612E+01 1.47260E-01 1.30575E-01-2.18658E+00 8.65619E-02 4.18438E-02 6.01469E-01 4.80869E+01-2.19507E+01-1.53227E+01



 n o d a l   p r i n t   o u t   f o r   t i m e  s t e p   15002                              ( at time 7.4997494E+00 )

 nodal point  x-rot      y-rot       z-rot       x-rot vel   y-rot vel   z-rot vel   x-rot acc   y-rot acc   z-rot acc
    22626  4.20118E-03 8.10308E-03-1.22594E-03 4.35625E-03 6.99590E-03-1.81717E-03 2.57754E-03 3.09824E-03-1.08469E-03



 n o d a l   p r i n t   o u t   f o r   t i m e  s t e p   15202                              ( at time 7.5997394E+00 )

 nodal point  x-disp     y-disp      z-disp      x-vel       y-vel       z-vel      x-accl      y-accl      z-accl      x-coor      y-coor      z-coor
    22626  1.37809E-01 9.23581E-02-2.28768E+01 1.54775E-01 1.34165E-01-2.12568E+00 7.51607E-02 3.59075E-02 6.09023E-01 4.81020E+01-2.19374E+01-1.55383E+01



 n o d a l   p r i n t   o u t   f o r   t i m e  s t e p   15202                              ( at time 7.5997394E+00 )

 nodal point  x-rot      y-rot       z-rot       x-rot vel   y-rot vel   z-rot vel   x-rot acc   y-rot acc   z-rot acc
    22626  4.65048E-03 8.81540E-03-1.41340E-03 4.63805E-03 7.26234E-03-1.91671E-03 2.81824E-03 2.66471E-03-9.95478E-04



 n o d a l   p r i n t   o u t   f o r   t i m e  s t e p   15402                              ( at time 7.6997294E+00 )

 nodal point  x-disp     y-disp      z-disp      x-vel       y-vel       z-vel      x-accl      y-accl      z-accl      x-coor      y-coor      z-coor
    22626  1.53610E-01 1.05889E-01-2.30861E+01 1.61369E-01 1.36558E-01-2.06045E+00 6.59415E-02 2.39343E-02 6.52405E-01 4.81178E+01-2.19239E+01-1.57476E+01



 n o d a l   p r i n t   o u t   f o r   t i m e  s t e p   15402                              ( at time 7.6997294E+00 )

 nodal point  x-rot      y-rot       z-rot       x-rot vel   y-rot vel   z-rot vel   x-rot acc   y-rot acc   z-rot acc
    22626  5.12980E-03 9.55605E-03-1.60953E-03 4.93652E-03 7.55446E-03-2.00228E-03 2.98502E-03 2.92150E-03-8.55783E-04



 n o d a l   p r i n t   o u t   f o r   t i m e  s t e p   15602                              ( at time 7.7997194E+00 )

 nodal point  x-disp     y-disp      z-disp      x-vel       y-vel       z-vel      x-accl      y-accl      z-accl      x-coor      y-coor      z-coor
    22626  1.70116E-01 1.19629E-01-2.32890E+01 1.68718E-01 1.37648E-01-1.99668E+00 7.35001E-02 1.08959E-02 6.37744E-01 4.81343E+01-2.19102E+01-1.59505E+01



 n o d a l   p r i n t   o u t   f o r   t i m e  s t e p   15602                              ( at time 7.7997194E+00 )

 nodal point  x-rot      y-rot       z-rot       x-rot vel   y-rot vel   z-rot vel   x-rot acc   y-rot acc   z-rot acc
    22626  5.63799E-03 1.03254E-02-1.81528E-03 5.22390E-03 7.82951E-03-2.09495E-03 2.87408E-03 2.75072E-03-9.26736E-04



 n o d a l   p r i n t   o u t   f o r   t i m e  s t e p   15802                              ( at time 7.8997094E+00 )

 nodal point  x-disp     y-disp      z-disp      x-vel       y-vel       z-vel      x-accl      y-accl      z-accl      x-coor      y-coor      z-coor
    22626  1.87345E-01 1.33497E-01-2.34852E+01 1.76079E-01 1.39253E-01-1.92948E+00 7.36171E-02 1.60505E-02 6.72084E-01 4.81515E+01-2.18963E+01-1.61467E+01



 n o d a l   p r i n t   o u t   f o r   t i m e  s t e p   15802                              ( at time 7.8997094E+00 )

 nodal point  x-rot      y-rot       z-rot       x-rot vel   y-rot vel   z-rot vel   x-rot acc   y-rot acc   z-rot acc
    22626  6.17620E-03 1.11196E-02-2.02929E-03 5.54721E-03 8.05603E-03-2.17656E-03 3.23343E-03 2.26542E-03-8.16231E-04



 n o d a l   p r i n t   o u t   f o r   t i m e  s t e p   16002                              ( at time 7.9996994E+00 )

 nodal point  x-disp     y-disp      z-disp      x-vel       y-vel       z-vel      x-accl      y-accl      z-accl      x-coor      y-coor      z-coor
    22626  2.05271E-01 1.47457E-01-2.36747E+01 1.82924E-01 1.39123E-01-1.86091E+00 6.84551E-02-1.29161E-03 6.85736E-01 4.81695E+01-2.18823E+01-1.63362E+01



 n o d a l   p r i n t   o u t   f o r   t i m e  s t e p   16002                              ( at time 7.9996994E+00 )

 nodal point  x-rot      y-rot       z-rot       x-rot vel   y-rot vel   z-rot vel   x-rot acc   y-rot acc   z-rot acc
    22626  6.74603E-03 1.19390E-02-2.25082E-03 5.86038E-03 8.32400E-03-2.25809E-03 3.13199E-03 2.67996E-03-8.15361E-04



 n o d a l   p r i n t   o u t   f o r   t i m e  s t e p   16202                              ( at time 8.0996894E+00 )

 nodal point  x-disp     y-disp      z-disp      x-vel       y-vel       z-vel      x-accl      y-accl      z-accl      x-coor      y-coor      z-coor
    22626  2.23897E-01 1.61324E-01-2.38573E+01 1.90058E-01 1.38592E-01-1.79014E+00 7.13543E-02-5.31608E-03 7.07779E-01 4.81881E+01-2.18685E+01-1.65188E+01



 n o d a l   p r i n t   o u t   f o r   t i m e  s t e p   16202                              ( at time 8.0996894E+00 )

 nodal point  x-rot      y-rot       z-rot       x-rot vel   y-rot vel   z-rot vel   x-rot acc   y-rot acc   z-rot acc
    22626  7.34768E-03 1.27808E-02-2.48001E-03 6.18747E-03 8.52127E-03-2.34003E-03 3.27122E-03 1.97298E-03-8.19533E-04



 n o d a l   p r i n t   o u t   f o r   t i m e  s t e p   16402                              ( at time 8.1996794E+00 )

 nodal point  x-disp     y-disp      z-disp      x-vel       y-vel       z-vel      x-accl      y-accl      z-accl      x-coor      y-coor      z-coor
    22626  2.43266E-01 1.75158E-01-2.40327E+01 1.97576E-01 1.37623E-01-1.71989E+00 7.51874E-02-9.69165E-03 7.02577E-01 4.82074E+01-2.18546E+01-1.66942E+01



 n o d a l   p r i n t   o u t   f o r   t i m e  s t e p   16402                              ( at time 8.1996794E+00 )

 nodal point  x-rot      y-rot       z-rot       x-rot vel   y-rot vel   z-rot vel   x-rot acc   y-rot acc   z-rot acc
    22626  7.98474E-03 1.36438E-02-2.71670E-03 6.53884E-03 8.71473E-03-2.40524E-03 3.51409E-03 1.93476E-03-6.52173E-04



 n o d a l   p r i n t   o u t   f o r   t i m e  s t e p   16602                              ( at time 8.2996694E+00 )

 nodal point  x-disp     y-disp      z-disp      x-vel       y-vel       z-vel      x-accl      y-accl      z-accl      x-coor      y-coor      z-coor
    22626  2.63343E-01 1.88812E-01-2.42010E+01 2.04011E-01 1.35958E-01-1.64671E+00 6.43551E-02-1.66473E-02 7.31901E-01 4.82275E+01-2.18410E+01-1.68625E+01



 n o d a l   p r i n t   o u t   f o r   t i m e  s t e p   16602                              ( at time 8.2996694E+00 )

 nodal point  x-rot      y-rot       z-rot       x-rot vel   y-rot vel   z-rot vel   x-rot acc   y-rot acc   z-rot acc
    22626  8.65455E-03 1.45269E-02-2.95976E-03 6.87401E-03 8.91805E-03-2.45846E-03 3.35205E-03 2.03336E-03-5.32235E-04



 n o d a l   p r i n t   o u t   f o r   t i m e  s t e p   16802                              ( at time 8.3996594E+00 )

 nodal point  x-disp     y-disp      z-disp      x-vel       y-vel       z-vel      x-accl      y-accl      z-accl      x-coor      y-coor      z-coor
    22626  2.84035E-01 2.02202E-01-2.43621E+01 2.10946E-01 1.32251E-01-1.57456E+00 6.93533E-02-3.70713E-02 7.21555E-01 4.82482E+01-2.18276E+01-1.70236E+01



 n o d a l   p r i n t   o u t   f o r   t i m e  s t e p   16802                              ( at time 8.3996594E+00 )

 nodal point  x-rot      y-rot       z-rot       x-rot vel   y-rot vel   z-rot vel   x-rot acc   y-rot acc   z-rot acc
    22626  9.36024E-03 1.54265E-02-3.20876E-03 7.23965E-03 9.06766E-03-2.52515E-03 3.65669E-03 1.49633E-03-6.66941E-04



 n o d a l   p r i n t   o u t   f o r   t i m e  s t e p   17002                              ( at time 8.4996494E+00 )

 nodal point  x-disp     y-disp      z-disp      x-vel       y-vel       z-vel      x-accl      y-accl      z-accl      x-coor      y-coor      z-coor
    22626  3.05485E-01 2.15175E-01-2.45157E+01 2.17783E-01 1.26344E-01-1.49887E+00 6.83801E-02-5.90824E-02 7.56980E-01 4.82697E+01-2.18146E+01-1.71772E+01



 n o d a l   p r i n t   o u t   f o r   t i m e  s t e p   17002                              ( at time 8.4996494E+00 )

 nodal point  x-rot      y-rot       z-rot       x-rot vel   y-rot vel   z-rot vel   x-rot acc   y-rot acc   z-rot acc
    22626  1.01022E-02 1.63423E-02-3.46519E-03 7.60318E-03 9.24019E-03-2.59376E-03 3.63566E-03 1.72548E-03-6.86196E-04



 n o d a l   p r i n t   o u t   f o r   t i m e  s t e p   17202                              ( at time 8.5996394E+00 )

 nodal point  x-disp     y-disp      z-disp      x-vel       y-vel       z-vel      x-accl      y-accl      z-accl      x-coor      y-coor      z-coor
    22626  3.27529E-01 2.27580E-01-2.46617E+01 2.23317E-01 1.21898E-01-1.42201E+00 5.53406E-02-4.44579E-02 7.68687E-01 4.82917E+01-2.18022E+01-1.73232E+01



 n o d a l   p r i n t   o u t   f o r   t i m e  s t e p   17202                              ( at time 8.5996394E+00 )

 nodal point  x-rot      y-rot       z-rot       x-rot vel   y-rot vel   z-rot vel   x-rot acc   y-rot acc   z-rot acc
    22626  1.08817E-02 1.72729E-02-3.72822E-03 7.97847E-03 9.36407E-03-2.67240E-03 3.75336E-03 1.23891E-03-7.86407E-04



 n o d a l   p r i n t   o u t   f o r   t i m e  s t e p   17402                              ( at time 8.6996293E+00 )

 nodal point  x-disp     y-disp      z-disp      x-vel       y-vel       z-vel      x-accl      y-accl      z-accl      x-coor      y-coor      z-coor
    22626  3.50240E-01 2.39366E-01-2.48001E+01 2.30625E-01 1.14754E-01-1.34488E+00 7.30935E-02-7.14488E-02 7.71302E-01 4.83144E+01-2.17904E+01-1.74616E+01



 n o d a l   p r i n t   o u t   f o r   t i m e  s t e p   17402                              ( at time 8.6996293E+00 )

 nodal point  x-rot      y-rot       z-rot       x-rot vel   y-rot vel   z-rot vel   x-rot acc   y-rot acc   z-rot acc
    22626  1.16987E-02 1.82135E-02-3.99651E-03 8.36523E-03 9.47023E-03-2.72941E-03 3.86791E-03 1.06164E-03-5.70227E-04



 n o d a l   p r i n t   o u t   f o r   t i m e  s t e p   17602                              ( at time 8.7996193E+00 )

 nodal point  x-disp     y-disp      z-disp      x-vel       y-vel       z-vel      x-accl      y-accl      z-accl      x-coor      y-coor      z-coor
    22626  3.73654E-01 2.50481E-01-2.49305E+01 2.37335E-01 1.07738E-01-1.26590E+00 6.71030E-02-7.01714E-02 7.89930E-01 4.83378E+01-2.17793E+01-1.75920E+01



 n o d a l   p r i n t   o u t   f o r   t i m e  s t e p   17602                              ( at time 8.7996193E+00 )

 nodal point  x-rot      y-rot       z-rot       x-rot vel   y-rot vel   z-rot vel   x-rot acc   y-rot acc   z-rot acc
    22626  1.25549E-02 1.91674E-02-4.27188E-03 8.76772E-03 9.57224E-03-2.77426E-03 4.02528E-03 1.02023E-03-4.48473E-04



 n o d a l   p r i n t   o u t   f o r   t i m e  s t e p   17802                              ( at time 8.8996093E+00 )

 nodal point  x-disp     y-disp      z-disp      x-vel       y-vel       z-vel      x-accl      y-accl      z-accl      x-coor      y-coor      z-coor
    22626  3.97768E-01 2.60940E-01-2.50532E+01 2.44637E-01 1.01913E-01-1.18814E+00 7.30278E-02-5.82589E-02 7.77709E-01 4.83619E+01-2.17689E+01-1.77147E+01



 n o d a l   p r i n t   o u t   f o r   t i m e  s t e p   17802                              ( at time 8.8996093E+00 )

 nodal point  x-rot      y-rot       z-rot       x-rot vel   y-rot vel   z-rot vel   x-rot acc   y-rot acc   z-rot acc
    22626  1.34520E-02 2.01277E-02-4.55242E-03 9.16905E-03 9.64680E-03-2.83959E-03 4.01374E-03 7.45636E-04-6.53382E-04



 n o d a l   p r i n t   o u t   f o r   t i m e  s t e p   18002                              ( at time 8.9995993E+00 )

 nodal point  x-disp     y-disp      z-disp      x-vel       y-vel       z-vel      x-accl      y-accl      z-accl      x-coor      y-coor      z-coor
    22626  4.22612E-01 2.70716E-01-2.51681E+01 2.51870E-01 9.46699E-02-1.11123E+00 7.23378E-02-7.24340E-02 7.69155E-01 4.83868E+01-2.17591E+01-1.78296E+01



 n o d a l   p r i n t   o u t   f o r   t i m e  s t e p   18002                              ( at time 8.9995993E+00 )

 nodal point  x-rot      y-rot       z-rot       x-rot vel   y-rot vel   z-rot vel   x-rot acc   y-rot acc   z-rot acc
    22626  1.43877E-02 2.10981E-02-4.83873E-03 9.55026E-03 9.75223E-03-2.89527E-03 3.81250E-03 1.05446E-03-5.56889E-04



 n o d a l   p r i n t   o u t   f o r   t i m e  s t e p   18202                              ( at time 9.0995893E+00 )

 nodal point  x-disp     y-disp      z-disp      x-vel       y-vel       z-vel      x-accl      y-accl      z-accl      x-coor      y-coor      z-coor
    22626  4.48196E-01 2.79884E-01-2.52755E+01 2.58267E-01 8.80940E-02-1.03752E+00 6.39724E-02-6.57653E-02 7.37144E-01 4.84124E+01-2.17499E+01-1.79370E+01



 n o d a l   p r i n t   o u t   f o r   t i m e  s t e p   18202                              ( at time 9.0995893E+00 )

 nodal point  x-rot      y-rot       z-rot       x-rot vel   y-rot vel   z-rot vel   x-rot acc   y-rot acc   z-rot acc
    22626  1.53634E-02 2.20778E-02-5.12961E-03 9.94885E-03 9.84731E-03-2.91453E-03 3.98626E-03 9.50883E-04-1.92589E-04



 n o d a l   p r i n t   o u t   f o r   t i m e  s t e p   18402                              ( at time 9.1995793E+00 )

 nodal point  x-disp     y-disp      z-disp      x-vel       y-vel       z-vel      x-accl      y-accl      z-accl      x-coor      y-coor      z-coor
    22626  4.74342E-01 2.88577E-01-2.53756E+01 2.65367E-01 8.58066E-02-9.64692E-01 7.10142E-02-2.28765E-02 7.28370E-01 4.84385E+01-2.17412E+01-1.80371E+01



 n o d a l   p r i n t   o u t   f o r   t i m e  s t e p   18402                              ( at time 9.1995793E+00 )

 nodal point  x-rot      y-rot       z-rot       x-rot vel   y-rot vel   z-rot vel   x-rot acc   y-rot acc   z-rot acc
    22626  1.63778E-02 2.30662E-02-5.42508E-03 1.03463E-02 9.93642E-03-2.98942E-03 3.97493E-03 8.91198E-04-7.49024E-04



 n o d a l   p r i n t   o u t   f o r   t i m e  s t e p   18602                              ( at time 9.2995693E+00 )

 nodal point  x-disp     y-disp      z-disp      x-vel       y-vel       z-vel      x-accl      y-accl      z-accl      x-coor      y-coor      z-coor
    22626  5.01278E-01 2.96772E-01-2.54684E+01 2.72762E-01 7.91038E-02-8.93040E-01 7.39515E-02-6.70346E-02 7.16596E-01 4.84655E+01-2.17330E+01-1.81299E+01



 n o d a l   p r i n t   o u t   f o r   t i m e  s t e p   18602                              ( at time 9.2995693E+00 )

 nodal point  x-rot      y-rot       z-rot       x-rot vel   y-rot vel   z-rot vel   x-rot acc   y-rot acc   z-rot acc
    22626  1.74324E-02 2.40632E-02-5.72530E-03 1.07387E-02 9.99514E-03-3.01528E-03 3.92406E-03 5.87212E-04-2.58568E-04



 n o d a l   p r i n t   o u t   f o r   t i m e  s t e p   18802                              ( at time 9.3995593E+00 )

 nodal point  x-disp     y-disp      z-disp      x-vel       y-vel       z-vel      x-accl      y-accl      z-accl      x-coor      y-coor      z-coor
    22626  5.28944E-01 3.04488E-01-2.55540E+01 2.79768E-01 7.59724E-02-8.20500E-01 7.00688E-02-3.13175E-02 7.25472E-01 4.84931E+01-2.17253E+01-1.82155E+01



 n o d a l   p r i n t   o u t   f o r   t i m e  s t e p   18802                              ( at time 9.3995593E+00 )

 nodal point  x-rot      y-rot       z-rot       x-rot vel   y-rot vel   z-rot vel   x-rot acc   y-rot acc   z-rot acc
    22626  1.85258E-02 2.50670E-02-6.02907E-03 1.11423E-02 1.00802E-02-3.07999E-03 4.03671E-03 8.51119E-04-6.47188E-04



 n o d a l   p r i n t   o u t   f o r   t i m e  s t e p   19002                              ( at time 9.4995493E+00 )

 nodal point  x-disp     y-disp      z-disp      x-vel       y-vel       z-vel      x-accl      y-accl      z-accl      x-coor      y-coor      z-coor
    22626  5.57302E-01 3.11845E-01-2.56326E+01 2.87270E-01 7.13352E-02-7.51379E-01 7.50263E-02-4.63765E-02 6.91282E-01 4.85215E+01-2.17179E+01-1.82941E+01



 n o d a l   p r i n t   o u t   f o r   t i m e  s t e p   19002                              ( at time 9.4995493E+00 )

 nodal point  x-rot      y-rot       z-rot       x-rot vel   y-rot vel   z-rot vel   x-rot acc   y-rot acc   z-rot acc
    22626  1.96616E-02 2.60776E-02-6.33805E-03 1.15493E-02 1.01524E-02-3.09303E-03 4.07071E-03 7.21624E-04-1.30457E-04



 n o d a l   p r i n t   o u t   f o r   t i m e  s t e p   19202                              ( at time 9.5995393E+00 )

 nodal point  x-disp     y-disp      z-disp      x-vel       y-vel       z-vel      x-accl      y-accl      z-accl      x-coor      y-coor      z-coor
    22626  5.86399E-01 3.18852E-01-2.57043E+01 2.94281E-01 6.85531E-02-6.82442E-01 7.01146E-02-2.78231E-02 6.89430E-01 4.85506E+01-2.17109E+01-1.83658E+01



 n o d a l   p r i n t   o u t   f o r   t i m e  s t e p   19202                              ( at time 9.5995393E+00 )

 nodal point  x-rot      y-rot       z-rot       x-rot vel   y-rot vel   z-rot vel   x-rot acc   y-rot acc   z-rot acc
    22626  2.08338E-02 2.70964E-02-6.65019E-03 1.19243E-02 1.02392E-02-3.14529E-03 3.74977E-03 8.68612E-04-5.22597E-04



 n o d a l   p r i n t   o u t   f o r   t i m e  s t e p   19402                              ( at time 9.6995293E+00 )

 nodal point  x-disp     y-disp      z-disp      x-vel       y-vel       z-vel      x-accl      y-accl      z-accl      x-coor      y-coor      z-coor
    22626  6.16148E-01 3.25689E-01-2.57692E+01 3.01932E-01 6.78714E-02-6.15239E-01 7.65234E-02-6.81760E-03 6.72104E-01 4.85803E+01-2.17041E+01-1.84307E+01



 n o d a l   p r i n t   o u t   f o r   t i m e  s t e p   19402                              ( at time 9.6995293E+00 )

 nodal point  x-rot      y-rot       z-rot       x-rot vel   y-rot vel   z-rot vel   x-rot acc   y-rot acc   z-rot acc
    22626  2.20479E-02 2.81193E-02-6.96847E-03 1.23413E-02 1.02613E-02-3.20923E-03 4.17117E-03 2.20420E-04-6.39485E-04



 n o d a l   p r i n t   o u t   f o r   t i m e  s t e p   19602                              ( at time 9.7995193E+00 )

 nodal point  x-disp     y-disp      z-disp      x-vel       y-vel       z-vel      x-accl      y-accl      z-accl      x-coor      y-coor      z-coor
    22626  6.46670E-01 3.32399E-01-2.58273E+01 3.09514E-01 6.51396E-02-5.51065E-01 7.58295E-02-2.73214E-02 6.41806E-01 4.86109E+01-2.16974E+01-1.84888E+01



 n o d a l   p r i n t   o u t   f o r   t i m e  s t e p   19602                              ( at time 9.7995193E+00 )

 nodal point  x-rot      y-rot       z-rot       x-rot vel   y-rot vel   z-rot vel   x-rot acc   y-rot acc   z-rot acc
    22626  2.33007E-02 2.91484E-02-7.29087E-03 1.27209E-02 1.03067E-02-3.23529E-03 3.79599E-03 4.54606E-04-2.60664E-04



 n o d a l   p r i n t   o u t   f o r   t i m e  s t e p   19802                              ( at time 9.8995093E+00 )

 nodal point  x-disp     y-disp      z-disp      x-vel       y-vel       z-vel      x-accl      y-accl      z-accl      x-coor      y-coor      z-coor
    22626  6.77958E-01 3.38916E-01-2.58792E+01 3.16627E-01 6.56897E-02-4.85961E-01 7.11361E-02 5.50199E-03 6.51103E-01 4.86421E+01-2.16909E+01-1.85407E+01



 n o d a l   p r i n t   o u t   f o r   t i m e  s t e p   19802                              ( at time 9.8995093E+00 )

 nodal point  x-rot      y-rot       z-rot       x-rot vel   y-rot vel   z-rot vel   x-rot acc   y-rot acc   z-rot acc
    22626  2.45903E-02 3.01850E-02-7.61760E-03 1.30808E-02 1.03813E-02-3.27929E-03 3.59916E-03 7.45310E-04-4.39957E-04



 n o d a l   p r i n t   o u t   f o r   t i m e  s t e p   20003                              ( at time 9.9999992E+00 )

 nodal point  x-disp     y-disp      z-disp      x-vel       y-vel       z-vel      x-accl      y-accl      z-accl      x-coor      y-coor      z-coor
[...]
    22626  2.57182E-01 1.54225E-01-7.05534E-02 1.78763E-02 8.09764E-03-6.03431E-03-2.82887E-04-2.24227E-04 3.84574E-04



 n o d a l   p r i n t   o u t   f o r   t i m e  s t e p   45205                              ( at time 2.2599738E+01 )

 nodal point  x-disp     y-disp      z-disp      x-vel       y-vel       z-vel      x-accl      y-accl      z-accl      x-coor      y-coor      z-coor
    22626  4.67970E+00 9.12279E-01-2.03499E+01 2.77160E-01-7.39823E-02 4.50671E-01 1.59624E-02-3.17492E-02-2.36134E-02 5.26439E+01-2.11175E+01-1.30114E+01



 n o d a l   p r i n t   o u t   f o r   t i m e  s t e p   45205                              ( at time 2.2599738E+01 )

 nodal point  x-rot      y-rot       z-rot       x-rot vel   y-rot vel   z-rot vel   x-rot acc   y-rot acc   z-rot acc
    22626  2.58967E-01 1.55034E-01-7.11547E-02 1.78265E-02 8.08614E-03-5.99126E-03-4.97726E-04-1.15029E-04 4.30553E-04



 n o d a l   p r i n t   o u t   f o r   t i m e  s t e p   45405                              ( at time 2.2699728E+01 )

 nodal point  x-disp     y-disp      z-disp      x-vel       y-vel       z-vel      x-accl      y-accl      z-accl      x-coor      y-coor      z-coor
    22626  4.70751E+00 9.04702E-01-2.03049E+01 2.78836E-01-7.73819E-02 4.48599E-01 1.67666E-02-3.39992E-02-2.07185E-02 5.26717E+01-2.11251E+01-1.29664E+01



 n o d a l   p r i n t   o u t   f o r   t i m e  s t e p   45405                              ( at time 2.2699728E+01 )

 nodal point  x-rot      y-rot       z-rot       x-rot vel   y-rot vel   z-rot vel   x-rot acc   y-rot acc   z-rot acc
    22626  2.60749E-01 1.55841E-01-7.17512E-02 1.78085E-02 8.06828E-03-5.94205E-03-1.79747E-04-1.78582E-04 4.92151E-04



 n o d a l   p r i n t   o u t   f o r   t i m e  s t e p   45605                              ( at time 2.2799718E+01 )

 nodal point  x-disp     y-disp      z-disp      x-vel       y-vel       z-vel      x-accl      y-accl      z-accl      x-coor      y-coor      z-coor
    22626  4.73546E+00 8.96866E-01-2.02602E+01 2.80212E-01-7.94555E-02 4.47016E-01 1.37634E-02-2.07379E-02-1.58324E-02 5.26996E+01-2.11329E+01-1.29216E+01



 n o d a l   p r i n t   o u t   f o r   t i m e  s t e p   45605                              ( at time 2.2799718E+01 )

 nodal point  x-rot      y-rot       z-rot       x-rot vel   y-rot vel   z-rot vel   x-rot acc   y-rot acc   z-rot acc
    22626  2.62529E-01 1.56648E-01-7.23433E-02 1.77902E-02 8.06371E-03-5.90461E-03-1.83115E-04-4.57321E-05 3.74393E-04



 n o d a l   p r i n t   o u t   f o r   t i m e  s t e p   45805                              ( at time 2.2899708E+01 )

 nodal point  x-disp     y-disp      z-disp      x-vel       y-vel       z-vel      x-accl      y-accl      z-accl      x-coor      y-coor      z-coor
    22626  4.76353E+00 8.88771E-01-2.02156E+01 2.81345E-01-8.21821E-02 4.44818E-01 1.13306E-02-2.72695E-02-2.19846E-02 5.27277E+01-2.11410E+01-1.28771E+01



 n o d a l   p r i n t   o u t   f o r   t i m e  s t e p   45805                              ( at time 2.2899708E+01 )

 nodal point  x-rot      y-rot       z-rot       x-rot vel   y-rot vel   z-rot vel   x-rot acc   y-rot acc   z-rot acc
    22626  2.64306E-01 1.57454E-01-7.29312E-02 1.77691E-02 8.05634E-03-5.85790E-03-2.11527E-04-7.37223E-05 4.67189E-04



 n o d a l   p r i n t   o u t   f o r   t i m e  s t e p   46005                              ( at time 2.2999698E+01 )

 nodal point  x-disp     y-disp      z-disp      x-vel       y-vel       z-vel      x-accl      y-accl      z-accl      x-coor      y-coor      z-coor
    22626  4.79175E+00 8.80439E-01-2.01712E+01 2.82860E-01-8.46852E-02 4.42804E-01 1.51487E-02-2.50331E-02-2.01423E-02 5.27559E+01-2.11494E+01-1.28327E+01



 n o d a l   p r i n t   o u t   f o r   t i m e  s t e p   46005                              ( at time 2.2999698E+01 )

 nodal point  x-rot      y-rot       z-rot       x-rot vel   y-rot vel   z-rot vel   x-rot acc   y-rot acc   z-rot acc
    22626  2.66084E-01 1.58259E-01-7.35149E-02 1.77760E-02 8.04339E-03-5.81940E-03 6.95948E-05-1.29540E-04 3.85095E-04



 n o d a l   p r i n t   o u t   f o r   t i m e  s t e p   46205                              ( at time 2.3099688E+01 )

 nodal point  x-disp     y-disp      z-disp      x-vel       y-vel       z-vel      x-accl      y-accl      z-accl      x-coor      y-coor      z-coor
    22626  4.82010E+00 8.71845E-01-2.01270E+01 2.84378E-01-8.68256E-02 4.41206E-01 1.51824E-02-2.14067E-02-1.59842E-02 5.27843E+01-2.11579E+01-1.27885E+01



 n o d a l   p r i n t   o u t   f o r   t i m e  s t e p   46205                              ( at time 2.3099688E+01 )

 nodal point  x-rot      y-rot       z-rot       x-rot vel   y-rot vel   z-rot vel   x-rot acc   y-rot acc   z-rot acc
    22626  2.67861E-01 1.59063E-01-7.40946E-02 1.77609E-02 8.04423E-03-5.77735E-03-1.50872E-04 8.46666E-06 4.20455E-04



 n o d a l   p r i n t   o u t   f o r   t i m e  s t e p   46405                              ( at time 2.3199678E+01 )

 nodal point  x-disp     y-disp      z-disp      x-vel       y-vel       z-vel      x-accl      y-accl      z-accl      x-coor      y-coor      z-coor
    22626  4.84857E+00 8.63085E-01-2.00830E+01 2.85289E-01-8.85117E-02 4.38902E-01 9.11021E-03-1.68624E-02-2.30420E-02 5.28127E+01-2.11667E+01-1.27445E+01



 n o d a l   p r i n t   o u t   f o r   t i m e  s t e p   46405                              ( at time 2.3199678E+01 )

 nodal point  x-rot      y-rot       z-rot       x-rot vel   y-rot vel   z-rot vel   x-rot acc   y-rot acc   z-rot acc
    22626  2.69636E-01 1.59866E-01-7.46702E-02 1.77657E-02 8.02920E-03-5.73107E-03 4.70361E-05-1.50329E-04 4.62928E-04



 n o d a l   p r i n t   o u t   f o r   t i m e  s t e p   46605                              ( at time 2.3299668E+01 )

 nodal point  x-disp     y-disp      z-disp      x-vel       y-vel       z-vel      x-accl      y-accl      z-accl      x-coor      y-coor      z-coor
    22626  4.87715E+00 8.54164E-01-2.00392E+01 2.86626E-01-9.00475E-02 4.36736E-01 1.33666E-02-1.53596E-02-2.16565E-02 5.28413E+01-2.11756E+01-1.27007E+01



 n o d a l   p r i n t   o u t   f o r   t i m e  s t e p   46605                              ( at time 2.3299668E+01 )

 nodal point  x-rot      y-rot       z-rot       x-rot vel   y-rot vel   z-rot vel   x-rot acc   y-rot acc   z-rot acc
    22626  2.71413E-01 1.60669E-01-7.52418E-02 1.77694E-02 8.01698E-03-5.69486E-03 3.72011E-05-1.22184E-04 3.62059E-04



 n o d a l   p r i n t   o u t   f o r   t i m e  s t e p   46805                              ( at time 2.3399658E+01 )

 nodal point  x-disp     y-disp      z-disp      x-vel       y-vel       z-vel      x-accl      y-accl      z-accl      x-coor      y-coor      z-coor
    22626  4.90585E+00 8.45083E-01-1.99956E+01 2.87400E-01-9.12888E-02 4.35016E-01 7.74574E-03-1.24138E-02-1.72017E-02 5.28700E+01-2.11847E+01-1.26571E+01



 n o d a l   p r i n t   o u t   f o r   t i m e  s t e p   46805                              ( at time 2.3399658E+01 )

 nodal point  x-rot      y-rot       z-rot       x-rot vel   y-rot vel   z-rot vel   x-rot acc   y-rot acc   z-rot acc
    22626  2.73189E-01 1.61471E-01-7.58095E-02 1.77693E-02 8.01718E-03-5.66064E-03-6.70614E-07 1.94664E-06 3.42227E-04



 n o d a l   p r i n t   o u t   f o r   t i m e  s t e p   47005                              ( at time 2.3499648E+01 )

 nodal point  x-disp     y-disp      z-disp      x-vel       y-vel       z-vel      x-accl      y-accl      z-accl      x-coor      y-coor      z-coor
    22626  4.93464E+00 8.35893E-01-1.99523E+01 2.88572E-01-9.26311E-02 4.33035E-01 1.17170E-02-1.34250E-02-1.98114E-02 5.28988E+01-2.11939E+01-1.26138E+01



 n o d a l   p r i n t   o u t   f o r   t i m e  s t e p   47005                              ( at time 2.3499648E+01 )

 nodal point  x-rot      y-rot       z-rot       x-rot vel   y-rot vel   z-rot vel   x-rot acc   y-rot acc   z-rot acc
    22626  2.74966E-01 1.62271E-01-7.63742E-02 1.77775E-02 8.00449E-03-5.63094E-03 8.18521E-05-1.26858E-04 2.97026E-04



 n o d a l   p r i n t   o u t   f o r   t i m e  s t e p   47205                              ( at time 2.3599638E+01 )

 nodal point  x-disp     y-disp      z-disp      x-vel       y-vel       z-vel      x-accl      y-accl      z-accl      x-coor      y-coor      z-coor
    22626  4.96353E+00 8.26612E-01-1.99090E+01 2.89101E-01-9.28924E-02 4.31036E-01 5.29348E-03-2.61328E-03-1.99984E-02 5.29277E+01-2.12032E+01-1.25705E+01



 n o d a l   p r i n t   o u t   f o r   t i m e  s t e p   47205                              ( at time 2.3599638E+01 )

 nodal point  x-rot      y-rot       z-rot       x-rot vel   y-rot vel   z-rot vel   x-rot acc   y-rot acc   z-rot acc
    22626  2.76744E-01 1.63072E-01-7.69354E-02 1.77871E-02 7.99681E-03-5.59495E-03 9.59741E-05-7.68426E-05 3.59949E-04



 n o d a l   p r i n t   o u t   f o r   t i m e  s t e p   47405                              ( at time 2.3699628E+01 )

 nodal point  x-disp     y-disp      z-disp      x-vel       y-vel       z-vel      x-accl      y-accl      z-accl      x-coor      y-coor      z-coor
    22626  4.99246E+00 8.17311E-01-1.98660E+01 2.89778E-01-9.29867E-02 4.29394E-01 6.77558E-03-9.42659E-04-1.64226E-02 5.29566E+01-2.12125E+01-1.25275E+01



 n o d a l   p r i n t   o u t   f o r   t i m e  s t e p   47405                              ( at time 2.3699628E+01 )

 nodal point  x-rot      y-rot       z-rot       x-rot vel   y-rot vel   z-rot vel   x-rot acc   y-rot acc   z-rot acc
    22626  2.78523E-01 1.63871E-01-7.74932E-02 1.77900E-02 7.99515E-03-5.56552E-03 2.92276E-05-1.65977E-05 2.94334E-04



 n o d a l   p r i n t   o u t   f o r   t i m e  s t e p   47605                              ( at time 2.3799618E+01 )

 nodal point  x-disp     y-disp      z-disp      x-vel       y-vel       z-vel      x-accl      y-accl      z-accl      x-coor      y-coor      z-coor
    22626  5.02147E+00 8.07993E-01-1.98232E+01 2.90158E-01-9.34650E-02 4.26812E-01 3.80111E-03-4.78388E-03-2.58158E-02 5.29856E+01-2.12218E+01-1.24847E+01



 n o d a l   p r i n t   o u t   f o r   t i m e  s t e p   47605                              ( at time 2.3799618E+01 )

 nodal point  x-rot      y-rot       z-rot       x-rot vel   y-rot vel   z-rot vel   x-rot acc   y-rot acc   z-rot acc
    22626  2.80303E-01 1.64670E-01-7.80482E-02 1.78095E-02 7.98039E-03-5.53743E-03 1.94985E-04-1.47631E-04 2.80951E-04



 n o d a l   p r i n t   o u t   f o r   t i m e  s t e p   47805                              ( at time 2.3899608E+01 )

 nodal point  x-disp     y-disp      z-disp      x-vel       y-vel       z-vel      x-accl      y-accl      z-accl      x-coor      y-coor      z-coor
    22626  5.05050E+00 7.98652E-01-1.97806E+01 2.90596E-01-9.31284E-02 4.24734E-01 4.37896E-03 3.36633E-03-2.07854E-02 5.30147E+01-2.12311E+01-1.24421E+01



 n o d a l   p r i n t   o u t   f o r   t i m e  s t e p   47805                              ( at time 2.3899608E+01 )

 nodal point  x-rot      y-rot       z-rot       x-rot vel   y-rot vel   z-rot vel   x-rot acc   y-rot acc   z-rot acc
    22626  2.82085E-01 1.65467E-01-7.86005E-02 1.78284E-02 7.97229E-03-5.50728E-03 1.89020E-04-8.10045E-05 3.01525E-04



 n o d a l   p r i n t   o u t   f o r   t i m e  s t e p   48005                              ( at time 2.3999598E+01 )

 nodal point  x-disp     y-disp      z-disp      x-vel       y-vel       z-vel      x-accl      y-accl      z-accl      x-coor      y-coor      z-coor
    22626  5.07958E+00 7.89384E-01-1.97383E+01 2.90703E-01-9.24164E-02 4.22455E-01 1.06645E-03 7.12064E-03-2.27971E-02 5.30438E+01-2.12404E+01-1.23998E+01



 n o d a l   p r i n t   o u t   f o r   t i m e  s t e p   48005                              ( at time 2.3999598E+01 )

 nodal point  x-rot      y-rot       z-rot       x-rot vel   y-rot vel   z-rot vel   x-rot acc   y-rot acc   z-rot acc
    22626  2.83868E-01 1.66264E-01-7.91498E-02 1.78477E-02 7.96188E-03-5.47974E-03 1.92991E-04-1.04096E-04 2.75455E-04



 n o d a l   p r i n t   o u t   f o r   t i m e  s t e p   48205                              ( at time 2.4099588E+01 )

 nodal point  x-disp     y-disp      z-disp      x-vel       y-vel       z-vel      x-accl      y-accl      z-accl      x-coor      y-coor      z-coor
    22626  5.10866E+00 7.80164E-01-1.96962E+01 2.90985E-01-9.17301E-02 4.19865E-01 2.82313E-03 6.86395E-03-2.58970E-02 5.30728E+01-2.12496E+01-1.23577E+01



 n o d a l   p r i n t   o u t   f o r   t i m e  s t e p   48205                              ( at time 2.4099588E+01 )

 nodal point  x-rot      y-rot       z-rot       x-rot vel   y-rot vel   z-rot vel   x-rot acc   y-rot acc   z-rot acc
    22626  2.85654E-01 1.67059E-01-7.96965E-02 1.78722E-02 7.94340E-03-5.45895E-03 2.45482E-04-1.84884E-04 2.07872E-04



 n o d a l   p r i n t   o u t   f o r   t i m e  s t e p   48405                              ( at time 2.4199578E+01 )

 nodal point  x-disp     y-disp      z-disp      x-vel       y-vel       z-vel      x-accl      y-accl      z-accl      x-coor      y-coor      z-coor
    22626  5.13776E+00 7.71046E-01-1.96543E+01 2.90938E-01-9.07995E-02 4.17727E-01-4.74505E-04 9.30733E-03-2.13855E-02 5.31019E+01-2.12587E+01-1.23158E+01



 n o d a l   p r i n t   o u t   f o r   t i m e  s t e p   48405                              ( at time 2.4199578E+01 )

 nodal point  x-rot      y-rot       z-rot       x-rot vel   y-rot vel   z-rot vel   x-rot acc   y-rot acc   z-rot acc
    22626  2.87442E-01 1.67853E-01-8.02409E-02 1.78843E-02 7.92867E-03-5.43075E-03 1.20247E-04-1.47305E-04 2.82068E-04



 n o d a l   p r i n t   o u t   f o r   t i m e  s t e p   48605                              ( at time 2.4299568E+01 )

 nodal point  x-disp     y-disp      z-disp      x-vel       y-vel       z-vel      x-accl      y-accl      z-accl      x-coor      y-coor      z-coor
    22626  5.16683E+00 7.62051E-01-1.96127E+01 2.90763E-01-8.90047E-02 4.15439E-01-1.74747E-03 1.79493E-02-2.28807E-02 5.31310E+01-2.12677E+01-1.22742E+01



 n o d a l   p r i n t   o u t   f o r   t i m e  s t e p   48605                              ( at time 2.4299568E+01 )

 nodal point  x-rot      y-rot       z-rot       x-rot vel   y-rot vel   z-rot vel   x-rot acc   y-rot acc   z-rot acc
    22626  2.89231E-01 1.68645E-01-8.07830E-02 1.79076E-02 7.92136E-03-5.41062E-03 2.33802E-04-7.30317E-05 2.01333E-04



 n o d a l   p r i n t   o u t   f o r   t i m e  s t e p   48805                              ( at time 2.4399558E+01 )

 nodal point  x-disp     y-disp      z-disp      x-vel       y-vel       z-vel      x-accl      y-accl      z-accl      x-coor      y-coor      z-coor
    22626  5.19588E+00 7.53212E-01-1.95712E+01 2.90413E-01-8.79784E-02 4.12943E-01-3.49703E-03 1.02643E-02-2.49653E-02 5.31601E+01-2.12766E+01-1.22327E+01



 n o d a l   p r i n t   o u t   f o r   t i m e  s t e p   48805                              ( at time 2.4399558E+01 )

 nodal point  x-rot      y-rot       z-rot       x-rot vel   y-rot vel   z-rot vel   x-rot acc   y-rot acc   z-rot acc
    22626  2.91023E-01 1.69436E-01-8.13233E-02 1.79243E-02 7.89905E-03-5.38924E-03 1.66554E-04-2.23184E-04 2.13837E-04



 n o d a l   p r i n t   o u t   f o r   t i m e  s t e p   49006                              ( at time 2.4500048E+01 )

 nodal point  x-disp     y-disp      z-disp      x-vel       y-vel       z-vel      x-accl      y-accl      z-accl      x-coor      y-coor      z-coor
    22626  5.22505E+00 7.44469E-01-1.95299E+01 2.90009E-01-8.59124E-02 4.10575E-01-4.02481E-03 2.05594E-02-2.35589E-02 5.31892E+01-2.12853E+01-1.21914E+01



 n o d a l   p r i n t   o u t   f o r   t i m e  s t e p   49006                              ( at time 2.4500048E+01 )

 nodal point  x-rot      y-rot       z-rot       x-rot vel   y-rot vel   z-rot vel   x-rot acc   y-rot acc   z-rot acc
    22626  2.92824E-01 1.70229E-01-8.18641E-02 1.79350E-02 7.87902E-03-5.37051E-03 1.06081E-04-1.99316E-04 1.86341E-04



 n o d a l   p r i n t   o u t   f o r   t i m e  s t e p   49206                              ( at time 2.4600038E+01 )

 nodal point  x-disp     y-disp      z-disp      x-vel       y-vel       z-vel      x-accl      y-accl      z-accl      x-coor      y-coor      z-coor
    22626  5.25401E+00 7.35974E-01-1.94889E+01 2.89309E-01-8.39117E-02 4.08656E-01-7.00299E-03 2.00086E-02-1.91912E-02 5.32182E+01-2.12938E+01-1.21504E+01



 n o d a l   p r i n t   o u t   f o r   t i m e  s t e p   49206                              ( at time 2.4600038E+01 )

 nodal point  x-rot      y-rot       z-rot       x-rot vel   y-rot vel   z-rot vel   x-rot acc   y-rot acc   z-rot acc
    22626  2.94618E-01 1.71016E-01-8.24000E-02 1.79460E-02 7.86319E-03-5.35074E-03 1.10465E-04-1.58311E-04 1.97757E-04



 n o d a l   p r i n t   o u t   f o r   t i m e  s t e p   49406                              ( at time 2.4700028E+01 )

 nodal point  x-disp     y-disp      z-disp      x-vel       y-vel       z-vel      x-accl      y-accl      z-accl      x-coor      y-coor      z-coor
    22626  5.28291E+00 7.27665E-01-1.94482E+01 2.88588E-01-8.24204E-02 4.05930E-01-7.21147E-03 1.49144E-02-2.72674E-02 5.32471E+01-2.13021E+01-1.21097E+01



 n o d a l   p r i n t   o u t   f o r   t i m e  s t e p   49406                              ( at time 2.4700028E+01 )

 nodal point  x-rot      y-rot       z-rot       x-rot vel   y-rot vel   z-rot vel   x-rot acc   y-rot acc   z-rot acc
    22626  2.96413E-01 1.71801E-01-8.29341E-02 1.79590E-02 7.84292E-03-5.33184E-03 1.30306E-04-2.02706E-04 1.89042E-04



 n o d a l   p r i n t   o u t   f o r   t i m e  s t e p   49606                              ( at time 2.4800018E+01 )

 nodal point  x-disp     y-disp      z-disp      x-vel       y-vel       z-vel      x-accl      y-accl      z-accl      x-coor      y-coor      z-coor
    22626  5.31172E+00 7.19529E-01-1.94077E+01 2.87641E-01-8.03620E-02 4.03901E-01-9.46966E-03 2.05866E-02-2.02877E-02 5.32759E+01-2.13103E+01-1.20692E+01



 n o d a l   p r i n t   o u t   f o r   t i m e  s t e p   49606                              ( at time 2.4800018E+01 )

 nodal point  x-rot      y-rot       z-rot       x-rot vel   y-rot vel   z-rot vel   x-rot acc   y-rot acc   z-rot acc
    22626  2.98210E-01 1.72584E-01-8.34668E-02 1.79734E-02 7.82118E-03-5.31600E-03 1.43455E-04-2.17428E-04 1.58358E-04



 n o d a l   p r i n t   o u t   f o r   t i m e  s t e p   49806                              ( at time 2.4900008E+01 )

 nodal point  x-disp     y-disp      z-disp      x-vel       y-vel       z-vel      x-accl      y-accl      z-accl      x-coor      y-coor      z-coor
    22626  5.34042E+00 7.11618E-01-1.93674E+01 2.86482E-01-7.82055E-02 4.01622E-01-1.15875E-02 2.15669E-02-2.27903E-02 5.33046E+01-2.13182E+01-1.20289E+01



 n o d a l   p r i n t   o u t   f o r   t i m e  s t e p   49806                              ( at time 2.4900008E+01 )

 nodal point  x-rot      y-rot       z-rot       x-rot vel   y-rot vel   z-rot vel   x-rot acc   y-rot acc   z-rot acc
    22626  3.00008E-01 1.73365E-01-8.39977E-02 1.79857E-02 7.79389E-03-5.29926E-03 1.23693E-04-2.72950E-04 1.67414E-04



 n o d a l   p r i n t   o u t   f o r   t i m e  s t e p   50006                              ( at time 2.4999998E+01 )

 nodal point  x-disp     y-disp      z-disp      x-vel       y-vel       z-vel      x-accl      y-accl      z-accl      x-coor      y-coor      z-coor
    22626  5.36902E+00 7.03887E-01-1.93274E+01 2.85427E-01-7.64506E-02 3.99269E-01-1.05513E-02 1.75503E-02-2.35379E-02 5.33332E+01-2.13259E+01-1.19889E+01



 n o d a l   p r i n t   o u t   f o r   t i m e  s t e p   50006                              ( at time 2.4999998E+01 )

 nodal point  x-rot      y-rot       z-rot       x-rot vel   y-rot vel   z-rot vel   x-rot acc   y-rot acc   z-rot acc
    22626  3.01807E-01 1.74143E-01-8.45266E-02 1.80073E-02 7.77063E-03-5.28346E-03 2.15267E-04-2.32573E-04 1.57995E-04
