 LSTC 50th% Full_FE H-III Dummy (Beta Version, February 17, 2019)        
                    ls-dyna smp s R16 R16.0_619_d222963 date 03/18/2025

{BEGIN LEGEND}
 Entity #        Title
    22626                                                                                     
{END LEGEND}




 n o d a l   p r i n t   o u t   f o r   t i m e  s t e p       1                              ( at time 0.0000000E+00 )

 nodal point  x-disp     y-disp      z-disp      x-vel       y-vel       z-vel      x-accl      y-accl      z-accl      x-coor      y-coor      z-coor
    22626  0.00000E+00 0.00000E+00 0.00000E+00 0.00000E+00 0.00000E+00 0.00000E+00 0.00000E+00 0.00000E+00 0.00000E+00 4.65938E+00-2.81908E+01-4.49817E+01



 n o d a l   p r i n t   o u t   f o r   t i m e  s t e p       1                              ( at time 0.0000000E+00 )

 nodal point  x-rot      y-rot       z-rot       x-rot vel   y-rot vel   z-rot vel   x-rot acc   y-rot acc   z-rot acc
    22626  0.00000E+00 0.00000E+00 0.00000E+00 0.00000E+00 0.00000E+00 0.00000E+00 0.00000E+00 0.00000E+00 0.00000E+00



 n o d a l   p r i n t   o u t   f o r   t i m e  s t e p     201                              ( at time 9.9989993E-02 )

 nodal point  x-disp     y-disp      z-disp      x-vel       y-vel       z-vel      x-accl      y-accl      z-accl      x-coor      y-coor      z-coor
    22626  2.73575E-07 1.73669E-06-5.34278E-05 4.19752E-05 2.55596E-04-1.46819E-03 4.19794E-04 2.55621E-03-1.46834E-02 4.65938E+00-2.81908E+01-4.49818E+01



 n o d a l   p r i n t   o u t   f o r   t i m e  s t e p     201                              ( at time 9.9989993E-02 )

 nodal point  x-rot      y-rot       z-rot       x-rot vel   y-rot vel   z-rot vel   x-rot acc   y-rot acc   z-rot acc
    22626 -5.98980E-08-8.38467E-09-5.45921E-09-5.86955E-06-9.69950E-07-9.27111E-07-5.87014E-05-9.70047E-06-9.27203E-06



 n o d a l   p r i n t   o u t   f o r   t i m e  s t e p     401                              ( at time 1.9997999E-01 )

 nodal point  x-disp     y-disp      z-disp      x-vel       y-vel       z-vel      x-accl      y-accl      z-accl      x-coor      y-coor      z-coor
    22626  1.73156E-05 3.61744E-04-6.67596E-04 3.02656E-05 7.81062E-03-1.21538E-02-1.17107E-04 7.55578E-02-1.06867E-01 4.65939E+00-2.81905E+01-4.49824E+01



 n o d a l   p r i n t   o u t   f o r   t i m e  s t e p     401                              ( at time 1.9997999E-01 )

 nodal point  x-rot      y-rot       z-rot       x-rot vel   y-rot vel   z-rot vel   x-rot acc   y-rot acc   z-rot acc
    22626 -2.82011E-06-3.37251E-07-3.34670E-07-3.94032E-05-1.75835E-06-2.28613E-06-3.35370E-04-7.88475E-06-1.35916E-05



 n o d a l   p r i n t   o u t   f o r   t i m e  s t e p     601                              ( at time 2.9996998E-01 )

 nodal point  x-disp     y-disp      z-disp      x-vel       y-vel       z-vel      x-accl      y-accl      z-accl      x-coor      y-coor      z-coor
    22626  2.73596E-05 1.24007E-03-2.33841E-03 4.22752E-04 8.44964E-03-1.92567E-02 3.92526E-03 6.39083E-03-7.10366E-02 4.65940E+00-2.81896E+01-4.49841E+01



 n o d a l   p r i n t   o u t   f o r   t i m e  s t e p     601                              ( at time 2.9996998E-01 )

 nodal point  x-rot      y-rot       z-rot       x-rot vel   y-rot vel   z-rot vel   x-rot acc   y-rot acc   z-rot acc
    22626 -5.38438E-06-3.90861E-07-6.42457E-07-1.54593E-05-5.51070E-06-6.71719E-06 2.39463E-04-3.75273E-05-4.43150E-05



 n o d a l   p r i n t   o u t   f o r   t i m e  s t e p     801                              ( at time 3.9995997E-01 )

 nodal point  x-disp     y-disp      z-disp      x-vel       y-vel       z-vel      x-accl      y-accl      z-accl      x-coor      y-coor      z-coor
    22626  2.60739E-05 2.16211E-03-4.28259E-03-3.13892E-04 1.07337E-02-2.10771E-02-7.36718E-03 2.28424E-02-1.82052E-02 4.65940E+00-2.81887E+01-4.49860E+01



 n o d a l   p r i n t   o u t   f o r   t i m e  s t e p     801                              ( at time 3.9995997E-01 )

 nodal point  x-rot      y-rot       z-rot       x-rot vel   y-rot vel   z-rot vel   x-rot acc   y-rot acc   z-rot acc
    22626 -7.62018E-06-1.25079E-06-9.81741E-07-4.49190E-05-6.22386E-06-1.48204E-06-2.94627E-04-7.13233E-06 5.23567E-05



 n o d a l   p r i n t   o u t   f o r   t i m e  s t e p    1001                              ( at time 4.9994997E-01 )

 nodal point  x-disp     y-disp      z-disp      x-vel       y-vel       z-vel      x-accl      y-accl      z-accl      x-coor      y-coor      z-coor
    22626  3.83491E-06 3.43523E-03-6.74336E-03-2.38846E-04 1.41390E-02-2.86905E-02 7.50537E-04 3.40566E-02-7.61419E-02 4.65938E+00-2.81874E+01-4.49885E+01



 n o d a l   p r i n t   o u t   f o r   t i m e  s t e p    1001                              ( at time 4.9994997E-01 )

 nodal point  x-rot      y-rot       z-rot       x-rot vel   y-rot vel   z-rot vel   x-rot acc   y-rot acc   z-rot acc
    22626 -1.35808E-05-1.16916E-06-9.50896E-07-8.44811E-05 3.12314E-06 4.10743E-06-3.95660E-04 9.34794E-05 5.59003E-05



 n o d a l   p r i n t   o u t   f o r   t i m e  s t e p    1201                              ( at time 5.9993996E-01 )

 nodal point  x-disp     y-disp      z-disp      x-vel       y-vel       z-vel      x-accl      y-accl      z-accl      x-coor      y-coor      z-coor
    22626 -6.25790E-07 5.00946E-03-9.71230E-03 4.67120E-05 1.66809E-02-3.09595E-02 2.85586E-03 2.54221E-02-2.26927E-02 4.65937E+00-2.81858E+01-4.49914E+01



 n o d a l   p r i n t   o u t   f o r   t i m e  s t e p    1201                              ( at time 5.9993996E-01 )

 nodal point  x-rot      y-rot       z-rot       x-rot vel   y-rot vel   z-rot vel   x-rot acc   y-rot acc   z-rot acc
    22626 -2.03417E-05-8.96793E-07-9.62812E-07-5.94657E-05 3.80555E-06-2.04438E-06 2.50178E-04 6.82476E-06-6.15243E-05



 n o d a l   p r i n t   o u t   f o r   t i m e  s t e p    1401                              ( at time 6.9992995E-01 )

 nodal point  x-disp     y-disp      z-disp      x-vel       y-vel       z-vel      x-accl      y-accl      z-accl      x-coor      y-coor      z-coor
    22626 -5.05644E-05 6.84507E-03-1.31636E-02-4.86113E-04 1.96311E-02-3.89207E-02-5.32879E-03 2.95051E-02-7.96192E-02 4.65932E+00-2.81840E+01-4.49949E+01



 n o d a l   p r i n t   o u t   f o r   t i m e  s t e p    1401                              ( at time 6.9992995E-01 )

 nodal point  x-rot      y-rot       z-rot       x-rot vel   y-rot vel   z-rot vel   x-rot acc   y-rot acc   z-rot acc
    22626 -2.63072E-05-9.20082E-07-6.42981E-07-7.13738E-05 2.07666E-07 3.76664E-06-1.19092E-04-3.59825E-05 5.81160E-05



 n o d a l   p r i n t   o u t   f o r   t i m e  s t e p    1601                              ( at time 7.9991994E-01 )

 nodal point  x-disp     y-disp      z-disp      x-vel       y-vel       z-vel      x-accl      y-accl      z-accl      x-coor      y-coor      z-coor
    22626 -7.95002E-05 8.97765E-03-1.74516E-02-4.93105E-04 2.21196E-02-4.50569E-02-6.99237E-05 2.48874E-02-6.13683E-02 4.65930E+00-2.81819E+01-4.49992E+01



 n o d a l   p r i n t   o u t   f o r   t i m e  s t e p    1601                              ( at time 7.9991994E-01 )

 nodal point  x-rot      y-rot       z-rot       x-rot vel   y-rot vel   z-rot vel   x-rot acc   y-rot acc   z-rot acc
    22626 -3.45680E-05-9.09828E-07-5.31355E-07-9.30601E-05-4.98843E-06 1.58274E-06-2.16885E-04-5.19662E-05-2.18411E-05



 n o d a l   p r i n t   o u t   f o r   t i m e  s t e p    1801                              ( at time 8.9990994E-01 )

 nodal point  x-disp     y-disp      z-disp      x-vel       y-vel       z-vel      x-accl      y-accl      z-accl      x-coor      y-coor      z-coor
    22626 -1.15289E-04 1.13054E-02-2.19944E-02-2.81168E-04 2.61862E-02-4.62295E-02 2.11958E-03 4.06698E-02-1.17269E-02 4.65926E+00-2.81795E+01-4.50037E+01



 n o d a l   p r i n t   o u t   f o r   t i m e  s t e p    1801                              ( at time 8.9990994E-01 )

 nodal point  x-rot      y-rot       z-rot       x-rot vel   y-rot vel   z-rot vel   x-rot acc   y-rot acc   z-rot acc
    22626 -4.30756E-05-1.00173E-06-5.35617E-07-9.25356E-05 1.77499E-06-8.13677E-07 5.24569E-06 6.76410E-05-2.39666E-05



 n o d a l   p r i n t   o u t   f o r   t i m e  s t e p    2001                              ( at time 9.9989993E-01 )

 nodal point  x-disp     y-disp      z-disp      x-vel       y-vel       z-vel      x-accl      y-accl      z-accl      x-coor      y-coor      z-coor
    22626 -1.49684E-04 1.42390E-02-2.68321E-02-6.22284E-05 3.23928E-02-5.13255E-02 2.18962E-03 6.20726E-02-5.09660E-02 4.65923E+00-2.81766E+01-4.50086E+01



 n o d a l   p r i n t   o u t   f o r   t i m e  s t e p    2001                              ( at time 9.9989993E-01 )

 nodal point  x-rot      y-rot       z-rot       x-rot vel   y-rot vel   z-rot vel   x-rot acc   y-rot acc   z-rot acc
    22626 -5.35760E-05-9.96110E-07-4.46020E-07-1.30587E-04 8.62462E-08-3.25426E-06-3.80557E-04-1.68891E-05-2.44083E-05



 n o d a l   p r i n t   o u t   f o r   t i m e  s t e p    2201                              ( at time 1.0998899E+00 )

 nodal point  x-disp     y-disp      z-disp      x-vel       y-vel       z-vel      x-accl      y-accl      z-accl      x-coor      y-coor      z-coor
    22626 -1.53603E-04 1.79218E-02-3.23292E-02-2.26228E-04 4.19590E-02-5.82517E-02-1.64016E-03 9.56711E-02-6.92689E-02 4.65922E+00-2.81729E+01-4.50140E+01



 n o d a l   p r i n t   o u t   f o r   t i m e  s t e p    2201                              ( at time 1.0998899E+00 )

 nodal point  x-rot      y-rot       z-rot       x-rot vel   y-rot vel   z-rot vel   x-rot acc   y-rot acc   z-rot acc
    22626 -6.87173E-05-1.13345E-06-7.75187E-07-1.64593E-04-7.50595E-06-8.26634E-07-3.40088E-04-7.59296E-05 2.42787E-05



 n o d a l   p r i n t   o u t   f o r   t i m e  s t e p    2401                              ( at time 1.1998799E+00 )

 nodal point  x-disp     y-disp      z-disp      x-vel       y-vel       z-vel      x-accl      y-accl      z-accl      x-coor      y-coor      z-coor
    22626 -1.61867E-04 2.26623E-02-3.84787E-02 7.12508E-05 5.36975E-02-6.42775E-02 2.97509E-03 1.17397E-01-6.02638E-02 4.65921E+00-2.81682E+01-4.50202E+01



 n o d a l   p r i n t   o u t   f o r   t i m e  s t e p    2401                              ( at time 1.1998799E+00 )

 nodal point  x-rot      y-rot       z-rot       x-rot vel   y-rot vel   z-rot vel   x-rot acc   y-rot acc   z-rot acc
    22626 -8.74230E-05-1.52858E-06-7.30423E-07-2.20824E-04-3.42547E-06 5.85036E-07-5.62363E-04 4.08089E-05 1.41181E-05



 n o d a l   p r i n t   o u t   f o r   t i m e  s t e p    2601                              ( at time 1.2998699E+00 )

 nodal point  x-disp     y-disp      z-disp      x-vel       y-vel       z-vel      x-accl      y-accl      z-accl      x-coor      y-coor      z-coor
    22626 -1.84120E-04 2.87726E-02-4.51405E-02-2.48193E-04 6.91272E-02-6.85105E-02-3.19476E-03 1.54312E-01-4.23339E-02 4.65919E+00-2.81621E+01-4.50269E+01



 n o d a l   p r i n t   o u t   f o r   t i m e  s t e p    2601                              ( at time 1.2998699E+00 )

 nodal point  x-rot      y-rot       z-rot       x-rot vel   y-rot vel   z-rot vel   x-rot acc   y-rot acc   z-rot acc
    22626 -1.13375E-04-1.94338E-06-1.10012E-06-3.18263E-04-2.62496E-07-5.77615E-06-9.74493E-04 3.16329E-05-6.36182E-05



 n o d a l   p r i n t   o u t   f o r   t i m e  s t e p    2801                              ( at time 1.3998599E+00 )

 nodal point  x-disp     y-disp      z-disp      x-vel       y-vel       z-vel      x-accl      y-accl      z-accl      x-coor      y-coor      z-coor
    22626 -2.28041E-04 3.65417E-02-5.21963E-02-6.76713E-04 8.67113E-02-7.30005E-02-4.28563E-03 1.75858E-01-4.49048E-02 4.65915E+00-2.81543E+01-4.50339E+01



 n o d a l   p r i n t   o u t   f o r   t i m e  s t e p    2801                              ( at time 1.3998599E+00 )

 nodal point  x-rot      y-rot       z-rot       x-rot vel   y-rot vel   z-rot vel   x-rot acc   y-rot acc   z-rot acc
    22626 -1.49555E-04-1.96779E-06-1.68809E-06-4.23016E-04-4.46706E-06-4.46820E-06-1.04764E-03-4.20499E-05 1.30808E-05



 n o d a l   p r i n t   o u t   f o r   t i m e  s t e p    3001                              ( at time 1.4998499E+00 )

 nodal point  x-disp     y-disp      z-disp      x-vel       y-vel       z-vel      x-accl      y-accl      z-accl      x-coor      y-coor      z-coor
    22626 -2.86787E-04 4.62010E-02-5.98656E-02-8.02175E-04 1.07913E-01-8.20452E-02-1.25475E-03 2.12039E-01-9.04557E-02 4.65909E+00-2.81446E+01-4.50416E+01



 n o d a l   p r i n t   o u t   f o r   t i m e  s t e p    3001                              ( at time 1.4998499E+00 )

 nodal point  x-rot      y-rot       z-rot       x-rot vel   y-rot vel   z-rot vel   x-rot acc   y-rot acc   z-rot acc
    22626 -1.94637E-04-2.40661E-06-2.84531E-06-5.09154E-04-4.48483E-06-1.93586E-05-8.61461E-04-1.77697E-07-1.48919E-04



 n o d a l   p r i n t   o u t   f o r   t i m e  s t e p    3201                              ( at time 1.5998399E+00 )

 nodal point  x-disp     y-disp      z-disp      x-vel       y-vel       z-vel      x-accl      y-accl      z-accl      x-coor      y-coor      z-coor
    22626 -3.97080E-04 5.82803E-02-6.85188E-02-1.20349E-03 1.32961E-01-8.94630E-02-4.01358E-03 2.50503E-01-7.41859E-02 4.65898E+00-2.81325E+01-4.50502E+01



 n o d a l   p r i n t   o u t   f o r   t i m e  s t e p    3201                              ( at time 1.5998399E+00 )

 nodal point  x-rot      y-rot       z-rot       x-rot vel   y-rot vel   z-rot vel   x-rot acc   y-rot acc   z-rot acc
    22626 -2.50378E-04-2.62992E-06-4.33331E-06-6.24093E-04-2.77378E-06-1.69497E-05-1.14950E-03 1.71122E-05 2.40919E-05



 n o d a l   p r i n t   o u t   f o r   t i m e  s t e p    3401                              ( at time 1.6998299E+00 )

 nodal point  x-disp     y-disp      z-disp      x-vel       y-vel       z-vel      x-accl      y-accl      z-accl      x-coor      y-coor      z-coor
    22626 -5.02119E-04 7.28209E-02-7.76882E-02-1.59348E-03 1.56194E-01-9.19996E-02-3.90022E-03 2.32357E-01-2.53680E-02 4.65887E+00-2.81180E+01-4.50594E+01



 n o d a l   p r i n t   o u t   f o r   t i m e  s t e p    3401                              ( at time 1.6998299E+00 )

 nodal point  x-rot      y-rot       z-rot       x-rot vel   y-rot vel   z-rot vel   x-rot acc   y-rot acc   z-rot acc
    22626 -3.21730E-04-3.09170E-06-5.89200E-06-7.70748E-04 7.92613E-07-5.53879E-06-1.46670E-03 3.56675E-05 1.14120E-04



 n o d a l   p r i n t   o u t   f o r   t i m e  s t e p    3601                              ( at time 1.7998199E+00 )

 nodal point  x-disp     y-disp      z-disp      x-vel       y-vel       z-vel      x-accl      y-accl      z-accl      x-coor      y-coor      z-coor
    22626 -6.12847E-04 8.97317E-02-8.72635E-02-8.54107E-04 1.84517E-01-9.82626E-02 7.39443E-03 2.83261E-01-6.26369E-02 4.65876E+00-2.81011E+01-4.50690E+01



 n o d a l   p r i n t   o u t   f o r   t i m e  s t e p    3601                              ( at time 1.7998199E+00 )

 nodal point  x-rot      y-rot       z-rot       x-rot vel   y-rot vel   z-rot vel   x-rot acc   y-rot acc   z-rot acc
    22626 -4.07464E-04-3.56608E-06-7.08770E-06-9.37854E-04-3.90958E-06-9.01258E-06-1.67123E-03-4.70267E-05-3.47414E-05



 n o d a l   p r i n t   o u t   f o r   t i m e  s t e p    3801                              ( at time 1.8998099E+00 )

 nodal point  x-disp     y-disp      z-disp      x-vel       y-vel       z-vel      x-accl      y-accl      z-accl      x-coor      y-coor      z-coor
    22626 -7.78250E-04 1.09488E-01-9.72576E-02-2.10465E-03 2.11080E-01-1.01512E-01-1.25067E-02 2.65652E-01-3.24966E-02 4.65860E+00-2.80813E+01-4.50790E+01



 n o d a l   p r i n t   o u t   f o r   t i m e  s t e p    3801                              ( at time 1.8998099E+00 )

 nodal point  x-rot      y-rot       z-rot       x-rot vel   y-rot vel   z-rot vel   x-rot acc   y-rot acc   z-rot acc
    22626 -5.08835E-04-4.56120E-06-9.43196E-06-1.13757E-03-3.47759E-06-3.70985E-05-1.99737E-03 4.32035E-06-2.80887E-04



 n o d a l   p r i n t   o u t   f o r   t i m e  s t e p    4001                              ( at time 1.9997999E+00 )

 nodal point  x-disp     y-disp      z-disp      x-vel       y-vel       z-vel      x-accl      y-accl      z-accl      x-coor      y-coor      z-coor
    22626 -9.78487E-04 1.32018E-01-1.07512E-01-2.40756E-03 2.39724E-01-1.05134E-01-3.02940E-03 2.86473E-01-3.62210E-02 4.65840E+00-2.80588E+01-4.50892E+01



 n o d a l   p r i n t   o u t   f o r   t i m e  s t e p    4001                              ( at time 1.9997999E+00 )

 nodal point  x-rot      y-rot       z-rot       x-rot vel   y-rot vel   z-rot vel   x-rot acc   y-rot acc   z-rot acc
    22626 -6.29647E-04-5.73270E-06-1.27802E-05-1.38567E-03-1.40990E-05-2.03346E-05-2.48122E-03-1.06225E-04 1.67656E-04



 n o d a l   p r i n t   o u t   f o r   t i m e  s t e p    4201                              ( at time 2.0997899E+00 )

 nodal point  x-disp     y-disp      z-disp      x-vel       y-vel       z-vel      x-accl      y-accl      z-accl      x-coor      y-coor      z-coor
    22626 -1.17995E-03 1.57453E-01-1.17926E-01-2.38858E-03 2.67865E-01-1.04143E-01 1.89839E-04 2.81440E-01 9.90929E-03 4.65820E+00-2.80334E+01-4.50996E+01



 n o d a l   p r i n t   o u t   f o r   t i m e  s t e p    4201                              ( at time 2.0997899E+00 )

 nodal point  x-rot      y-rot       z-rot       x-rot vel   y-rot vel   z-rot vel   x-rot acc   y-rot acc   z-rot acc
    22626 -7.71943E-04-7.62847E-06-1.63652E-05-1.58608E-03-1.59408E-05-3.24778E-05-2.00432E-03-1.84198E-05-1.21444E-04



 n o d a l   p r i n t   o u t   f o r   t i m e  s t e p    4401                              ( at time 2.1997798E+00 )

 nodal point  x-disp     y-disp      z-disp      x-vel       y-vel       z-vel      x-accl      y-accl      z-accl      x-coor      y-coor      z-coor
    22626 -1.46129E-03 1.85657E-01-1.28298E-01-3.03419E-03 2.96719E-01-1.03212E-01-6.45679E-03 2.88568E-01 9.30701E-03 4.65791E+00-2.80052E+01-4.51100E+01



 n o d a l   p r i n t   o u t   f o r   t i m e  s t e p    4401                              ( at time 2.1997798E+00 )

 nodal point  x-rot      y-rot       z-rot       x-rot vel   y-rot vel   z-rot vel   x-rot acc   y-rot acc   z-rot acc
    22626 -9.34762E-04-1.01471E-05-2.14953E-05-1.76917E-03-2.82003E-05-5.90715E-05-1.83107E-03-1.22607E-04-2.65965E-04



 n o d a l   p r i n t   o u t   f o r   t i m e  s t e p    4601                              ( at time 2.2997698E+00 )

 nodal point  x-disp     y-disp      z-disp      x-vel       y-vel       z-vel      x-accl      y-accl      z-accl      x-coor      y-coor      z-coor
    22626 -1.83660E-03 2.16633E-01-1.38615E-01-4.38157E-03 3.27137E-01-1.00172E-01-1.34751E-02 3.04210E-01 3.04010E-02 4.65754E+00-2.79742E+01-4.51203E+01



 n o d a l   p r i n t   o u t   f o r   t i m e  s t e p    4601                              ( at time 2.2997698E+00 )

 nodal point  x-rot      y-rot       z-rot       x-rot vel   y-rot vel   z-rot vel   x-rot acc   y-rot acc   z-rot acc
    22626 -1.12251E-03-1.29606E-05-2.85817E-05-2.01971E-03-3.74673E-05-7.54599E-05-2.50565E-03-9.26789E-05-1.63900E-04



 n o d a l   p r i n t   o u t   f o r   t i m e  s t e p    4801                              ( at time 2.3997598E+00 )

 nodal point  x-disp     y-disp      z-disp      x-vel       y-vel       z-vel      x-accl      y-accl      z-accl      x-coor      y-coor      z-coor
    22626 -2.28419E-03 2.50776E-01-1.48761E-01-4.45973E-03 3.57529E-01-1.00321E-01-7.81677E-04 3.03951E-01-1.48587E-03 4.65709E+00-2.79401E+01-4.51305E+01



 n o d a l   p r i n t   o u t   f o r   t i m e  s t e p    4801                              ( at time 2.3997598E+00 )

 nodal point  x-rot      y-rot       z-rot       x-rot vel   y-rot vel   z-rot vel   x-rot acc   y-rot acc   z-rot acc
    22626 -1.33595E-03-1.63944E-05-3.61612E-05-2.25290E-03-3.31223E-05-7.10990E-05-2.33210E-03 4.34544E-05 4.36141E-05



 n o d a l   p r i n t   o u t   f o r   t i m e  s t e p    5001                              ( at time 2.4997498E+00 )

 nodal point  x-disp     y-disp      z-disp      x-vel       y-vel       z-vel      x-accl      y-accl      z-accl      x-coor      y-coor      z-coor
    22626 -2.78066E-03 2.88141E-01-1.59019E-01-5.71985E-03 3.91050E-01-1.00388E-01-1.26025E-02 3.35241E-01-6.69054E-04 4.65659E+00-2.79027E+01-4.51407E+01



 n o d a l   p r i n t   o u t   f o r   t i m e  s t e p    5001                              ( at time 2.4997498E+00 )

 nodal point  x-rot      y-rot       z-rot       x-rot vel   y-rot vel   z-rot vel   x-rot acc   y-rot acc   z-rot acc
    22626 -1.57373E-03-1.99522E-05-4.43823E-05-2.54333E-03-4.12888E-05-9.76538E-05-2.90462E-03-8.16727E-05-2.65575E-04



 n o d a l   p r i n t   o u t   f o r   t i m e  s t e p    5201                              ( at time 2.5997398E+00 )

 nodal point  x-disp     y-disp      z-disp      x-vel       y-vel       z-vel      x-accl      y-accl      z-accl      x-coor      y-coor      z-coor
    22626 -3.35889E-03 3.28705E-01-1.68734E-01-6.37539E-03 4.23046E-01-9.43328E-02-6.55609E-03 3.19996E-01 6.05578E-02 4.65602E+00-2.78621E+01-4.51505E+01



 n o d a l   p r i n t   o u t   f o r   t i m e  s t e p    5201                              ( at time 2.5997398E+00 )

 nodal point  x-rot      y-rot       z-rot       x-rot vel   y-rot vel   z-rot vel   x-rot acc   y-rot acc   z-rot acc
    22626 -1.83939E-03-2.41049E-05-5.43206E-05-2.83677E-03-4.02314E-05-9.37108E-05-2.93467E-03 1.05747E-05 3.94342E-05



 n o d a l   p r i n t   o u t   f o r   t i m e  s t e p    5401                              ( at time 2.6997298E+00 )

 nodal point  x-disp     y-disp      z-disp      x-vel       y-vel       z-vel      x-accl      y-accl      z-accl      x-coor      y-coor      z-coor
    22626 -4.02846E-03 3.72730E-01-1.77958E-01-5.92121E-03 4.56949E-01-8.94755E-02 4.54231E-03 3.39056E-01 4.85774E-02 4.65535E+00-2.78181E+01-4.51597E+01



 n o d a l   p r i n t   o u t   f o r   t i m e  s t e p    5401                              ( at time 2.6997298E+00 )

 nodal point  x-rot      y-rot       z-rot       x-rot vel   y-rot vel   z-rot vel   x-rot acc   y-rot acc   z-rot acc
    22626 -2.13528E-03-2.79883E-05-6.43581E-05-3.14155E-03-3.02602E-05-1.24443E-04-3.04817E-03 9.97222E-05-3.07356E-04



 n o d a l   p r i n t   o u t   f o r   t i m e  s t e p    5601                              ( at time 2.7997198E+00 )

 nodal point  x-disp     y-disp      z-disp      x-vel       y-vel       z-vel      x-accl      y-accl      z-accl      x-coor      y-coor      z-coor
    22626 -4.69710E-03 4.20374E-01-1.86599E-01-7.55453E-03 4.96303E-01-8.36233E-02-1.63349E-02 3.93582E-01 5.85282E-02 4.65468E+00-2.77705E+01-4.51683E+01



 n o d a l   p r i n t   o u t   f o r   t i m e  s t e p    5601                              ( at time 2.7997198E+00 )

 nodal point  x-rot      y-rot       z-rot       x-rot vel   y-rot vel   z-rot vel   x-rot acc   y-rot acc   z-rot acc
    22626 -2.46386E-03-3.23492E-05-7.61472E-05-3.46757E-03-5.35365E-05-1.22968E-04-3.26054E-03-2.32787E-04 1.47595E-05



 n o d a l   p r i n t   o u t   f o r   t i m e  s t e p    5801                              ( at time 2.8997098E+00 )

 nodal point  x-disp     y-disp      z-disp      x-vel       y-vel       z-vel      x-accl      y-accl      z-accl      x-coor      y-coor      z-coor
    22626 -5.44901E-03 4.71828E-01-1.94787E-01-7.59815E-03 5.34800E-01-7.96266E-02-4.36238E-04 3.85015E-01 3.99707E-02 4.65393E+00-2.77190E+01-4.51765E+01



 n o d a l   p r i n t   o u t   f o r   t i m e  s t e p    5801                              ( at time 2.8997098E+00 )

 nodal point  x-rot      y-rot       z-rot       x-rot vel   y-rot vel   z-rot vel   x-rot acc   y-rot acc   z-rot acc
    22626 -2.82314E-03-3.74669E-05-9.00242E-05-3.78865E-03-6.51461E-05-1.36750E-04-3.21110E-03-1.16108E-04-1.37839E-04



 n o d a l   p r i n t   o u t   f o r   t i m e  s t e p    6001                              ( at time 2.9996998E+00 )

 nodal point  x-disp     y-disp      z-disp      x-vel       y-vel       z-vel      x-accl      y-accl      z-accl      x-coor      y-coor      z-coor
    22626 -6.26692E-03 5.27192E-01-2.02269E-01-7.20512E-03 5.73442E-01-6.97850E-02 3.93075E-03 3.86452E-01 9.84264E-02 4.65311E+00-2.76636E+01-4.51840E+01



 n o d a l   p r i n t   o u t   f o r   t i m e  s t e p    6001                              ( at time 2.9996998E+00 )

 nodal point  x-rot      y-rot       z-rot       x-rot vel   y-rot vel   z-rot vel   x-rot acc   y-rot acc   z-rot acc
    22626 -3.21778E-03-4.34332E-05-1.04364E-04-4.16749E-03-5.31669E-05-1.53561E-04-3.78873E-03 1.19804E-04-1.68125E-04



 n o d a l   p r i n t   o u t   f o r   t i m e  s t e p    6201                              ( at time 3.0996898E+00 )

 nodal point  x-disp     y-disp      z-disp      x-vel       y-vel       z-vel      x-accl      y-accl      z-accl      x-coor      y-coor      z-coor
    22626 -7.08308E-03 5.86621E-01-2.08757E-01-8.65506E-03 6.14552E-01-6.16818E-02-1.45009E-02 4.11147E-01 8.10395E-02 4.65229E+00-2.76042E+01-4.51905E+01



 n o d a l   p r i n t   o u t   f o r   t i m e  s t e p    6201                              ( at time 3.0996898E+00 )

 nodal point  x-rot      y-rot       z-rot       x-rot vel   y-rot vel   z-rot vel   x-rot acc   y-rot acc   z-rot acc
    22626 -3.64961E-03-4.85441E-05-1.19520E-04-4.52089E-03-6.00987E-05-1.60210E-04-3.53435E-03-6.93245E-05-6.64995E-05



 n o d a l   p r i n t   o u t   f o r   t i m e  s t e p    6401                              ( at time 3.1996798E+00 )

 nodal point  x-disp     y-disp      z-disp      x-vel       y-vel       z-vel      x-accl      y-accl      z-accl      x-coor      y-coor      z-coor
    22626 -7.92896E-03 6.50200E-01-2.14541E-01-9.16393E-03 6.57865E-01-5.36401E-02-5.08925E-03 4.33169E-01 8.04247E-02 4.65145E+00-2.75406E+01-4.51963E+01



 n o d a l   p r i n t   o u t   f o r   t i m e  s t e p    6401                              ( at time 3.1996798E+00 )

 nodal point  x-rot      y-rot       z-rot       x-rot vel   y-rot vel   z-rot vel   x-rot acc   y-rot acc   z-rot acc
    22626 -4.11631E-03-5.41459E-05-1.35841E-04-4.86565E-03-5.98645E-05-1.55284E-04-3.44794E-03 2.34167E-06 4.92644E-05



 n o d a l   p r i n t   o u t   f o r   t i m e  s t e p    6601                              ( at time 3.2996698E+00 )

 nodal point  x-disp     y-disp      z-disp      x-vel       y-vel       z-vel      x-accl      y-accl      z-accl      x-coor      y-coor      z-coor
    22626 -8.84169E-03 7.17739E-01-2.19400E-01-8.32966E-03 6.95204E-01-4.33202E-02 8.34359E-03 3.73432E-01 1.03210E-01 4.65053E+00-2.74731E+01-4.52011E+01



 n o d a l   p r i n t   o u t   f o r   t i m e  s t e p    6601                              ( at time 3.2996698E+00 )

 nodal point  x-rot      y-rot       z-rot       x-rot vel   y-rot vel   z-rot vel   x-rot acc   y-rot acc   z-rot acc
    22626 -4.61753E-03-5.87853E-05-1.50069E-04-5.13358E-03-2.99951E-05-1.25395E-04-2.67965E-03 2.98724E-04 2.98924E-04



 n o d a l   p r i n t   o u t   f o r   t i m e  s t e p    6801                              ( at time 3.3996598E+00 )

 nodal point  x-disp     y-disp      z-disp      x-vel       y-vel       z-vel      x-accl      y-accl      z-accl      x-coor      y-coor      z-coor
    22626 -9.51055E-03 7.89609E-01-2.23741E-01-6.52715E-03 7.38970E-01-3.84127E-02 1.80268E-02 4.37696E-01 4.90796E-02 4.64986E+00-2.74012E+01-4.52055E+01



 n o d a l   p r i n t   o u t   f o r   t i m e  s t e p    6801                              ( at time 3.3996598E+00 )

 nodal point  x-rot      y-rot       z-rot       x-rot vel   y-rot vel   z-rot vel   x-rot acc   y-rot acc   z-rot acc
    22626 -5.14983E-03-6.10094E-05-1.57648E-04-5.44787E-03-2.44952E-05-7.76012E-05-3.14317E-03 5.50046E-05 4.77985E-04



 n o d a l   p r i n t   o u t   f o r   t i m e  s t e p    7001                              ( at time 3.4996498E+00 )

 nodal point  x-disp     y-disp      z-disp      x-vel       y-vel       z-vel      x-accl      y-accl      z-accl      x-coor      y-coor      z-coor
    22626 -1.02712E-02 8.65573E-01-2.26949E-01-1.04803E-02 7.81233E-01-2.49198E-02-3.95356E-02 4.22679E-01 1.34942E-01 4.64910E+00-2.73253E+01-4.52087E+01



 n o d a l   p r i n t   o u t   f o r   t i m e  s t e p    7001                              ( at time 3.4996498E+00 )

 nodal point  x-rot      y-rot       z-rot       x-rot vel   y-rot vel   z-rot vel   x-rot acc   y-rot acc   z-rot acc
    22626 -5.71568E-03-6.45176E-05-1.68182E-04-5.81964E-03-4.53419E-05-1.40051E-04-3.71808E-03-2.08489E-04-6.24561E-04



 n o d a l   p r i n t   o u t   f o r   t i m e  s t e p    7201                              ( at time 3.5996397E+00 )

 nodal point  x-disp     y-disp      z-disp      x-vel       y-vel       z-vel      x-accl      y-accl      z-accl      x-coor      y-coor      z-coor
    22626 -1.11755E-02 9.45911E-01-2.28982E-01-6.69604E-03 8.23920E-01-1.74473E-02 3.78466E-02 4.26915E-01 7.47333E-02 4.64820E+00-2.72449E+01-4.52107E+01



 n o d a l   p r i n t   o u t   f o r   t i m e  s t e p    7201                              ( at time 3.5996397E+00 )

 nodal point  x-rot      y-rot       z-rot       x-rot vel   y-rot vel   z-rot vel   x-rot acc   y-rot acc   z-rot acc
    22626 -6.31406E-03-6.71034E-05-1.77678E-04-6.14329E-03-2.85517E-06-8.74975E-05-3.23679E-03 4.24911E-04 5.25588E-04



 n o d a l   p r i n t   o u t   f o r   t i m e  s t e p    7401                              ( at time 3.6996297E+00 )

 nodal point  x-disp     y-disp      z-disp      x-vel       y-vel       z-vel      x-accl      y-accl      z-accl      x-coor      y-coor      z-coor
    22626 -1.18191E-02 1.03055E+00-2.30092E-01-5.56630E-03 8.67120E-01-8.91492E-03 1.12985E-02 4.32039E-01 8.53318E-02 4.64756E+00-2.71603E+01-4.52118E+01



 n o d a l   p r i n t   o u t   f o r   t i m e  s t e p    7401                              ( at time 3.6996297E+00 )

 nodal point  x-rot      y-rot       z-rot       x-rot vel   y-rot vel   z-rot vel   x-rot acc   y-rot acc   z-rot acc
    22626 -6.94123E-03-6.76685E-05-1.84253E-04-6.43699E-03-1.55577E-05-6.46358E-05-2.93736E-03-1.27038E-04 2.28639E-04



 n o d a l   p r i n t   o u t   f o r   t i m e  s t e p    7601                              ( at time 3.7996197E+00 )

 nodal point  x-disp     y-disp      z-disp      x-vel       y-vel       z-vel      x-accl      y-accl      z-accl      x-coor      y-coor      z-coor
    22626 -1.25441E-02 1.11943E+00-2.30353E-01-8.44122E-03 9.08336E-01 1.47369E-03-2.87521E-02 4.12204E-01 1.03897E-01 4.64683E+00-2.70714E+01-4.52121E+01



 n o d a l   p r i n t   o u t   f o r   t i m e  s t e p    7601                              ( at time 3.7996197E+00 )

 nodal point  x-rot      y-rot       z-rot       x-rot vel   y-rot vel   z-rot vel   x-rot acc   y-rot acc   z-rot acc
    22626 -7.59529E-03-7.02895E-05-1.92785E-04-6.69981E-03-3.91500E-05-8.10076E-05-2.62841E-03-2.35947E-04-1.63735E-04



 n o d a l   p r i n t   o u t   f o r   t i m e  s t e p    7801                              ( at time 3.8996097E+00 )

 nodal point  x-disp     y-disp      z-disp      x-vel       y-vel       z-vel      x-accl      y-accl      z-accl      x-coor      y-coor      z-coor
    22626 -1.34018E-02 1.21257E+00-2.29515E-01-7.68855E-03 9.54476E-01 1.33423E-02 7.52747E-03 4.61446E-01 1.18698E-01 4.64597E+00-2.69783E+01-4.52112E+01



 n o d a l   p r i n t   o u t   f o r   t i m e  s t e p    7801                              ( at time 3.8996097E+00 )

 nodal point  x-rot      y-rot       z-rot       x-rot vel   y-rot vel   z-rot vel   x-rot acc   y-rot acc   z-rot acc
    22626 -8.27652E-03-7.37631E-05-2.02407E-04-6.94030E-03-1.44656E-05-8.32759E-05-2.40521E-03 2.46868E-04-2.26853E-05



 n o d a l   p r i n t   o u t   f o r   t i m e  s t e p    8001                              ( at time 3.9995997E+00 )

 nodal point  x-disp     y-disp      z-disp      x-vel       y-vel       z-vel      x-accl      y-accl      z-accl      x-coor      y-coor      z-coor
    22626 -1.41562E-02 1.30986E+00-2.27792E-01-7.14329E-03 9.93886E-01 2.19829E-02 5.45310E-03 3.94132E-01 8.64142E-02 4.64522E+00-2.68810E+01-4.52095E+01



 n o d a l   p r i n t   o u t   f o r   t i m e  s t e p    8001                              ( at time 3.9995997E+00 )

 nodal point  x-rot      y-rot       z-rot       x-rot vel   y-rot vel   z-rot vel   x-rot acc   y-rot acc   z-rot acc
    22626 -8.97882E-03-7.38304E-05-2.09982E-04-7.09281E-03-3.69453E-07-6.12388E-05-1.52521E-03 1.40976E-04 2.20393E-04



 n o d a l   p r i n t   o u t   f o r   t i m e  s t e p    8201                              ( at time 4.0995897E+00 )

 nodal point  x-disp     y-disp      z-disp      x-vel       y-vel       z-vel      x-accl      y-accl      z-accl      x-coor      y-coor      z-coor
    22626 -1.48737E-02 1.41126E+00-2.25141E-01-7.95814E-03 1.03496E+00 3.24385E-02-8.14926E-03 4.10756E-01 1.04566E-01 4.64450E+00-2.67796E+01-4.52069E+01



 n o d a l   p r i n t   o u t   f o r   t i m e  s t e p    8201                              ( at time 4.0995897E+00 )

 nodal point  x-rot      y-rot       z-rot       x-rot vel   y-rot vel   z-rot vel   x-rot acc   y-rot acc   z-rot acc
    22626 -9.69862E-03-7.54312E-05-2.17570E-04-7.28357E-03-3.44956E-05-8.57514E-05-1.90777E-03-3.41295E-04-2.45150E-04



 n o d a l   p r i n t   o u t   f o r   t i m e  s t e p    8401                              ( at time 4.1995797E+00 )

 nodal point  x-disp     y-disp      z-disp      x-vel       y-vel       z-vel      x-accl      y-accl      z-accl      x-coor      y-coor      z-coor
    22626 -1.57656E-02 1.51676E+00-2.21642E-01-9.49151E-03 1.07478E+00 3.94098E-02-1.53353E-02 3.98290E-01 6.97200E-02 4.64361E+00-2.66741E+01-4.52034E+01



 n o d a l   p r i n t   o u t   f o r   t i m e  s t e p    8401                              ( at time 4.1995797E+00 )

 nodal point  x-rot      y-rot       z-rot       x-rot vel   y-rot vel   z-rot vel   x-rot acc   y-rot acc   z-rot acc
    22626 -1.04371E-02-7.82257E-05-2.27020E-04-7.43274E-03 2.05438E-06-8.37249E-05-1.49191E-03 3.65537E-04 2.02672E-05



 n o d a l   p r i n t   o u t   f o r   t i m e  s t e p    8601                              ( at time 4.2995697E+00 )

 nodal point  x-disp     y-disp      z-disp      x-vel       y-vel       z-vel      x-accl      y-accl      z-accl      x-coor      y-coor      z-coor
    22626 -1.66472E-02 1.62626E+00-2.17285E-01-7.77001E-03 1.11574E+00 4.86450E-02 1.72168E-02 4.09609E-01 9.23616E-02 4.64273E+00-2.65646E+01-4.51990E+01



 n o d a l   p r i n t   o u t   f o r   t i m e  s t e p    8601                              ( at time 4.2995697E+00 )

 nodal point  x-rot      y-rot       z-rot       x-rot vel   y-rot vel   z-rot vel   x-rot acc   y-rot acc   z-rot acc
    22626 -1.11880E-02-7.81956E-05-2.34639E-04-7.56488E-03 2.70348E-06-5.46559E-05-1.32154E-03 6.49160E-06 2.90719E-04



 n o d a l   p r i n t   o u t   f o r   t i m e  s t e p    8801                              ( at time 4.3995597E+00 )

 nodal point  x-disp     y-disp      z-disp      x-vel       y-vel       z-vel      x-accl      y-accl      z-accl      x-coor      y-coor      z-coor
    22626 -1.73763E-02 1.73979E+00-2.11940E-01-6.97788E-03 1.15412E+00 5.75268E-02 7.92203E-03 3.83884E-01 8.88271E-02 4.64200E+00-2.64510E+01-4.51937E+01



 n o d a l   p r i n t   o u t   f o r   t i m e  s t e p    8801                              ( at time 4.3995597E+00 )

 nodal point  x-rot      y-rot       z-rot       x-rot vel   y-rot vel   z-rot vel   x-rot acc   y-rot acc   z-rot acc
    22626 -1.19509E-02-7.75165E-05-2.40406E-04-7.65828E-03 1.63114E-06-6.78328E-05-9.34011E-04-1.07244E-05-1.31782E-04



 n o d a l   p r i n t   o u t   f o r   t i m e  s t e p    9001                              ( at time 4.4995497E+00 )

 nodal point  x-disp     y-disp      z-disp      x-vel       y-vel       z-vel      x-accl      y-accl      z-accl      x-coor      y-coor      z-coor
    22626 -1.81706E-02 1.85738E+00-2.05911E-01-8.76161E-03 1.19547E+00 6.34625E-02-1.78390E-02 4.13465E-01 5.93630E-02 4.64120E+00-2.63334E+01-4.51876E+01



 n o d a l   p r i n t   o u t   f o r   t i m e  s t e p    9001                              ( at time 4.4995497E+00 )

 nodal point  x-rot      y-rot       z-rot       x-rot vel   y-rot vel   z-rot vel   x-rot acc   y-rot acc   z-rot acc
    22626 -1.27214E-02-7.90004E-05-2.48570E-04-7.74044E-03-2.31830E-05-8.24453E-05-8.21748E-04-2.48165E-04-1.46139E-04



 n o d a l   p r i n t   o u t   f o r   t i m e  s t e p    9201                              ( at time 4.5995397E+00 )

 nodal point  x-disp     y-disp      z-disp      x-vel       y-vel       z-vel      x-accl      y-accl      z-accl      x-coor      y-coor      z-coor
    22626 -1.90726E-02 1.97889E+00-1.98995E-01-7.54795E-03 1.23452E+00 7.34320E-02 1.21378E-02 3.90555E-01 9.97044E-02 4.64030E+00-2.62119E+01-4.51807E+01



 n o d a l   p r i n t   o u t   f o r   t i m e  s t e p    9201                              ( at time 4.5995397E+00 )

 nodal point  x-rot      y-rot       z-rot       x-rot vel   y-rot vel   z-rot vel   x-rot acc   y-rot acc   z-rot acc
    22626 -1.34976E-02-7.94265E-05-2.55224E-04-7.81121E-03 1.13899E-05-5.41080E-05-7.07704E-04 3.45764E-04 2.83402E-04



 n o d a l   p r i n t   o u t   f o r   t i m e  s t e p    9401                              ( at time 4.6995297E+00 )

 nodal point  x-disp     y-disp      z-disp      x-vel       y-vel       z-vel      x-accl      y-accl      z-accl      x-coor      y-coor      z-coor
    22626 -1.97074E-02 2.10436E+00-1.91353E-01-5.50560E-03 1.27542E+00 7.75703E-02 2.04256E-02 4.09104E-01 4.13873E-02 4.63967E+00-2.60865E+01-4.51731E+01



 n o d a l   p r i n t   o u t   f o r   t i m e  s t e p    9401                              ( at time 4.6995297E+00 )

 nodal point  x-rot      y-rot       z-rot       x-rot vel   y-rot vel   z-rot vel   x-rot acc   y-rot acc   z-rot acc
    22626 -1.42769E-02-7.75041E-05-2.61068E-04-7.81314E-03 9.01933E-07-7.17985E-05-1.93316E-05-1.04890E-04-1.76923E-04



 n o d a l   p r i n t   o u t   f o r   t i m e  s t e p    9601                              ( at time 4.7995197E+00 )

 nodal point  x-disp     y-disp      z-disp      x-vel       y-vel       z-vel      x-accl      y-accl      z-accl      x-coor      y-coor      z-coor
    22626 -2.04134E-02 2.23386E+00-1.83140E-01-8.35815E-03 1.31489E+00 8.83072E-02-2.85284E-02 3.94744E-01 1.07380E-01 4.63896E+00-2.59570E+01-4.51649E+01



 n o d a l   p r i n t   o u t   f o r   t i m e  s t e p    9601                              ( at time 4.7995197E+00 )

 nodal point  x-rot      y-rot       z-rot       x-rot vel   y-rot vel   z-rot vel   x-rot acc   y-rot acc   z-rot acc
    22626 -1.50556E-02-7.85014E-05-2.66636E-04-7.78739E-03-2.55930E-05-5.47912E-05 2.57523E-04-2.64976E-04 1.70091E-04



 n o d a l   p r i n t   o u t   f o r   t i m e  s t e p    9801                              ( at time 4.8995097E+00 )

 nodal point  x-disp     y-disp      z-disp      x-vel       y-vel       z-vel      x-accl      y-accl      z-accl      x-coor      y-coor      z-coor
    22626 -2.11447E-02 2.36719E+00-1.73962E-01-5.87025E-03 1.35421E+00 9.50234E-02 2.48816E-02 3.93212E-01 6.71693E-02 4.63823E+00-2.58236E+01-4.51557E+01



 n o d a l   p r i n t   o u t   f o r   t i m e  s t e p    9801                              ( at time 4.8995097E+00 )

 nodal point  x-rot      y-rot       z-rot       x-rot vel   y-rot vel   z-rot vel   x-rot acc   y-rot acc   z-rot acc
    22626 -1.58315E-02-7.81090E-05-2.71122E-04-7.73062E-03 1.85607E-05-4.59365E-05 5.67717E-04 4.41582E-04 8.85558E-05



 n o d a l   p r i n t   o u t   f o r   t i m e  s t e p   10001                              ( at time 4.9994997E+00 )

 nodal point  x-disp     y-disp      z-disp      x-vel       y-vel       z-vel      x-accl      y-accl      z-accl      x-coor      y-coor      z-coor
    22626 -2.16588E-02 2.50438E+00-1.64282E-01-4.88496E-03 1.39330E+00 1.00564E-01 9.85380E-03 3.90880E-01 5.54140E-02 4.63772E+00-2.56864E+01-4.51460E+01



 n o d a l   p r i n t   o u t   f o r   t i m e  s t e p   10001                              ( at time 4.9994997E+00 )

 nodal point  x-rot      y-rot       z-rot       x-rot vel   y-rot vel   z-rot vel   x-rot acc   y-rot acc   z-rot acc
    22626 -1.66001E-02-7.45878E-05-2.72756E-04-7.64628E-03 4.87360E-05-7.18033E-06 8.43524E-04 3.01782E-04 3.87599E-04



 n o d a l   p r i n t   o u t   f o r   t i m e  s t e p   10202                              ( at time 5.0999896E+00 )

 nodal point  x-disp     y-disp      z-disp      x-vel       y-vel       z-vel      x-accl      y-accl      z-accl      x-coor      y-coor      z-coor
    22626 -2.22483E-02 2.64619E+00-1.53902E-01-6.63803E-03 1.42808E+00 1.07716E-01-1.74453E-02 3.46101E-01 7.11716E-02 4.63713E+00-2.55446E+01-4.51356E+01



 n o d a l   p r i n t   o u t   f o r   t i m e  s t e p   10202                              ( at time 5.0999896E+00 )

 nodal point  x-rot      y-rot       z-rot       x-rot vel   y-rot vel   z-rot vel   x-rot acc   y-rot acc   z-rot acc
    22626 -1.73647E-02-7.19887E-05-2.73879E-04-7.54830E-03 8.69425E-06-2.82153E-05 9.74968E-04-3.98467E-04-2.09325E-04



 n o d a l   p r i n t   o u t   f o r   t i m e  s t e p   10402                              ( at time 5.1999796E+00 )

 nodal point  x-disp     y-disp      z-disp      x-vel       y-vel       z-vel      x-accl      y-accl      z-accl      x-coor      y-coor      z-coor
    22626 -2.28367E-02 2.79078E+00-1.42684E-01-6.01595E-03 1.46452E+00 1.17392E-01 6.22140E-03 3.64494E-01 9.67699E-02 4.63654E+00-2.54000E+01-4.51244E+01



 n o d a l   p r i n t   o u t   f o r   t i m e  s t e p   10402                              ( at time 5.1999796E+00 )

 nodal point  x-rot      y-rot       z-rot       x-rot vel   y-rot vel   z-rot vel   x-rot acc   y-rot acc   z-rot acc
    22626 -1.81152E-02-7.05062E-05-2.74758E-04-7.46003E-03 3.43663E-05 2.09875E-05 8.82867E-04 2.56745E-04 4.92075E-04



 n o d a l   p r i n t   o u t   f o r   t i m e  s t e p   10602                              ( at time 5.2999696E+00 )

 nodal point  x-disp     y-disp      z-disp      x-vel       y-vel       z-vel      x-accl      y-accl      z-accl      x-coor      y-coor      z-coor
    22626 -2.32927E-02 2.93905E+00-1.30514E-01-2.78205E-03 1.49954E+00 1.25421E-01 3.23422E-02 3.50270E-01 8.02924E-02 4.63608E+00-2.52518E+01-4.51122E+01



 n o d a l   p r i n t   o u t   f o r   t i m e  s t e p   10602                              ( at time 5.2999696E+00 )

 nodal point  x-rot      y-rot       z-rot       x-rot vel   y-rot vel   z-rot vel   x-rot acc   y-rot acc   z-rot acc
    22626 -1.88555E-02-6.41516E-05-2.70284E-04-7.36561E-03 8.80658E-05 4.26984E-05 9.44256E-04 5.37049E-04 2.17131E-04



 n o d a l   p r i n t   o u t   f o r   t i m e  s t e p   10802                              ( at time 5.3999596E+00 )

 nodal point  x-disp     y-disp      z-disp      x-vel       y-vel       z-vel      x-accl      y-accl      z-accl      x-coor      y-coor      z-coor
    22626 -2.35954E-02 3.09070E+00-1.17245E-01-4.08153E-03 1.53154E+00 1.38326E-01-1.29961E-02 3.19966E-01 1.29064E-01 4.63578E+00-2.51001E+01-4.50990E+01



 n o d a l   p r i n t   o u t   f o r   t i m e  s t e p   10802                              ( at time 5.3999596E+00 )

 nodal point  x-rot      y-rot       z-rot       x-rot vel   y-rot vel   z-rot vel   x-rot acc   y-rot acc   z-rot acc
    22626 -1.95833E-02-5.82890E-05-2.66892E-04-7.23385E-03 4.23925E-05 5.03372E-05 1.31771E-03-4.56779E-04 7.63964E-05



 n o d a l   p r i n t   o u t   f o r   t i m e  s t e p   11002                              ( at time 5.4999496E+00 )

 nodal point  x-disp     y-disp      z-disp      x-vel       y-vel       z-vel      x-accl      y-accl      z-accl      x-coor      y-coor      z-coor
    22626 -2.40423E-02 3.24554E+00-1.02697E-01-4.17458E-03 1.56389E+00 1.49866E-01-9.30630E-04 3.23604E-01 1.15412E-01 4.63533E+00-2.49453E+01-4.50844E+01



 n o d a l   p r i n t   o u t   f o r   t i m e  s t e p   11002                              ( at time 5.4999496E+00 )

 nodal point  x-rot      y-rot       z-rot       x-rot vel   y-rot vel   z-rot vel   x-rot acc   y-rot acc   z-rot acc
    22626 -2.02977E-02-5.37220E-05-2.60999E-04-7.10434E-03 5.45734E-05 7.92232E-05 1.29525E-03 1.21821E-04 2.88889E-04



 n o d a l   p r i n t   o u t   f o r   t i m e  s t e p   11202                              ( at time 5.5999396E+00 )

 nodal point  x-disp     y-disp      z-disp      x-vel       y-vel       z-vel      x-accl      y-accl      z-accl      x-coor      y-coor      z-coor
    22626 -2.43323E-02 3.40341E+00-8.68270E-02-1.70383E-03 1.59378E+00 1.67728E-01 2.47100E-02 2.98894E-01 1.78634E-01 4.63504E+00-2.47874E+01-4.50685E+01



 n o d a l   p r i n t   o u t   f o r   t i m e  s t e p   11202                              ( at time 5.5999396E+00 )

 nodal point  x-rot      y-rot       z-rot       x-rot vel   y-rot vel   z-rot vel   x-rot acc   y-rot acc   z-rot acc
    22626 -2.09995E-02-4.69112E-05-2.54363E-04-6.96189E-03 8.48101E-05 7.03117E-05 1.42467E-03 3.02398E-04-8.91236E-05



 n o d a l   p r i n t   o u t   f o r   t i m e  s t e p   11402                              ( at time 5.6999296E+00 )

 nodal point  x-disp     y-disp      z-disp      x-vel       y-vel       z-vel      x-accl      y-accl      z-accl      x-coor      y-coor      z-coor
    22626 -2.45766E-02 3.56422E+00-6.91425E-02-2.57265E-03 1.62279E+00 1.86217E-01-8.68908E-03 2.90086E-01 1.84909E-01 4.63480E+00-2.46266E+01-4.50509E+01



 n o d a l   p r i n t   o u t   f o r   t i m e  s t e p   11402                              ( at time 5.6999296E+00 )

 nodal point  x-rot      y-rot       z-rot       x-rot vel   y-rot vel   z-rot vel   x-rot acc   y-rot acc   z-rot acc
    22626 -2.16885E-02-3.92508E-05-2.46582E-04-6.80926E-03 6.99759E-05 9.70477E-05 1.52640E-03-1.48356E-04 2.67386E-04



 n o d a l   p r i n t   o u t   f o r   t i m e  s t e p   11602                              ( at time 5.7999195E+00 )

 nodal point  x-disp     y-disp      z-disp      x-vel       y-vel       z-vel      x-accl      y-accl      z-accl      x-coor      y-coor      z-coor
    22626 -2.48598E-02 3.72767E+00-4.96631E-02-3.88735E-03 1.64799E+00 2.03799E-01-1.31483E-02 2.52057E-01 1.75837E-01 4.63452E+00-2.44632E+01-4.50314E+01



 n o d a l   p r i n t   o u t   f o r   t i m e  s t e p   11602                              ( at time 5.7999195E+00 )

 nodal point  x-rot      y-rot       z-rot       x-rot vel   y-rot vel   z-rot vel   x-rot acc   y-rot acc   z-rot acc
    22626 -2.23610E-02-3.24886E-05-2.38063E-04-6.65692E-03 7.20787E-05 8.60363E-05 1.52358E-03 2.10296E-05-1.10125E-04



 n o d a l   p r i n t   o u t   f o r   t i m e  s t e p   11802                              ( at time 5.8999095E+00 )

 nodal point  x-disp     y-disp      z-disp      x-vel       y-vel       z-vel      x-accl      y-accl      z-accl      x-coor      y-coor      z-coor
    22626 -2.51641E-02 3.89372E+00-2.83438E-02-2.67540E-03 1.67371E+00 2.24248E-01 1.21207E-02 2.57273E-01 2.04515E-01 4.63421E+00-2.42971E+01-4.50101E+01



 n o d a l   p r i n t   o u t   f o r   t i m e  s t e p   11802                              ( at time 5.8999095E+00 )

 nodal point  x-rot      y-rot       z-rot       x-rot vel   y-rot vel   z-rot vel   x-rot acc   y-rot acc   z-rot acc
    22626 -2.30194E-02-2.39360E-05-2.29699E-04-6.52921E-03 8.38393E-05 8.37252E-05 1.27722E-03 1.17618E-04-2.31134E-05



 n o d a l   p r i n t   o u t   f o r   t i m e  s t e p   12002                              ( at time 5.9998995E+00 )

 nodal point  x-disp     y-disp      z-disp      x-vel       y-vel       z-vel      x-accl      y-accl      z-accl      x-coor      y-coor      z-coor
    22626 -2.54973E-02 4.06216E+00-4.84042E-03-3.49401E-03 1.69594E+00 2.46141E-01-8.18695E-03 2.22323E-01 2.18953E-01 4.63388E+00-2.41287E+01-4.49866E+01



 n o d a l   p r i n t   o u t   f o r   t i m e  s t e p   12002                              ( at time 5.9998995E+00 )

 nodal point  x-rot      y-rot       z-rot       x-rot vel   y-rot vel   z-rot vel   x-rot acc   y-rot acc   z-rot acc
    22626 -2.36642E-02-1.63108E-05-2.20815E-04-6.36895E-03 7.38063E-05 7.06453E-05 1.60280E-03-1.00340E-04-1.30812E-04



 n o d a l   p r i n t   o u t   f o r   t i m e  s t e p   12202                              ( at time 6.0998895E+00 )

 nodal point  x-disp     y-disp      z-disp      x-vel       y-vel       z-vel      x-accl      y-accl      z-accl      x-coor      y-coor      z-coor
    22626 -2.59135E-02 4.23287E+00 2.07900E-02-4.33571E-03 1.71784E+00 2.66786E-01-8.41779E-03 2.18923E-01 2.06470E-01 4.63346E+00-2.39580E+01-4.49609E+01



 n o d a l   p r i n t   o u t   f o r   t i m e  s t e p   12202                              ( at time 6.0998895E+00 )

 nodal point  x-rot      y-rot       z-rot       x-rot vel   y-rot vel   z-rot vel   x-rot acc   y-rot acc   z-rot acc
    22626 -2.42925E-02-7.74759E-06-2.14490E-04-6.22631E-03 8.78823E-05 7.25002E-05 1.42648E-03 1.40773E-04 1.85514E-05



 n o d a l   p r i n t   o u t   f o r   t i m e  s t e p   12402                              ( at time 6.1998795E+00 )

 nodal point  x-disp     y-disp      z-disp      x-vel       y-vel       z-vel      x-accl      y-accl      z-accl      x-coor      y-coor      z-coor
    22626 -2.63711E-02 4.40564E+00 4.87810E-02-4.95876E-03 1.73757E+00 2.92236E-01-6.23108E-03 1.97406E-01 2.54525E-01 4.63300E+00-2.37852E+01-4.49329E+01



 n o d a l   p r i n t   o u t   f o r   t i m e  s t e p   12402                              ( at time 6.1998795E+00 )

 nodal point  x-rot      y-rot       z-rot       x-rot vel   y-rot vel   z-rot vel   x-rot acc   y-rot acc   z-rot acc
    22626 -2.49059E-02 3.80405E-07-2.07580E-04-6.06098E-03 7.34742E-05 5.75851E-05 1.65350E-03-1.44096E-04-1.49167E-04



 n o d a l   p r i n t   o u t   f o r   t i m e  s t e p   12602                              ( at time 6.2998695E+00 )

 nodal point  x-disp     y-disp      z-disp      x-vel       y-vel       z-vel      x-accl      y-accl      z-accl      x-coor      y-coor      z-coor
    22626 -2.68595E-02 4.58046E+00 7.92798E-02-4.70645E-03 1.75769E+00 3.17200E-01 2.52333E-03 2.01171E-01 2.49664E-01 4.63252E+00-2.36104E+01-4.49024E+01



 n o d a l   p r i n t   o u t   f o r   t i m e  s t e p   12602                              ( at time 6.2998695E+00 )

 nodal point  x-rot      y-rot       z-rot       x-rot vel   y-rot vel   z-rot vel   x-rot acc   y-rot acc   z-rot acc
    22626 -2.55023E-02 7.54851E-06-2.03441E-04-5.89434E-03 6.27100E-05 2.03443E-05 1.66658E-03-1.07653E-04-3.72446E-04



 n o d a l   p r i n t   o u t   f o r   t i m e  s t e p   12802                              ( at time 6.3998595E+00 )

 nodal point  x-disp     y-disp      z-disp      x-vel       y-vel       z-vel      x-accl      y-accl      z-accl      x-coor      y-coor      z-coor
    22626 -2.75164E-02 4.75718E+00 1.12366E-01-7.36727E-03 1.77635E+00 3.44489E-01-2.66109E-02 1.86660E-01 2.72922E-01 4.63186E+00-2.34337E+01-4.48694E+01



 n o d a l   p r i n t   o u t   f o r   t i m e  s t e p   12802                              ( at time 6.3998595E+00 )

 nodal point  x-rot      y-rot       z-rot       x-rot vel   y-rot vel   z-rot vel   x-rot acc   y-rot acc   z-rot acc
    22626 -2.60835E-02 1.49012E-05-2.00669E-04-5.74660E-03 7.31596E-05 6.17829E-06 1.47758E-03 1.04507E-04-1.41674E-04



 n o d a l   p r i n t   o u t   f o r   t i m e  s t e p   13002                              ( at time 6.4998495E+00 )

 nodal point  x-disp     y-disp      z-disp      x-vel       y-vel       z-vel      x-accl      y-accl      z-accl      x-coor      y-coor      z-coor
    22626 -2.82047E-02 4.93553E+00 1.48344E-01-7.46754E-03 1.79157E+00 3.74973E-01-1.00278E-03 1.52197E-01 3.04863E-01 4.63117E+00-2.32553E+01-4.48334E+01



 n o d a l   p r i n t   o u t   f o r   t i m e  s t e p   13002                              ( at time 6.4998495E+00 )

 nodal point  x-rot      y-rot       z-rot       x-rot vel   y-rot vel   z-rot vel   x-rot acc   y-rot acc   z-rot acc
    22626 -2.66480E-02 2.10081E-05-2.01083E-04-5.55772E-03 5.29144E-05-1.29913E-05 1.88896E-03-2.02473E-04-1.91715E-04



 n o d a l   p r i n t   o u t   f o r   t i m e  s t e p   13202                              ( at time 6.5998395E+00 )

 nodal point  x-disp     y-disp      z-disp      x-vel       y-vel       z-vel      x-accl      y-accl      z-accl      x-coor      y-coor      z-coor
    22626 -2.89738E-02 5.11548E+00 1.87319E-01-8.42199E-03 1.80828E+00 4.04947E-01-9.54540E-03 1.67112E-01 2.99773E-01 4.63040E+00-2.30754E+01-4.47944E+01



 n o d a l   p r i n t   o u t   f o r   t i m e  s t e p   13202                              ( at time 6.5998395E+00 )

 nodal point  x-rot      y-rot       z-rot       x-rot vel   y-rot vel   z-rot vel   x-rot acc   y-rot acc   z-rot acc
    22626 -2.71958E-02 2.62393E-05-2.03151E-04-5.39736E-03 5.34791E-05-4.47402E-05 1.60373E-03 5.64840E-06-3.17520E-04



 n o d a l   p r i n t   o u t   f o r   t i m e  s t e p   13402                              ( at time 6.6998295E+00 )

 nodal point  x-disp     y-disp      z-disp      x-vel       y-vel       z-vel      x-accl      y-accl      z-accl      x-coor      y-coor      z-coor
    22626 -2.99019E-02 5.29698E+00 2.29343E-01-9.81155E-03 1.82280E+00 4.36898E-01-1.38970E-02 1.45166E-01 3.19537E-01 4.62947E+00-2.28938E+01-4.47524E+01



 n o d a l   p r i n t   o u t   f o r   t i m e  s t e p   13402                              ( at time 6.6998295E+00 )

 nodal point  x-rot      y-rot       z-rot       x-rot vel   y-rot vel   z-rot vel   x-rot acc   y-rot acc   z-rot acc
    22626 -2.77270E-02 3.06644E-05-2.08501E-04-5.22163E-03 3.67860E-05-8.28643E-05 1.75753E-03-1.66948E-04-3.81279E-04



 n o d a l   p r i n t   o u t   f o r   t i m e  s t e p   13602                              ( at time 6.7998195E+00 )

 nodal point  x-disp     y-disp      z-disp      x-vel       y-vel       z-vel      x-accl      y-accl      z-accl      x-coor      y-coor      z-coor
    22626 -3.08893E-02 5.47983E+00 2.74632E-01-1.03365E-02 1.83520E+00 4.69258E-01-5.25039E-03 1.24013E-01 3.23635E-01 4.62849E+00-2.27110E+01-4.47071E+01



 n o d a l   p r i n t   o u t   f o r   t i m e  s t e p   13602                              ( at time 6.7998195E+00 )

 nodal point  x-rot      y-rot       z-rot       x-rot vel   y-rot vel   z-rot vel   x-rot acc   y-rot acc   z-rot acc
    22626 -2.82409E-02 3.51955E-05-2.15358E-04-5.04547E-03 3.86472E-05-6.36957E-05 1.76169E-03 1.86134E-05 1.91705E-04



 n o d a l   p r i n t   o u t   f o r   t i m e  s t e p   13802                              ( at time 6.8998095E+00 )

 nodal point  x-disp     y-disp      z-disp      x-vel       y-vel       z-vel      x-accl      y-accl      z-accl      x-coor      y-coor      z-coor
    22626 -3.19286E-02 5.66399E+00 3.23109E-01-1.04345E-02 1.84865E+00 5.02300E-01-9.79925E-04 1.34540E-01 3.30455E-01 4.62745E+00-2.25268E+01-4.46586E+01



 n o d a l   p r i n t   o u t   f o r   t i m e  s t e p   13802                              ( at time 6.8998095E+00 )

 nodal point  x-rot      y-rot       z-rot       x-rot vel   y-rot vel   z-rot vel   x-rot acc   y-rot acc   z-rot acc
    22626 -2.87381E-02 3.94332E-05-2.23665E-04-4.90299E-03 3.32812E-05-1.03104E-04 1.42499E-03-5.36651E-05-3.94125E-04



 n o d a l   p r i n t   o u t   f o r   t i m e  s t e p   14002                              ( at time 6.9997995E+00 )

 nodal point  x-disp     y-disp      z-disp      x-vel       y-vel       z-vel      x-accl      y-accl      z-accl      x-coor      y-coor      z-coor
    22626 -3.30575E-02 5.84933E+00 3.75243E-01-1.13393E-02 1.85931E+00 5.39563E-01-9.04874E-03 1.06611E-01 3.72669E-01 4.62632E+00-2.23415E+01-4.46065E+01



 n o d a l   p r i n t   o u t   f o r   t i m e  s t e p   14002                              ( at time 6.9997995E+00 )

 nodal point  x-rot      y-rot       z-rot       x-rot vel   y-rot vel   z-rot vel   x-rot acc   y-rot acc   z-rot acc
    22626 -2.92198E-02 4.17951E-05-2.35262E-04-4.74274E-03 2.64044E-05-1.03179E-04 1.60263E-03-6.87754E-05-7.46225E-07



 n o d a l   p r i n t   o u t   f o r   t i m e  s t e p   14202                              ( at time 7.0997895E+00 )

 nodal point  x-disp     y-disp      z-disp      x-vel       y-vel       z-vel      x-accl      y-accl      z-accl      x-coor      y-coor      z-coor
    22626 -3.42801E-02 6.03575E+00 4.30965E-01-1.18023E-02 1.86869E+00 5.74869E-01-4.63068E-03 9.37779E-02 3.53091E-01 4.62509E+00-2.21551E+01-4.45508E+01



 n o d a l   p r i n t   o u t   f o r   t i m e  s t e p   14202                              ( at time 7.0997895E+00 )

 nodal point  x-rot      y-rot       z-rot       x-rot vel   y-rot vel   z-rot vel   x-rot acc   y-rot acc   z-rot acc
    22626 -2.96840E-02 4.46706E-05-2.46353E-04-4.56159E-03 3.05244E-05-1.12525E-04 1.81174E-03 4.12047E-05-9.34702E-05



 n o d a l   p r i n t   o u t   f o r   t i m e  s t e p   14402                              ( at time 7.1997794E+00 )

 nodal point  x-disp     y-disp      z-disp      x-vel       y-vel       z-vel      x-accl      y-accl      z-accl      x-coor      y-coor      z-coor
    22626 -3.53865E-02 6.22312E+00 4.90381E-01-1.18299E-02 1.87741E+00 6.14385E-01-2.76081E-04 8.72712E-02 3.95207E-01 4.62399E+00-2.19677E+01-4.44913E+01



 n o d a l   p r i n t   o u t   f o r   t i m e  s t e p   14402                              ( at time 7.1997794E+00 )

 nodal point  x-rot      y-rot       z-rot       x-rot vel   y-rot vel   z-rot vel   x-rot acc   y-rot acc   z-rot acc
    22626 -3.01333E-02 4.81209E-05-2.58877E-04-4.41436E-03 3.34329E-05-1.25477E-04 1.47242E-03 2.90876E-05-1.29529E-04



 n o d a l   p r i n t   o u t   f o r   t i m e  s t e p   14602                              ( at time 7.2997694E+00 )

 nodal point  x-disp     y-disp      z-disp      x-vel       y-vel       z-vel      x-accl      y-accl      z-accl      x-coor      y-coor      z-coor
    22626 -3.65433E-02 6.41122E+00 5.53940E-01-1.12237E-02 1.88488E+00 6.57478E-01 6.06285E-03 7.46755E-02 4.30970E-01 4.62283E+00-2.17796E+01-4.44278E+01



 n o d a l   p r i n t   o u t   f o r   t i m e  s t e p   14602                              ( at time 7.2997694E+00 )

 nodal point  x-rot      y-rot       z-rot       x-rot vel   y-rot vel   z-rot vel   x-rot acc   y-rot acc   z-rot acc
    22626 -3.05686E-02 5.10387E-05-2.71104E-04-4.27154E-03 2.26327E-05-1.18855E-04 1.42833E-03-1.08013E-04 6.62217E-05



 n o d a l   p r i n t   o u t   f o r   t i m e  s t e p   14802                              ( at time 7.3997594E+00 )

 nodal point  x-disp     y-disp      z-disp      x-vel       y-vel       z-vel      x-accl      y-accl      z-accl      x-coor      y-coor      z-coor
    22626 -3.76873E-02 6.59992E+00 6.21692E-01-1.10757E-02 1.89035E+00 6.98091E-01 1.47995E-03 5.47727E-02 4.06170E-01 4.62169E+00-2.15909E+01-4.43600E+01



 n o d a l   p r i n t   o u t   f o r   t i m e  s t e p   14802                              ( at time 7.3997594E+00 )

 nodal point  x-rot      y-rot       z-rot       x-rot vel   y-rot vel   z-rot vel   x-rot acc   y-rot acc   z-rot acc
    22626 -3.09907E-02 5.24286E-05-2.83451E-04-4.15325E-03 3.10093E-05-1.17874E-04 1.18302E-03 8.37747E-05 9.81175E-06



 n o d a l   p r i n t   o u t   f o r   t i m e  s t e p   15002                              ( at time 7.4997494E+00 )

 nodal point  x-disp     y-disp      z-disp      x-vel       y-vel       z-vel      x-accl      y-accl      z-accl      x-coor      y-coor      z-coor
    22626 -3.87301E-02 6.78922E+00 6.93563E-01-9.61964E-03 1.89562E+00 7.40790E-01 1.45623E-02 5.26479E-02 4.27034E-01 4.62065E+00-2.14016E+01-4.42882E+01



 n o d a l   p r i n t   o u t   f o r   t i m e  s t e p   15002                              ( at time 7.4997494E+00 )

 nodal point  x-rot      y-rot       z-rot       x-rot vel   y-rot vel   z-rot vel   x-rot acc   y-rot acc   z-rot acc
    22626 -3.14003E-02 5.60537E-05-2.94728E-04-4.05134E-03 3.40446E-05-1.05639E-04 1.01922E-03 3.03553E-05 1.22361E-04



 n o d a l   p r i n t   o u t   f o r   t i m e  s t e p   15202                              ( at time 7.5997394E+00 )

 nodal point  x-disp     y-disp      z-disp      x-vel       y-vel       z-vel      x-accl      y-accl      z-accl      x-coor      y-coor      z-coor
    22626 -3.96597E-02 6.97898E+00 7.70004E-01-1.08025E-02 1.90027E+00 7.86902E-01-1.18300E-02 4.64999E-02 4.61164E-01 4.61972E+00-2.12119E+01-4.42117E+01



 n o d a l   p r i n t   o u t   f o r   t i m e  s t e p   15202                              ( at time 7.5997394E+00 )

 nodal point  x-rot      y-rot       z-rot       x-rot vel   y-rot vel   z-rot vel   x-rot acc   y-rot acc   z-rot acc
    22626 -3.17991E-02 5.81575E-05-3.04993E-04-3.94714E-03 1.07694E-05-1.17567E-04 1.04209E-03-2.32775E-04-1.19292E-04



 n o d a l   p r i n t   o u t   f o r   t i m e  s t e p   15402                              ( at time 7.6997294E+00 )

 nodal point  x-disp     y-disp      z-disp      x-vel       y-vel       z-vel      x-accl      y-accl      z-accl      x-coor      y-coor      z-coor
    22626 -4.06599E-02 7.16936E+00 8.50770E-01-9.74130E-03 1.90619E+00 8.28610E-01 1.06132E-02 5.91970E-02 4.17127E-01 4.61872E+00-2.10215E+01-4.41310E+01



 n o d a l   p r i n t   o u t   f o r   t i m e  s t e p   15402                              ( at time 7.6997294E+00 )

 nodal point  x-rot      y-rot       z-rot       x-rot vel   y-rot vel   z-rot vel   x-rot acc   y-rot acc   z-rot acc
    22626 -3.21883E-02 6.01470E-05-3.15270E-04-3.85538E-03 3.60454E-05-8.16990E-05 9.17646E-04 2.52786E-04 3.58717E-04



 n o d a l   p r i n t   o u t   f o r   t i m e  s t e p   15602                              ( at time 7.7997194E+00 )

 nodal point  x-disp     y-disp      z-disp      x-vel       y-vel       z-vel      x-accl      y-accl      z-accl      x-coor      y-coor      z-coor
    22626 -4.14435E-02 7.36013E+00 9.35878E-01-7.03943E-03 1.91184E+00 8.73370E-01 2.70214E-02 5.65693E-02 4.47643E-01 4.61793E+00-2.08307E+01-4.40458E+01



 n o d a l   p r i n t   o u t   f o r   t i m e  s t e p   15602                              ( at time 7.7997194E+00 )

 nodal point  x-rot      y-rot       z-rot       x-rot vel   y-rot vel   z-rot vel   x-rot acc   y-rot acc   z-rot acc
    22626 -3.25672E-02 6.44419E-05-3.21981E-04-3.74191E-03 5.57883E-05-5.15803E-05 1.13491E-03 1.97449E-04 3.01217E-04



 n o d a l   p r i n t   o u t   f o r   t i m e  s t e p   15802                              ( at time 7.8997094E+00 )

 nodal point  x-disp     y-disp      z-disp      x-vel       y-vel       z-vel      x-accl      y-accl      z-accl      x-coor      y-coor      z-coor
    22626 -4.21145E-02 7.55153E+00 1.02546E+00-7.19034E-03 1.91574E+00 9.19013E-01-1.50925E-03 3.89329E-02 4.56470E-01 4.61726E+00-2.06393E+01-4.39563E+01



 n o d a l   p r i n t   o u t   f o r   t i m e  s t e p   15802                              ( at time 7.8997094E+00 )

 nodal point  x-rot      y-rot       z-rot       x-rot vel   y-rot vel   z-rot vel   x-rot acc   y-rot acc   z-rot acc
    22626 -3.29361E-02 6.79984E-05-3.27522E-04-3.62643E-03 1.41420E-05-7.46610E-05 1.15488E-03-4.16506E-04-2.30830E-04



 n o d a l   p r i n t   o u t   f o r   t i m e  s t e p   16002                              ( at time 7.9996994E+00 )

 nodal point  x-disp     y-disp      z-disp      x-vel       y-vel       z-vel      x-accl      y-accl      z-accl      x-coor      y-coor      z-coor
    22626 -4.29810E-02 7.74344E+00 1.11954E+00-8.30909E-03 1.92039E+00 9.63848E-01-1.11885E-02 4.64985E-02 4.48395E-01 4.61639E+00-2.04474E+01-4.38622E+01



 n o d a l   p r i n t   o u t   f o r   t i m e  s t e p   16002                              ( at time 7.9996994E+00 )

 nodal point  x-rot      y-rot       z-rot       x-rot vel   y-rot vel   z-rot vel   x-rot acc   y-rot acc   z-rot acc
    22626 -3.32967E-02 6.93444E-05-3.34998E-04-3.54812E-03 1.17285E-05-8.82970E-05 7.83173E-04-2.41373E-05-1.36373E-04



 n o d a l   p r i n t   o u t   f o r   t i m e  s t e p   16202                              ( at time 8.0996894E+00 )

 nodal point  x-disp     y-disp      z-disp      x-vel       y-vel       z-vel      x-accl      y-accl      z-accl      x-coor      y-coor      z-coor
    22626 -4.37185E-02 7.93553E+00 1.21823E+00-6.16027E-03 1.92334E+00 1.00938E+00 2.14903E-02 2.95311E-02 4.55365E-01 4.61566E+00-2.02553E+01-4.37635E+01



 n o d a l   p r i n t   o u t   f o r   t i m e  s t e p   16202                              ( at time 8.0996894E+00 )

 nodal point  x-rot      y-rot       z-rot       x-rot vel   y-rot vel   z-rot vel   x-rot acc   y-rot acc   z-rot acc
    22626 -3.36469E-02 7.19700E-05-3.42791E-04-3.47672E-03 2.65558E-05-6.04855E-05 7.14033E-04 1.48288E-04 2.78143E-04



 n o d a l   p r i n t   o u t   f o r   t i m e  s t e p   16402                              ( at time 8.1996794E+00 )

 nodal point  x-disp     y-disp      z-disp      x-vel       y-vel       z-vel      x-accl      y-accl      z-accl      x-coor      y-coor      z-coor
    22626 -4.43707E-02 8.12797E+00 1.32160E+00-5.95492E-03 1.92410E+00 1.05680E+00 2.05368E-03 7.63493E-03 4.74286E-01 4.61500E+00-2.00629E+01-4.36601E+01



 n o d a l   p r i n t   o u t   f o r   t i m e  s t e p   16402                              ( at time 8.1996794E+00 )

 nodal point  x-rot      y-rot       z-rot       x-rot vel   y-rot vel   z-rot vel   x-rot acc   y-rot acc   z-rot acc
    22626 -3.39903E-02 7.40310E-05-3.49662E-04-3.39318E-03 1.27986E-05-6.06223E-05 8.35490E-04-1.37586E-04-1.36813E-06



 n o d a l   p r i n t   o u t   f o r   t i m e  s t e p   16602                              ( at time 8.2996694E+00 )

 nodal point  x-disp     y-disp      z-disp      x-vel       y-vel       z-vel      x-accl      y-accl      z-accl      x-coor      y-coor      z-coor
    22626 -4.51081E-02 8.32048E+00 1.42958E+00-7.44888E-03 1.92501E+00 1.10139E+00-1.49411E-02 9.08347E-03 4.45955E-01 4.61427E+00-1.98704E+01-4.35521E+01



 n o d a l   p r i n t   o u t   f o r   t i m e  s t e p   16602                              ( at time 8.2996694E+00 )

 nodal point  x-rot      y-rot       z-rot       x-rot vel   y-rot vel   z-rot vel   x-rot acc   y-rot acc   z-rot acc
    22626 -3.43247E-02 7.35176E-05-3.58146E-04-3.30770E-03-3.73490E-06-8.69218E-05 8.54894E-04-1.65351E-04-2.63022E-04



 n o d a l   p r i n t   o u t   f o r   t i m e  s t e p   16802                              ( at time 8.3996594E+00 )

 nodal point  x-disp     y-disp      z-disp      x-vel       y-vel       z-vel      x-accl      y-accl      z-accl      x-coor      y-coor      z-coor
    22626 -4.58489E-02 8.51299E+00 1.54218E+00-7.30977E-03 1.92407E+00 1.14913E+00 1.39128E-03-9.36245E-03 4.77393E-01 4.61353E+00-1.96778E+01-4.34395E+01



 n o d a l   p r i n t   o u t   f o r   t i m e  s t e p   16802                              ( at time 8.3996594E+00 )

 nodal point  x-rot      y-rot       z-rot       x-rot vel   y-rot vel   z-rot vel   x-rot acc   y-rot acc   z-rot acc
    22626 -3.46501E-02 7.34296E-05-3.68102E-04-3.22581E-03-4.89829E-06-9.76262E-05 8.19002E-04-1.16352E-05-1.07054E-04



 n o d a l   p r i n t   o u t   f o r   t i m e  s t e p   17002                              ( at time 8.4996494E+00 )

 nodal point  x-disp     y-disp      z-disp      x-vel       y-vel       z-vel      x-accl      y-accl      z-accl      x-coor      y-coor      z-coor
    22626 -4.64851E-02 8.70545E+00 1.65944E+00-6.33299E-03 1.92584E+00 1.19695E+00 9.76874E-03 1.76066E-02 4.78278E-01 4.61289E+00-1.94854E+01-4.33223E+01



 n o d a l   p r i n t   o u t   f o r   t i m e  s t e p   17002                              ( at time 8.4996494E+00 )

 nodal point  x-rot      y-rot       z-rot       x-rot vel   y-rot vel   z-rot vel   x-rot acc   y-rot acc   z-rot acc
    22626 -3.49694E-02 7.39136E-05-3.76143E-04-3.16059E-03-9.79082E-06-1.13148E-04 6.52232E-04-4.89302E-05-1.55230E-04



 n o d a l   p r i n t   o u t   f o r   t i m e  s t e p   17202                              ( at time 8.5996394E+00 )

 nodal point  x-disp     y-disp      z-disp      x-vel       y-vel       z-vel      x-accl      y-accl      z-accl      x-coor      y-coor      z-coor
    22626 -4.72327E-02 8.89772E+00 1.78142E+00-8.39708E-03 1.92162E+00 1.24334E+00-2.06429E-02-4.21281E-02 4.63951E-01 4.61214E+00-1.92931E+01-4.32003E+01



 n o d a l   p r i n t   o u t   f o r   t i m e  s t e p   17202                              ( at time 8.5996394E+00 )

 nodal point  x-rot      y-rot       z-rot       x-rot vel   y-rot vel   z-rot vel   x-rot acc   y-rot acc   z-rot acc
    22626 -3.52822E-02 7.09645E-05-3.87752E-04-3.05424E-03-3.59515E-05-1.27588E-04 1.06365E-03-2.61633E-04-1.44414E-04



 n o d a l   p r i n t   o u t   f o r   t i m e  s t e p   17402                              ( at time 8.6996293E+00 )

 nodal point  x-disp     y-disp      z-disp      x-vel       y-vel       z-vel      x-accl      y-accl      z-accl      x-coor      y-coor      z-coor
    22626 -4.80304E-02 9.08989E+00 1.90793E+00-5.89991E-03 1.92014E+00 1.28928E+00 2.49740E-02-1.48024E-02 4.59433E-01 4.61134E+00-1.91009E+01-4.30738E+01



 n o d a l   p r i n t   o u t   f o r   t i m e  s t e p   17402                              ( at time 8.6996293E+00 )

 nodal point  x-rot      y-rot       z-rot       x-rot vel   y-rot vel   z-rot vel   x-rot acc   y-rot acc   z-rot acc
    22626 -3.55882E-02 6.93303E-05-3.99233E-04-3.03335E-03-1.73903E-05-7.69034E-05 2.08917E-04 1.85629E-04 5.06888E-04



 n o d a l   p r i n t   o u t   f o r   t i m e  s t e p   17602                              ( at time 8.7996193E+00 )

 nodal point  x-disp     y-disp      z-disp      x-vel       y-vel       z-vel      x-accl      y-accl      z-accl      x-coor      y-coor      z-coor
    22626 -4.86693E-02 9.28169E+00 2.03921E+00-5.22399E-03 1.91673E+00 1.33556E+00 6.75989E-03-3.41665E-02 4.62873E-01 4.61071E+00-1.89091E+01-4.29425E+01



 n o d a l   p r i n t   o u t   f o r   t i m e  s t e p   17602                              ( at time 8.7996193E+00 )

 nodal point  x-rot      y-rot       z-rot       x-rot vel   y-rot vel   z-rot vel   x-rot acc   y-rot acc   z-rot acc
    22626 -3.58905E-02 6.68462E-05-4.08892E-04-3.01333E-03-4.94979E-05-1.08021E-04 2.00243E-04-3.21108E-04-3.11212E-04



 n o d a l   p r i n t   o u t   f o r   t i m e  s t e p   17802                              ( at time 8.8996093E+00 )

 nodal point  x-disp     y-disp      z-disp      x-vel       y-vel       z-vel      x-accl      y-accl      z-accl      x-coor      y-coor      z-coor
    22626 -4.94274E-02 9.47329E+00 2.17506E+00-7.43028E-03 1.91501E+00 1.38044E+00-2.20651E-02-1.71798E-02 4.48774E-01 4.60995E+00-1.87175E+01-4.28067E+01



 n o d a l   p r i n t   o u t   f o r   t i m e  s t e p   17802                              ( at time 8.8996093E+00 )

 nodal point  x-rot      y-rot       z-rot       x-rot vel   y-rot vel   z-rot vel   x-rot acc   y-rot acc   z-rot acc
    22626 -3.61870E-02 6.32205E-05-4.20949E-04-2.97123E-03-5.29559E-05-1.22763E-04 4.20996E-04-3.45834E-05-1.47434E-04



 n o d a l   p r i n t   o u t   f o r   t i m e  s t e p   18002                              ( at time 8.9995993E+00 )

 nodal point  x-disp     y-disp      z-disp      x-vel       y-vel       z-vel      x-accl      y-accl      z-accl      x-coor      y-coor      z-coor
    22626 -5.01701E-02 9.66453E+00 2.31543E+00-7.57652E-03 1.91100E+00 1.42682E+00-1.46263E-03-4.00453E-02 4.63833E-01 4.60920E+00-1.85263E+01-4.26663E+01



 n o d a l   p r i n t   o u t   f o r   t i m e  s t e p   18002                              ( at time 8.9995993E+00 )

 nodal point  x-rot      y-rot       z-rot       x-rot vel   y-rot vel   z-rot vel   x-rot acc   y-rot acc   z-rot acc
    22626 -3.64834E-02 5.93298E-05-4.32183E-04-2.95278E-03-4.87283E-05-1.23974E-04 1.84493E-04 4.22799E-05-1.21083E-05



 n o d a l   p r i n t   o u t   f o r   t i m e  s t e p   18202                              ( at time 9.0995893E+00 )

 nodal point  x-disp     y-disp      z-disp      x-vel       y-vel       z-vel      x-accl      y-accl      z-accl      x-coor      y-coor      z-coor
    22626 -5.08912E-02 9.85556E+00 2.46019E+00-6.85878E-03 1.90840E+00 1.46918E+00 7.17813E-03-2.60701E-02 4.23641E-01 4.60848E+00-1.83353E+01-4.25215E+01



 n o d a l   p r i n t   o u t   f o r   t i m e  s t e p   18202                              ( at time 9.0995893E+00 )

 nodal point  x-rot      y-rot       z-rot       x-rot vel   y-rot vel   z-rot vel   x-rot acc   y-rot acc   z-rot acc
    22626 -3.67778E-02 5.50271E-05-4.43973E-04-2.92473E-03-3.88108E-05-1.23618E-04 2.80522E-04 9.91846E-05 3.55845E-06



 n o d a l   p r i n t   o u t   f o r   t i m e  s t e p   18402                              ( at time 9.1995793E+00 )

 nodal point  x-disp     y-disp      z-disp      x-vel       y-vel       z-vel      x-accl      y-accl      z-accl      x-coor      y-coor      z-coor
    22626 -5.15176E-02 1.00463E+01 2.60922E+00-6.86138E-03 1.90794E+00 1.51117E+00-2.59912E-05-4.54353E-03 4.20028E-01 4.60786E+00-1.81445E+01-4.23725E+01



 n o d a l   p r i n t   o u t   f o r   t i m e  s t e p   18402                              ( at time 9.1995793E+00 )

 nodal point  x-rot      y-rot       z-rot       x-rot vel   y-rot vel   z-rot vel   x-rot acc   y-rot acc   z-rot acc
    22626 -3.70716E-02 5.00920E-05-4.54354E-04-2.95059E-03-4.46788E-05-9.96739E-05-2.58571E-04-5.86859E-05 2.39468E-04



 n o d a l   p r i n t   o u t   f o r   t i m e  s t e p   18602                              ( at time 9.2995693E+00 )

 nodal point  x-disp     y-disp      z-disp      x-vel       y-vel       z-vel      x-accl      y-accl      z-accl      x-coor      y-coor      z-coor
    22626 -5.21707E-02 1.02367E+01 2.76248E+00-7.24551E-03 1.90287E+00 1.55328E+00-3.84163E-03-5.07191E-02 4.21151E-01 4.60720E+00-1.79541E+01-4.22192E+01



 n o d a l   p r i n t   o u t   f o r   t i m e  s t e p   18602                              ( at time 9.2995693E+00 )

 nodal point  x-rot      y-rot       z-rot       x-rot vel   y-rot vel   z-rot vel   x-rot acc   y-rot acc   z-rot acc
    22626 -3.73641E-02 4.40494E-05-4.66637E-04-2.93923E-03-6.06654E-05-1.36392E-04 1.13619E-04-1.59882E-04-3.67219E-04



 n o d a l   p r i n t   o u t   f o r   t i m e  s t e p   18802                              ( at time 9.3995593E+00 )

 nodal point  x-disp     y-disp      z-disp      x-vel       y-vel       z-vel      x-accl      y-accl      z-accl      x-coor      y-coor      z-coor
    22626 -5.28724E-02 1.04269E+01 2.91984E+00-6.97333E-03 1.90070E+00 1.59450E+00 2.72205E-03-2.16995E-02 4.12205E-01 4.60650E+00-1.77640E+01-4.20619E+01



 n o d a l   p r i n t   o u t   f o r   t i m e  s t e p   18802                              ( at time 9.3995593E+00 )

 nodal point  x-rot      y-rot       z-rot       x-rot vel   y-rot vel   z-rot vel   x-rot acc   y-rot acc   z-rot acc
    22626 -3.76588E-02 3.75418E-05-4.79374E-04-2.97080E-03-5.25228E-05-1.24077E-04-3.15781E-04 8.14348E-05 1.23164E-04



 n o d a l   p r i n t   o u t   f o r   t i m e  s t e p   19002                              ( at time 9.4995493E+00 )

 nodal point  x-disp     y-disp      z-disp      x-vel       y-vel       z-vel      x-accl      y-accl      z-accl      x-coor      y-coor      z-coor
    22626 -5.34490E-02 1.06167E+01 3.08120E+00-6.42840E-03 1.89840E+00 1.63403E+00 5.44985E-03-2.30741E-02 3.95350E-01 4.60593E+00-1.75741E+01-4.19005E+01



 n o d a l   p r i n t   o u t   f o r   t i m e  s t e p   19002                              ( at time 9.4995493E+00 )

 nodal point  x-rot      y-rot       z-rot       x-rot vel   y-rot vel   z-rot vel   x-rot acc   y-rot acc   z-rot acc
    22626 -3.79571E-02 3.06321E-05-4.91788E-04-2.99352E-03-8.51903E-05-1.34218E-04-2.27212E-04-3.26709E-04-1.01423E-04



 n o d a l   p r i n t   o u t   f o r   t i m e  s t e p   19202                              ( at time 9.5995393E+00 )

 nodal point  x-disp     y-disp      z-disp      x-vel       y-vel       z-vel      x-accl      y-accl      z-accl      x-coor      y-coor      z-coor
    22626 -5.41227E-02 1.08063E+01 3.24657E+00-7.05996E-03 1.89511E+00 1.67380E+00-6.31618E-03-3.28225E-02 3.97715E-01 4.60525E+00-1.73846E+01-4.17351E+01



 n o d a l   p r i n t   o u t   f o r   t i m e  s t e p   19202                              ( at time 9.5995393E+00 )

 nodal point  x-rot      y-rot       z-rot       x-rot vel   y-rot vel   z-rot vel   x-rot acc   y-rot acc   z-rot acc
    22626 -3.82572E-02 2.16686E-05-5.07271E-04-3.01626E-03-1.00164E-04-1.62424E-04-2.27361E-04-1.49754E-04-2.82082E-04



 n o d a l   p r i n t   o u t   f o r   t i m e  s t e p   19402                              ( at time 9.6995293E+00 )

 nodal point  x-disp     y-disp      z-disp      x-vel       y-vel       z-vel      x-accl      y-accl      z-accl      x-coor      y-coor      z-coor
    22626 -5.48433E-02 1.09955E+01 3.41567E+00-6.30133E-03 1.88963E+00 1.70943E+00 7.58703E-03-5.47965E-02 3.56293E-01 4.60453E+00-1.71953E+01-4.15660E+01



 n o d a l   p r i n t   o u t   f o r   t i m e  s t e p   19402                              ( at time 9.6995293E+00 )

 nodal point  x-rot      y-rot       z-rot       x-rot vel   y-rot vel   z-rot vel   x-rot acc   y-rot acc   z-rot acc
    22626 -3.85626E-02 1.18968E-05-5.22562E-04-3.06106E-03-9.26858E-05-1.35635E-04-4.48091E-04 7.47928E-05 2.67918E-04



 n o d a l   p r i n t   o u t   f o r   t i m e  s t e p   19602                              ( at time 9.7995193E+00 )

 nodal point  x-disp     y-disp      z-disp      x-vel       y-vel       z-vel      x-accl      y-accl      z-accl      x-coor      y-coor      z-coor
    22626 -5.54544E-02 1.11845E+01 3.58834E+00-6.12718E-03 1.88806E+00 1.74415E+00 1.74172E-03-1.57599E-02 3.47250E-01 4.60392E+00-1.70063E+01-4.13934E+01



 n o d a l   p r i n t   o u t   f o r   t i m e  s t e p   19602                              ( at time 9.7995193E+00 )

 nodal point  x-rot      y-rot       z-rot       x-rot vel   y-rot vel   z-rot vel   x-rot acc   y-rot acc   z-rot acc
    22626 -3.88729E-02 2.32034E-06-5.38256E-04-3.11464E-03-1.04047E-04-1.48629E-04-5.35832E-04-1.13626E-04-1.29957E-04



 n o d a l   p r i n t   o u t   f o r   t i m e  s t e p   19802                              ( at time 9.8995093E+00 )

 nodal point  x-disp     y-disp      z-disp      x-vel       y-vel       z-vel      x-accl      y-accl      z-accl      x-coor      y-coor      z-coor
    22626 -5.60855E-02 1.13731E+01 3.76464E+00-7.73227E-03 1.88400E+00 1.77901E+00-1.60525E-02-4.05412E-02 3.48697E-01 4.60329E+00-1.68177E+01-4.12171E+01



 n o d a l   p r i n t   o u t   f o r   t i m e  s t e p   19802                              ( at time 9.8995093E+00 )

 nodal point  x-rot      y-rot       z-rot       x-rot vel   y-rot vel   z-rot vel   x-rot acc   y-rot acc   z-rot acc
    22626 -3.91862E-02-9.75755E-06-5.55950E-04-3.17388E-03-1.26944E-04-1.81778E-04-5.92449E-04-2.28990E-04-3.31519E-04



 n o d a l   p r i n t   o u t   f o r   t i m e  s t e p   20003                              ( at time 9.9999992E+00 )

 nodal point  x-disp     y-disp      z-disp      x-vel       y-vel       z-vel      x-accl      y-accl      z-accl      x-coor      y-coor      z-coor
[...]
    22626 -2.77831E-01-1.36859E-03-2.77382E-03-2.82447E-02-5.60146E-05-3.60729E-05 9.58400E-04-1.33092E-04-4.92426E-05



 n o d a l   p r i n t   o u t   f o r   t i m e  s t e p   45205                              ( at time 2.2599738E+01 )

 nodal point  x-disp     y-disp      z-disp      x-vel       y-vel       z-vel      x-accl      y-accl      z-accl      x-coor      y-coor      z-coor
    22626 -4.13286E-01 3.36585E+01 2.38897E+01-3.15445E-02 1.43717E+00 1.40117E+00 6.46200E-03-3.32958E-02 1.00653E-01 4.24609E+00 5.46768E+00-2.10920E+01



 n o d a l   p r i n t   o u t   f o r   t i m e  s t e p   45205                              ( at time 2.2599738E+01 )

 nodal point  x-rot      y-rot       z-rot       x-rot vel   y-rot vel   z-rot vel   x-rot acc   y-rot acc   z-rot acc
    22626 -2.80650E-01-1.37327E-03-2.77781E-03-2.81363E-02-4.55778E-05-4.70261E-05 1.08362E-03 1.04377E-04-1.09542E-04



 n o d a l   p r i n t   o u t   f o r   t i m e  s t e p   45405                              ( at time 2.2699728E+01 )

 nodal point  x-disp     y-disp      z-disp      x-vel       y-vel       z-vel      x-accl      y-accl      z-accl      x-coor      y-coor      z-coor
    22626 -4.16464E-01 3.38020E+01 2.40303E+01-3.14528E-02 1.43366E+00 1.41122E+00 9.16784E-04-3.50633E-02 1.00578E-01 4.24291E+00 5.61119E+00-2.09514E+01



 n o d a l   p r i n t   o u t   f o r   t i m e  s t e p   45405                              ( at time 2.2699728E+01 )

 nodal point  x-rot      y-rot       z-rot       x-rot vel   y-rot vel   z-rot vel   x-rot acc   y-rot acc   z-rot acc
    22626 -2.83458E-01-1.37825E-03-2.78181E-03-2.80254E-02-6.09408E-05-4.48071E-05 1.10916E-03-1.53647E-04 2.21925E-05



 n o d a l   p r i n t   o u t   f o r   t i m e  s t e p   45605                              ( at time 2.2799718E+01 )

 nodal point  x-disp     y-disp      z-disp      x-vel       y-vel       z-vel      x-accl      y-accl      z-accl      x-coor      y-coor      z-coor
    22626 -4.19622E-01 3.39452E+01 2.41719E+01-3.16661E-02 1.43130E+00 1.42084E+00-2.13315E-03-2.36151E-02 9.61475E-02 4.23975E+00 5.75442E+00-2.08098E+01



 n o d a l   p r i n t   o u t   f o r   t i m e  s t e p   45605                              ( at time 2.2799718E+01 )

 nodal point  x-rot      y-rot       z-rot       x-rot vel   y-rot vel   z-rot vel   x-rot acc   y-rot acc   z-rot acc
    22626 -2.86255E-01-1.38397E-03-2.78601E-03-2.79207E-02-4.63254E-05-4.10732E-05 1.04768E-03 1.46168E-04 3.73425E-05



 n o d a l   p r i n t   o u t   f o r   t i m e  s t e p   45805                              ( at time 2.2899708E+01 )

 nodal point  x-disp     y-disp      z-disp      x-vel       y-vel       z-vel      x-accl      y-accl      z-accl      x-coor      y-coor      z-coor
    22626 -4.22721E-01 3.40883E+01 2.43145E+01-3.04761E-02 1.42886E+00 1.43200E+00 1.19009E-02-2.43703E-02 1.11614E-01 4.23665E+00 5.89743E+00-2.06672E+01



 n o d a l   p r i n t   o u t   f o r   t i m e  s t e p   45805                              ( at time 2.2899708E+01 )

 nodal point  x-rot      y-rot       z-rot       x-rot vel   y-rot vel   z-rot vel   x-rot acc   y-rot acc   z-rot acc
    22626 -2.89042E-01-1.38900E-03-2.79048E-03-2.78207E-02-5.26643E-05-4.04460E-05 9.99569E-04-6.33962E-05 6.27308E-06



 n o d a l   p r i n t   o u t   f o r   t i m e  s t e p   46005                              ( at time 2.2999698E+01 )

 nodal point  x-disp     y-disp      z-disp      x-vel       y-vel       z-vel      x-accl      y-accl      z-accl      x-coor      y-coor      z-coor
    22626 -4.25757E-01 3.42310E+01 2.44583E+01-2.99211E-02 1.42702E+00 1.44265E+00 5.55099E-03-1.84553E-02 1.06561E-01 4.23362E+00 6.04019E+00-2.05234E+01



 n o d a l   p r i n t   o u t   f o r   t i m e  s t e p   46005                              ( at time 2.2999698E+01 )

 nodal point  x-rot      y-rot       z-rot       x-rot vel   y-rot vel   z-rot vel   x-rot acc   y-rot acc   z-rot acc
    22626 -2.91818E-01-1.39525E-03-2.79389E-03-2.77005E-02-6.43694E-05-3.02792E-05 1.20232E-03-1.17062E-04 1.01677E-04



 n o d a l   p r i n t   o u t   f o r   t i m e  s t e p   46205                              ( at time 2.3099688E+01 )

 nodal point  x-disp     y-disp      z-disp      x-vel       y-vel       z-vel      x-accl      y-accl      z-accl      x-coor      y-coor      z-coor
    22626 -4.28719E-01 3.43736E+01 2.46030E+01-2.98553E-02 1.42522E+00 1.45198E+00 6.57940E-04-1.79644E-02 9.32832E-02 4.23066E+00 6.18281E+00-2.03787E+01



 n o d a l   p r i n t   o u t   f o r   t i m e  s t e p   46205                              ( at time 2.3099688E+01 )

 nodal point  x-rot      y-rot       z-rot       x-rot vel   y-rot vel   z-rot vel   x-rot acc   y-rot acc   z-rot acc
    22626 -2.94582E-01-1.40123E-03-2.79844E-03-2.75759E-02-6.61574E-05-5.90035E-05 1.24636E-03-1.78824E-05-2.87274E-04



 n o d a l   p r i n t   o u t   f o r   t i m e  s t e p   46405                              ( at time 2.3199678E+01 )

 nodal point  x-disp     y-disp      z-disp      x-vel       y-vel       z-vel      x-accl      y-accl      z-accl      x-coor      y-coor      z-coor
    22626 -4.31720E-01 3.45162E+01 2.47486E+01-2.99690E-02 1.42481E+00 1.46024E+00-1.13688E-03-4.16555E-03 8.26065E-02 4.22766E+00 6.32534E+00-2.02331E+01



 n o d a l   p r i n t   o u t   f o r   t i m e  s t e p   46405                              ( at time 2.3199678E+01 )

 nodal point  x-rot      y-rot       z-rot       x-rot vel   y-rot vel   z-rot vel   x-rot acc   y-rot acc   z-rot acc
    22626 -2.97334E-01-1.40812E-03-2.80469E-03-2.74718E-02-6.39164E-05-5.34663E-05 1.04077E-03 2.24124E-05 5.53766E-05



 n o d a l   p r i n t   o u t   f o r   t i m e  s t e p   46605                              ( at time 2.3299668E+01 )

 nodal point  x-disp     y-disp      z-disp      x-vel       y-vel       z-vel      x-accl      y-accl      z-accl      x-coor      y-coor      z-coor
    22626 -4.34692E-01 3.46586E+01 2.48952E+01-2.93199E-02 1.42463E+00 1.47018E+00 6.49153E-03-1.73469E-03 9.94482E-02 4.22468E+00 6.46779E+00-2.00865E+01



 n o d a l   p r i n t   o u t   f o r   t i m e  s t e p   46605                              ( at time 2.3299668E+01 )

 nodal point  x-rot      y-rot       z-rot       x-rot vel   y-rot vel   z-rot vel   x-rot acc   y-rot acc   z-rot acc
    22626 -3.00074E-01-1.41494E-03-2.80985E-03-2.73469E-02-6.33907E-05-4.86191E-05 1.24941E-03 5.25804E-06 4.84772E-05



 n o d a l   p r i n t   o u t   f o r   t i m e  s t e p   46805                              ( at time 2.3399658E+01 )

 nodal point  x-disp     y-disp      z-disp      x-vel       y-vel       z-vel      x-accl      y-accl      z-accl      x-coor      y-coor      z-coor
    22626 -4.37616E-01 3.48011E+01 2.50425E+01-2.92257E-02 1.42612E+00 1.47675E+00 9.41579E-04 1.49192E-02 6.56319E-02 4.22176E+00 6.61031E+00-1.99392E+01



 n o d a l   p r i n t   o u t   f o r   t i m e  s t e p   46805                              ( at time 2.3399658E+01 )

 nodal point  x-rot      y-rot       z-rot       x-rot vel   y-rot vel   z-rot vel   x-rot acc   y-rot acc   z-rot acc
    22626 -3.02800E-01-1.42166E-03-2.81511E-03-2.71809E-02-7.72528E-05-6.17596E-05 1.66016E-03-1.38634E-04-1.31417E-04



 n o d a l   p r i n t   o u t   f o r   t i m e  s t e p   47005                              ( at time 2.3499648E+01 )

 nodal point  x-disp     y-disp      z-disp      x-vel       y-vel       z-vel      x-accl      y-accl      z-accl      x-coor      y-coor      z-coor
    22626 -4.40495E-01 3.49438E+01 2.51904E+01-2.87698E-02 1.42843E+00 1.48222E+00 4.55961E-03 2.30560E-02 5.47280E-02 4.21888E+00 6.75296E+00-1.97913E+01



 n o d a l   p r i n t   o u t   f o r   t i m e  s t e p   47005                              ( at time 2.3499648E+01 )

 nodal point  x-rot      y-rot       z-rot       x-rot vel   y-rot vel   z-rot vel   x-rot acc   y-rot acc   z-rot acc
    22626 -3.05510E-01-1.42948E-03-2.82134E-03-2.70278E-02-8.60548E-05-7.18236E-05 1.53084E-03-8.80282E-05-1.00649E-04



 n o d a l   p r i n t   o u t   f o r   t i m e  s t e p   47205                              ( at time 2.3599638E+01 )

 nodal point  x-disp     y-disp      z-disp      x-vel       y-vel       z-vel      x-accl      y-accl      z-accl      x-coor      y-coor      z-coor
    22626 -4.43412E-01 3.50867E+01 2.53389E+01-2.94976E-02 1.42988E+00 1.48880E+00-7.27883E-03 1.45177E-02 6.58299E-02 4.21596E+00 6.89583E+00-1.96428E+01



 n o d a l   p r i n t   o u t   f o r   t i m e  s t e p   47205                              ( at time 2.3599638E+01 )

 nodal point  x-rot      y-rot       z-rot       x-rot vel   y-rot vel   z-rot vel   x-rot acc   y-rot acc   z-rot acc
    22626 -3.08206E-01-1.43782E-03-2.82889E-03-2.69008E-02-7.77387E-05-6.16648E-05 1.27059E-03 8.31700E-05 1.01599E-04



 n o d a l   p r i n t   o u t   f o r   t i m e  s t e p   47405                              ( at time 2.3699628E+01 )

 nodal point  x-disp     y-disp      z-disp      x-vel       y-vel       z-vel      x-accl      y-accl      z-accl      x-coor      y-coor      z-coor
    22626 -4.46294E-01 3.52297E+01 2.54881E+01-2.79828E-02 1.43065E+00 1.49439E+00 1.51500E-02 7.69209E-03 5.58869E-02 4.21308E+00 7.03884E+00-1.94936E+01



 n o d a l   p r i n t   o u t   f o r   t i m e  s t e p   47405                              ( at time 2.3699628E+01 )

 nodal point  x-rot      y-rot       z-rot       x-rot vel   y-rot vel   z-rot vel   x-rot acc   y-rot acc   z-rot acc
    22626 -3.10889E-01-1.44611E-03-2.83545E-03-2.67665E-02-8.09144E-05-6.79913E-05 1.34290E-03-3.17599E-05-6.32702E-05



 n o d a l   p r i n t   o u t   f o r   t i m e  s t e p   47605                              ( at time 2.3799618E+01 )

 nodal point  x-disp     y-disp      z-disp      x-vel       y-vel       z-vel      x-accl      y-accl      z-accl      x-coor      y-coor      z-coor
    22626 -4.49121E-01 3.53729E+01 2.56378E+01-2.84580E-02 1.43309E+00 1.49847E+00-4.75306E-03 2.44180E-02 4.08230E-02 4.21025E+00 7.18206E+00-1.93439E+01



 n o d a l   p r i n t   o u t   f o r   t i m e  s t e p   47605                              ( at time 2.3799618E+01 )

 nodal point  x-rot      y-rot       z-rot       x-rot vel   y-rot vel   z-rot vel   x-rot acc   y-rot acc   z-rot acc
    22626 -3.13556E-01-1.45436E-03-2.84271E-03-2.65943E-02-9.17490E-05-8.10512E-05 1.72230E-03-1.08358E-04-1.30613E-04



 n o d a l   p r i n t   o u t   f o r   t i m e  s t e p   47805                              ( at time 2.3899608E+01 )

 nodal point  x-disp     y-disp      z-disp      x-vel       y-vel       z-vel      x-accl      y-accl      z-accl      x-coor      y-coor      z-coor
    22626 -4.51974E-01 3.55164E+01 2.57877E+01-2.87922E-02 1.43619E+00 1.50089E+00-3.34236E-03 3.10199E-02 2.42136E-02 4.20740E+00 7.32554E+00-1.91940E+01



 n o d a l   p r i n t   o u t   f o r   t i m e  s t e p   47805                              ( at time 2.3899608E+01 )

 nodal point  x-rot      y-rot       z-rot       x-rot vel   y-rot vel   z-rot vel   x-rot acc   y-rot acc   z-rot acc
    22626 -3.16207E-01-1.46339E-03-2.85028E-03-2.64567E-02-9.52702E-05-7.03792E-05 1.37582E-03-3.52151E-05 1.06729E-04



 n o d a l   p r i n t   o u t   f o r   t i m e  s t e p   48005                              ( at time 2.3999598E+01 )

 nodal point  x-disp     y-disp      z-disp      x-vel       y-vel       z-vel      x-accl      y-accl      z-accl      x-coor      y-coor      z-coor
    22626 -4.54776E-01 3.56601E+01 2.59381E+01-2.74338E-02 1.43845E+00 1.50615E+00 1.35857E-02 2.25199E-02 5.25509E-02 4.20460E+00 7.46926E+00-1.90437E+01



 n o d a l   p r i n t   o u t   f o r   t i m e  s t e p   48005                              ( at time 2.3999598E+01 )

 nodal point  x-rot      y-rot       z-rot       x-rot vel   y-rot vel   z-rot vel   x-rot acc   y-rot acc   z-rot acc
    22626 -3.18845E-01-1.47258E-03-2.85835E-03-2.63000E-02-8.68995E-05-8.46248E-05 1.56707E-03 8.37159E-05-1.42472E-04



 n o d a l   p r i n t   o u t   f o r   t i m e  s t e p   48205                              ( at time 2.4099588E+01 )

 nodal point  x-disp     y-disp      z-disp      x-vel       y-vel       z-vel      x-accl      y-accl      z-accl      x-coor      y-coor      z-coor
    22626 -4.57537E-01 3.58041E+01 2.60887E+01-2.73169E-02 1.44165E+00 1.50653E+00 1.16892E-03 3.20833E-02 3.84366E-03 4.20184E+00 7.61327E+00-1.88930E+01



 n o d a l   p r i n t   o u t   f o r   t i m e  s t e p   48205                              ( at time 2.4099588E+01 )

 nodal point  x-rot      y-rot       z-rot       x-rot vel   y-rot vel   z-rot vel   x-rot acc   y-rot acc   z-rot acc
    22626 -3.21467E-01-1.48223E-03-2.86661E-03-2.61319E-02-8.61720E-05-8.00489E-05 1.68095E-03 7.27561E-06 4.57631E-05



 n o d a l   p r i n t   o u t   f o r   t i m e  s t e p   48405                              ( at time 2.4199578E+01 )

 nodal point  x-disp     y-disp      z-disp      x-vel       y-vel       z-vel      x-accl      y-accl      z-accl      x-coor      y-coor      z-coor
    22626 -4.60391E-01 3.59483E+01 2.62393E+01-2.96189E-02 1.44413E+00 1.50626E+00-2.30221E-02 2.47744E-02-2.71231E-03 4.19898E+00 7.75752E+00-1.87424E+01



 n o d a l   p r i n t   o u t   f o r   t i m e  s t e p   48405                              ( at time 2.4199578E+01 )

 nodal point  x-rot      y-rot       z-rot       x-rot vel   y-rot vel   z-rot vel   x-rot acc   y-rot acc   z-rot acc
    22626 -3.24073E-01-1.49066E-03-2.87499E-03-2.59911E-02-8.93145E-05-9.33278E-05 1.40874E-03-3.14279E-05-1.32803E-04



 n o d a l   p r i n t   o u t   f o r   t i m e  s t e p   48605                              ( at time 2.4299568E+01 )

 nodal point  x-disp     y-disp      z-disp      x-vel       y-vel       z-vel      x-accl      y-accl      z-accl      x-coor      y-coor      z-coor
    22626 -4.63291E-01 3.60929E+01 2.63900E+01-2.86501E-02 1.44750E+00 1.50798E+00 9.68910E-03 3.37131E-02 1.71939E-02 4.19608E+00 7.90207E+00-1.85917E+01



 n o d a l   p r i n t   o u t   f o r   t i m e  s t e p   48605                              ( at time 2.4299568E+01 )

 nodal point  x-rot      y-rot       z-rot       x-rot vel   y-rot vel   z-rot vel   x-rot acc   y-rot acc   z-rot acc
    22626 -3.26664E-01-1.49965E-03-2.88400E-03-2.58390E-02-9.51968E-05-8.78072E-05 1.52134E-03-5.88289E-05 5.52112E-05



 n o d a l   p r i n t   o u t   f o r   t i m e  s t e p   48805                              ( at time 2.4399558E+01 )

 nodal point  x-disp     y-disp      z-disp      x-vel       y-vel       z-vel      x-accl      y-accl      z-accl      x-coor      y-coor      z-coor
    22626 -4.66125E-01 3.62378E+01 2.65408E+01-2.75551E-02 1.45047E+00 1.50753E+00 1.09509E-02 2.97001E-02-4.47553E-03 4.19325E+00 8.04693E+00-1.84409E+01



 n o d a l   p r i n t   o u t   f o r   t i m e  s t e p   48805                              ( at time 2.4399558E+01 )

 nodal point  x-rot      y-rot       z-rot       x-rot vel   y-rot vel   z-rot vel   x-rot acc   y-rot acc   z-rot acc
    22626 -3.29239E-01-1.50786E-03-2.89177E-03-2.56796E-02-7.91799E-05-8.62179E-05 1.59356E-03 1.60184E-04 1.58943E-05



 n o d a l   p r i n t   o u t   f o r   t i m e  s t e p   49006                              ( at time 2.4500048E+01 )

 nodal point  x-disp     y-disp      z-disp      x-vel       y-vel       z-vel      x-accl      y-accl      z-accl      x-coor      y-coor      z-coor
    22626 -4.68968E-01 3.63837E+01 2.66922E+01-2.93871E-02 1.45306E+00 1.50619E+00-1.82315E-02 2.57972E-02-1.33802E-02 4.19041E+00 8.19285E+00-1.82895E+01



 n o d a l   p r i n t   o u t   f o r   t i m e  s t e p   49006                              ( at time 2.4500048E+01 )

 nodal point  x-rot      y-rot       z-rot       x-rot vel   y-rot vel   z-rot vel   x-rot acc   y-rot acc   z-rot acc
    22626 -3.31811E-01-1.51658E-03-2.90140E-03-2.55369E-02-9.49501E-05-9.74377E-05 1.41981E-03-1.56936E-04-1.11653E-04



 n o d a l   p r i n t   o u t   f o r   t i m e  s t e p   49206                              ( at time 2.4600038E+01 )

 nodal point  x-disp     y-disp      z-disp      x-vel       y-vel       z-vel      x-accl      y-accl      z-accl      x-coor      y-coor      z-coor
    22626 -4.71891E-01 3.65291E+01 2.68428E+01-2.88759E-02 1.45589E+00 1.50516E+00 5.11315E-03 2.82755E-02-1.02517E-02 4.18748E+00 8.33828E+00-1.81389E+01



 n o d a l   p r i n t   o u t   f o r   t i m e  s t e p   49206                              ( at time 2.4600038E+01 )

 nodal point  x-rot      y-rot       z-rot       x-rot vel   y-rot vel   z-rot vel   x-rot acc   y-rot acc   z-rot acc
    22626 -3.34357E-01-1.52536E-03-2.91088E-03-2.53801E-02-7.99686E-05-8.51218E-05 1.56894E-03 1.49829E-04 1.23170E-04



 n o d a l   p r i n t   o u t   f o r   t i m e  s t e p   49406                              ( at time 2.4700028E+01 )

 nodal point  x-disp     y-disp      z-disp      x-vel       y-vel       z-vel      x-accl      y-accl      z-accl      x-coor      y-coor      z-coor
    22626 -4.74756E-01 3.66748E+01 2.69931E+01-2.89556E-02 1.45906E+00 1.50208E+00-7.97002E-04 3.16524E-02-3.07689E-02 4.18462E+00 8.48401E+00-1.79886E+01



 n o d a l   p r i n t   o u t   f o r   t i m e  s t e p   49406                              ( at time 2.4700028E+01 )

 nodal point  x-rot      y-rot       z-rot       x-rot vel   y-rot vel   z-rot vel   x-rot acc   y-rot acc   z-rot acc
    22626 -3.36887E-01-1.53262E-03-2.91899E-03-2.52124E-02-7.45088E-05-8.72435E-05 1.67649E-03 5.46035E-05-2.12193E-05



 n o d a l   p r i n t   o u t   f o r   t i m e  s t e p   49606                              ( at time 2.4800018E+01 )

 nodal point  x-disp     y-disp      z-disp      x-vel       y-vel       z-vel      x-accl      y-accl      z-accl      x-coor      y-coor      z-coor
    22626 -4.77733E-01 3.68210E+01 2.71432E+01-2.98680E-02 1.46381E+00 1.49843E+00-9.12513E-03 4.75867E-02-3.65839E-02 4.18164E+00 8.63015E+00-1.78386E+01



 n o d a l   p r i n t   o u t   f o r   t i m e  s t e p   49606                              ( at time 2.4800018E+01 )

 nodal point  x-rot      y-rot       z-rot       x-rot vel   y-rot vel   z-rot vel   x-rot acc   y-rot acc   z-rot acc
    22626 -3.39400E-01-1.54093E-03-2.92856E-03-2.50581E-02-8.25079E-05-1.02402E-04 1.54358E-03-7.99983E-05-1.51602E-04



 n o d a l   p r i n t   o u t   f o r   t i m e  s t e p   49806                              ( at time 2.4900008E+01 )

 nodal point  x-disp     y-disp      z-disp      x-vel       y-vel       z-vel      x-accl      y-accl      z-accl      x-coor      y-coor      z-coor
    22626 -4.80638E-01 3.69675E+01 2.72929E+01-2.86475E-02 1.46704E+00 1.49625E+00 1.22064E-02 3.22115E-02-2.17736E-02 4.17874E+00 8.77668E+00-1.76888E+01



 n o d a l   p r i n t   o u t   f o r   t i m e  s t e p   49806                              ( at time 2.4900008E+01 )

 nodal point  x-rot      y-rot       z-rot       x-rot vel   y-rot vel   z-rot vel   x-rot acc   y-rot acc   z-rot acc
    22626 -3.41898E-01-1.54910E-03-2.93863E-03-2.48932E-02-7.63247E-05-8.86130E-05 1.64935E-03 6.18391E-05 1.37908E-04



 n o d a l   p r i n t   o u t   f o r   t i m e  s t e p   50006                              ( at time 2.4999998E+01 )

 nodal point  x-disp     y-disp      z-disp      x-vel       y-vel       z-vel      x-accl      y-accl      z-accl      x-coor      y-coor      z-coor
    22626 -4.83519E-01 3.71144E+01 2.74422E+01-2.90953E-02 1.47059E+00 1.49106E+00-4.47841E-03 3.55455E-02-5.19240E-02 4.17586E+00 8.92359E+00-1.75395E+01



 n o d a l   p r i n t   o u t   f o r   t i m e  s t e p   50006                              ( at time 2.4999998E+01 )

 nodal point  x-rot      y-rot       z-rot       x-rot vel   y-rot vel   z-rot vel   x-rot acc   y-rot acc   z-rot acc
    22626 -3.44379E-01-1.55735E-03-2.94716E-03-2.47218E-02-8.58085E-05-8.81239E-05 1.71414E-03-9.48469E-05 4.89142E-06
