 LSTC 50th% Full_FE H-III Dummy (Beta Version, February 17, 2019)        
                    ls-dyna smp s R16 R16.0_619_d222963 date 03/18/2025

{BEGIN LEGEND}
 Entity #        Title
        1     Upper_Neck_Force_INJURY                                              
{END LEGEND}



 line#1  section#     time        x-force     y-force     z-force    magnitude
 line#2  resultant  moments       x-moment    y-moment    z-moment   magnitude
 line#3  centroids                x           y           z            area  
           1    0.00000E+00     0.0000E+00  0.0000E+00  0.0000E+00  0.0000E+00
ac ID =   33377                 0.0000E+00  0.0000E+00  0.0000E+00  0.0000E+00
                               -3.7437E-01  1.0501E+01 -4.6940E+01  0.0000E+00

           1    1.00490E-01     1.3629E-04 -4.9880E-03  2.5983E-01  2.5988E-01
ac ID =   33377                 4.2544E-01 -1.2521E+00 -2.7100E-02  1.3227E+00
                               -3.7387E-01  1.0590E+01 -4.6886E+01  2.5147E+03

           1    2.00480E-01    -4.4324E-02  5.8779E-04  4.4123E-01  4.4345E-01
ac ID =   33377                 3.0997E-01 -1.5985E+00  2.0356E-02  1.6284E+00
                               -3.7386E-01  1.0591E+01 -4.6888E+01  2.5147E+03

           1    3.00470E-01     1.4865E-02 -3.2028E-03  2.1719E-01  2.1772E-01
ac ID =   33377                 2.4569E-02 -3.3779E-01  6.6957E-02  3.4524E-01
                               -3.7382E-01  1.0591E+01 -4.6889E+01  2.5147E+03

           1    4.00460E-01     2.9007E-03  1.0963E-02  8.8213E-02  8.8939E-02
ac ID =   33377                -4.9434E-01 -9.4437E-01  2.7809E-03  1.0659E+00
                               -3.7383E-01  1.0592E+01 -4.6890E+01  2.5147E+03

           1    5.00450E-01    -4.0855E-02  4.2489E-03  1.6179E-01  1.6692E-01
ac ID =   33377                -3.9717E-01 -1.5063E+00 -1.0823E-01  1.5615E+00
                               -3.7385E-01  1.0594E+01 -4.6893E+01  2.5147E+03

           1    6.00440E-01    -1.0771E-02  4.1216E-03  3.4342E-01  3.4361E-01
ac ID =   33377                 9.1893E-02 -1.3254E+00 -3.1914E-02  1.3290E+00
                               -3.7385E-01  1.0595E+01 -4.6897E+01  2.5147E+03

           1    7.00430E-01     2.7459E-03 -5.5778E-03  2.9431E-01  2.9437E-01
ac ID =   33377                 1.3181E-01 -5.0526E-01  8.7370E-02  5.2943E-01
                               -3.7389E-01  1.0597E+01 -4.6901E+01  2.5147E+03

           1    8.00420E-01    -3.0882E-02 -1.3972E-03  1.0051E-01  1.0515E-01
ac ID =   33377                 7.8791E-02 -1.0598E+00  4.8665E-02  1.0638E+00
                               -3.7394E-01  1.0599E+01 -4.6905E+01  2.5147E+03

           1    9.00410E-01    -3.2637E-02  1.0260E-03  5.5387E-02  6.4295E-02
ac ID =   33377                 8.6808E-02 -9.9634E-01 -9.4479E-03  1.0002E+00
                               -3.7398E-01  1.0601E+01 -4.6909E+01  2.5147E+03

           1    1.00040E+00     4.1354E-02 -2.5928E-03  1.7865E-01  1.8340E-01
ac ID =   33377                 3.4684E-01  3.1855E-01 -8.8906E-02  4.7925E-01
                               -3.7400E-01  1.0604E+01 -4.6915E+01  2.5147E+03

           1    1.10039E+00     3.7648E-02 -1.3086E-03  2.1147E-01  2.1480E-01
ac ID =   33377                 2.9046E-01 -1.5318E-01 -3.4887E-02  3.3022E-01
                               -3.7401E-01  1.0608E+01 -4.6921E+01  2.5147E+03

           1    1.20038E+00     1.3725E-02  1.1337E-04  5.9349E-02  6.0916E-02
ac ID =   33377                -1.6950E-01 -3.2025E-01  2.4761E-02  3.6319E-01
                               -3.7402E-01  1.0612E+01 -4.6928E+01  2.5147E+03

           1    1.30037E+00     5.5916E-02  6.1768E-03 -2.3564E-02  6.0992E-02
ac ID =   33377                -3.5525E-01  5.9699E-01 -2.5766E-02  6.9517E-01
                               -3.7404E-01  1.0618E+01 -4.6935E+01  2.5147E+03

           1    1.40036E+00     8.6644E-02  4.9084E-03  4.1026E-02  9.5991E-02
ac ID =   33377                -3.2012E-01  8.8807E-01 -3.4096E-02  9.4462E-01
                               -3.7406E-01  1.0626E+01 -4.6944E+01  2.5147E+03

           1    1.50035E+00     4.9350E-02  8.7539E-03  1.6998E-01  1.7722E-01
ac ID =   33377                -1.9035E-01  3.4685E-01 -6.6136E-02  4.0113E-01
                               -3.7409E-01  1.0636E+01 -4.6954E+01  2.5147E+03

           1    1.60034E+00     9.5394E-02 -2.7222E-03  2.9190E-02  9.9797E-02
ac ID =   33377                -1.3601E-01  1.3601E+00  3.9128E-02  1.3674E+00
                               -3.7410E-01  1.0647E+01 -4.6964E+01  2.5147E+03

           1    1.70033E+00     1.2379E-01  1.7685E-03 -1.5281E-01  1.9667E-01
ac ID =   33377                -5.7570E-02  2.3643E+00  3.7316E-01  2.3943E+00
                               -3.7416E-01  1.0661E+01 -4.6975E+01  2.5147E+03

           1    1.80032E+00     9.4430E-02  5.3750E-03 -1.5979E-01  1.8568E-01
ac ID =   33377                 6.5900E-02  1.4063E+00  4.7024E-01  1.4843E+00
                               -3.7424E-01  1.0678E+01 -4.6988E+01  2.5147E+03

           1    1.90031E+00     1.1383E-01  4.3728E-03 -8.9065E-02  1.4460E-01
ac ID =   33377                -1.0651E-01  2.6897E+00  7.6605E-02  2.6929E+00
                               -3.7429E-01  1.0698E+01 -4.7003E+01  2.5147E+03

           1    2.00030E+00     1.2348E-01 -1.3505E-02 -1.1062E-01  1.6633E-01
ac ID =   33377                 3.6314E-01  2.5075E+00  3.1895E-02  2.5339E+00
                               -3.7434E-01  1.0720E+01 -4.7017E+01  2.5147E+03

           1    2.10029E+00     1.2223E-01  7.7481E-03 -2.6986E-01  2.9635E-01
ac ID =   33377                -1.1461E-01  2.0674E+00 -3.5906E-03  2.0705E+00
                               -3.7444E-01  1.0745E+01 -4.7033E+01  2.5147E+03

           1    2.20028E+00     1.3147E-01  1.1963E-02 -2.9373E-01  3.2204E-01
ac ID =   33377                -6.8043E-01  2.8954E+00 -1.2505E-01  2.9769E+00
                               -3.7452E-01  1.0773E+01 -4.7050E+01  2.5147E+03

           1    2.30027E+00     1.6151E-01  1.2070E-03 -1.9099E-01  2.5013E-01
ac ID =   33377                -2.3536E-01  2.5427E+00  6.1632E-02  2.5543E+00
                               -3.7461E-01  1.0804E+01 -4.7068E+01  2.5147E+03

           1    2.40026E+00     1.2810E-01  1.9104E-03 -1.9063E-01  2.2968E-01
ac ID =   33377                -4.0938E-01  2.6241E+00 -3.4318E-02  2.6561E+00
                               -3.7476E-01  1.0838E+01 -4.7086E+01  2.5147E+03

           1    2.50025E+00     1.3830E-01  8.2505E-03 -4.1162E-01  4.3431E-01
ac ID =   33377                -5.4123E-01  2.5981E+00  1.6794E-01  2.6592E+00
                               -3.7492E-01  1.0874E+01 -4.7105E+01  2.5147E+03

           1    2.60024E+00     1.6339E-01  1.3947E-02 -4.9652E-01  5.2290E-01
ac ID =   33377                -4.6160E-01  3.9968E+00 -1.5114E-01  4.0262E+00
                               -3.7516E-01  1.0914E+01 -4.7125E+01  2.5147E+03

           1    2.70023E+00     1.9022E-01 -3.3834E-03 -4.4329E-01  4.8239E-01
ac ID =   33377                -2.5653E-01  4.0708E+00  2.9842E-01  4.0898E+00
                               -3.7535E-01  1.0957E+01 -4.7145E+01  2.5147E+03

           1    2.80022E+00     1.9626E-01  1.7209E-03 -4.6055E-01  5.0063E-01
ac ID =   33377                 1.3974E-01  4.4207E+00  2.9814E-01  4.4329E+00
                               -3.7557E-01  1.1004E+01 -4.7167E+01  2.5147E+03

           1    2.90021E+00     2.1223E-01  1.0112E-02 -5.9595E-01  6.3269E-01
ac ID =   33377                -2.4816E-01  5.2723E+00 -2.5839E-01  5.2845E+00
                               -3.7581E-01  1.1055E+01 -4.7189E+01  2.5147E+03

           1    3.00020E+00     2.0951E-01  5.9066E-03 -7.0425E-01  7.3478E-01
ac ID =   33377                -3.7464E-01  5.3439E+00 -4.4157E-01  5.3751E+00
                               -3.7604E-01  1.1109E+01 -4.7211E+01  2.5147E+03

           1    3.10019E+00     2.1981E-01 -3.3396E-03 -6.5251E-01  6.8855E-01
ac ID =   33377                -4.1881E-01  4.9066E+00 -2.0018E-01  4.9285E+00
                               -3.7624E-01  1.1168E+01 -4.7235E+01  2.5147E+03

           1    3.20018E+00     2.5344E-01  2.0028E-02 -6.5244E-01  7.0022E-01
ac ID =   33377                -5.0581E-01  5.2434E+00  1.5195E-02  5.2677E+00
                               -3.7649E-01  1.1231E+01 -4.7259E+01  2.5147E+03

           1    3.30017E+00     1.9698E-01 -4.5823E-03 -7.4763E-01  7.7316E-01
ac ID =   33377                -4.7591E-01  5.5022E+00  5.8231E-01  5.5534E+00
                               -3.7677E-01  1.1298E+01 -4.7283E+01  2.5147E+03

           1    3.40016E+00     2.6020E-01 -1.7890E-02 -9.5393E-01  9.8895E-01
ac ID =   33377                -1.0010E-01  6.7287E+00 -2.2904E-02  6.7295E+00
                               -3.7715E-01  1.1368E+01 -4.7307E+01  2.5147E+03

           1    3.50015E+00     2.5811E-01  2.4640E-02 -1.0566E+00  1.0880E+00
ac ID =   33377                -1.3122E+00  7.4274E+00 -2.6172E-02  7.5425E+00
                               -3.7759E-01  1.1442E+01 -4.7332E+01  2.5147E+03

           1    3.60014E+00     2.5792E-01 -8.7466E-03 -1.0188E+00  1.0510E+00
ac ID =   33377                 6.6148E-01  8.3097E+00  5.6008E-01  8.3548E+00
                               -3.7800E-01  1.1521E+01 -4.7357E+01  2.5147E+03

           1    3.70013E+00     2.8791E-01 -2.5263E-02 -1.0966E+00  1.1341E+00
ac ID =   33377                 3.5416E-01  8.9329E+00  1.1772E+00  9.0171E+00
                               -3.7839E-01  1.1605E+01 -4.7383E+01  2.5147E+03

           1    3.80012E+00     3.2699E-01  2.2692E-02 -1.2441E+00  1.2865E+00
ac ID =   33377                -7.3415E-01  9.0755E+00  5.8181E-01  9.1237E+00
                               -3.7884E-01  1.1692E+01 -4.7408E+01  2.5147E+03

           1    3.90011E+00     3.4647E-01  8.1506E-04 -1.3575E+00  1.4011E+00
ac ID =   33377                -3.4585E-01  1.0595E+01 -7.0839E-01  1.0625E+01
                               -3.7932E-01  1.1783E+01 -4.7433E+01  2.5147E+03

           1    4.00010E+00     2.7590E-01 -1.7090E-02 -1.3547E+00  1.3826E+00
ac ID =   33377                -1.1294E-01  1.0122E+01 -6.3533E-01  1.0142E+01
                               -3.7975E-01  1.1879E+01 -4.7459E+01  2.5147E+03

           1    4.10009E+00     3.2923E-01  2.0717E-02 -1.3850E+00  1.4237E+00
ac ID =   33377                -9.1474E-01  1.0701E+01  3.9002E-01  1.0747E+01
                               -3.8019E-01  1.1979E+01 -4.7484E+01  2.5147E+03

           1    4.20008E+00     3.3274E-01  1.7030E-02 -1.5201E+00  1.5561E+00
ac ID =   33377                -9.1720E-01  1.1867E+01  4.3135E-01  1.1910E+01
                               -3.8078E-01  1.2083E+01 -4.7509E+01  2.5147E+03

           1    4.30007E+00     3.4985E-01 -1.6609E-03 -1.6760E+00  1.7121E+00
ac ID =   33377                -9.9027E-02  1.2504E+01  2.9988E-03  1.2504E+01
                               -3.8130E-01  1.2190E+01 -4.7533E+01  2.5147E+03

           1    4.40006E+00     3.5576E-01 -2.8131E-03 -1.7026E+00  1.7393E+00
ac ID =   33377                -3.8273E-01  1.3576E+01 -1.5314E-01  1.3582E+01
                               -3.8176E-01  1.2302E+01 -4.7557E+01  2.5147E+03

           1    4.50005E+00     4.1612E-01  1.6591E-02 -1.7288E+00  1.7783E+00
ac ID =   33377                -2.5806E-01  1.4858E+01  3.3351E-02  1.4860E+01
                               -3.8235E-01  1.2417E+01 -4.7581E+01  2.5147E+03

           1    4.60004E+00     4.0608E-01 -1.9478E-02 -1.8413E+00  1.8857E+00
ac ID =   33377                 3.7429E-01  1.5671E+01 -3.3422E-01  1.5679E+01
                               -3.8288E-01  1.2537E+01 -4.7604E+01  2.5147E+03

           1    4.70003E+00     4.3457E-01  1.3299E-03 -1.9850E+00  2.0321E+00
ac ID =   33377                -6.8514E-02  1.6538E+01 -8.2932E-01  1.6558E+01
                               -3.8333E-01  1.2660E+01 -4.7626E+01  2.5147E+03

           1    4.80002E+00     4.7915E-01  5.7068E-03 -2.1473E+00  2.2001E+00
ac ID =   33377                -1.1128E+00  1.8420E+01 -5.0068E-01  1.8461E+01
                               -3.8382E-01  1.2788E+01 -4.7648E+01  2.5147E+03

           1    4.90001E+00     4.7273E-01 -1.8462E-03 -2.1493E+00  2.2007E+00
ac ID =   33377                 3.0653E-02  1.9210E+01 -2.2996E-01  1.9212E+01
                               -3.8441E-01  1.2919E+01 -4.7669E+01  2.5147E+03

           1    5.00000E+00     4.5392E-01 -3.0258E-03 -2.2153E+00  2.2613E+00
ac ID =   33377                -7.0312E-01  1.9710E+01  5.1335E-01  1.9729E+01
                               -3.8482E-01  1.3054E+01 -4.7689E+01  2.5147E+03

           1    5.10049E+00     5.0728E-01  4.4627E-03 -2.4227E+00  2.4752E+00
ac ID =   33377                -6.4173E-01  2.2341E+01  4.2559E-01  2.2354E+01
                               -3.8538E-01  1.3194E+01 -4.7708E+01  2.5147E+03

           1    5.20048E+00     5.0733E-01  2.2825E-02 -2.4879E+00  2.5392E+00
ac ID =   33377                -8.2243E-01  2.2948E+01 -6.8261E-02  2.2963E+01
                               -3.8600E-01  1.3336E+01 -4.7725E+01  2.5147E+03

           1    5.30047E+00     5.1442E-01 -3.1368E-02 -2.5748E+00  2.6259E+00
ac ID =   33377                 5.4637E-01  2.4293E+01  4.9507E-02  2.4299E+01
                               -3.8652E-01  1.3482E+01 -4.7742E+01  2.5147E+03

           1    5.40046E+00     5.5086E-01  1.5072E-02 -2.6410E+00  2.6979E+00
ac ID =   33377                -5.1189E-01  2.5755E+01  6.1512E-01  2.5767E+01
                               -3.8705E-01  1.3632E+01 -4.7757E+01  2.5147E+03

           1    5.50045E+00     5.7820E-01  2.3197E-03 -2.7453E+00  2.8055E+00
ac ID =   33377                 2.4449E-02  2.7144E+01  8.0998E-03  2.7144E+01
                               -3.8772E-01  1.3785E+01 -4.7770E+01  2.5147E+03

           1    5.60044E+00     5.5694E-01 -2.2985E-02 -2.9025E+00  2.9556E+00
ac ID =   33377                 4.8089E-01  2.7929E+01 -6.2348E-02  2.7933E+01
                               -3.8829E-01  1.3940E+01 -4.7780E+01  2.5147E+03

           1    5.70043E+00     5.8774E-01 -2.0318E-03 -2.9629E+00  3.0207E+00
ac ID =   33377                -8.3046E-01  2.9735E+01 -1.3101E-01  2.9747E+01
                               -3.8883E-01  1.4099E+01 -4.7789E+01  2.5147E+03

           1    5.80042E+00     5.8799E-01  6.2916E-03 -2.9924E+00  3.0496E+00
ac ID =   33377                -3.2407E-01  3.0833E+01 -1.5626E-01  3.0835E+01
                               -3.8950E-01  1.4261E+01 -4.7796E+01  2.5147E+03

           1    5.90041E+00     5.9429E-01 -1.5256E-02 -3.0667E+00  3.1238E+00
ac ID =   33377                -2.4416E-01  3.2087E+01  1.2296E-01  3.2089E+01
                               -3.9016E-01  1.4425E+01 -4.7800E+01  2.5147E+03

           1    6.00040E+00     6.0728E-01  7.2565E-03 -3.1584E+00  3.2162E+00
ac ID =   33377                -7.0063E-01  3.3870E+01  4.6781E-02  3.3877E+01
                               -3.9085E-01  1.4591E+01 -4.7801E+01  2.5147E+03

           1    6.10039E+00     6.3135E-01  4.3518E-04 -3.2280E+00  3.2892E+00
ac ID =   33377                -4.6038E-01  3.4922E+01  6.8504E-02  3.4925E+01
                               -3.9153E-01  1.4760E+01 -4.7800E+01  2.5147E+03

           1    6.20038E+00     6.1400E-01 -4.9651E-03 -3.2937E+00  3.3505E+00
ac ID =   33377                -7.2347E-02  3.5963E+01 -7.1871E-01  3.5970E+01
                               -3.9229E-01  1.4931E+01 -4.7795E+01  2.5147E+03

           1    6.30037E+00     6.5294E-01  8.9248E-03 -3.3688E+00  3.4315E+00
ac ID =   33377                -4.9463E-01  3.7570E+01 -5.9822E-01  3.7578E+01
                               -3.9297E-01  1.5104E+01 -4.7788E+01  2.5147E+03

           1    6.40036E+00     6.6669E-01 -9.0265E-03 -3.5096E+00  3.5724E+00
ac ID =   33377                -8.5720E-02  3.9273E+01 -3.5310E-01  3.9275E+01
                               -3.9369E-01  1.5279E+01 -4.7777E+01  2.5147E+03

           1    6.50035E+00     6.7003E-01  1.4903E-03 -3.6186E+00  3.6801E+00
ac ID =   33377                -3.2118E-01  4.0937E+01 -1.1717E-01  4.0938E+01
                               -3.9444E-01  1.5455E+01 -4.7762E+01  2.5147E+03

           1    6.60034E+00     6.8922E-01  1.2330E-02 -3.6651E+00  3.7293E+00
ac ID =   33377                -8.3485E-01  4.2617E+01  1.1229E-01  4.2626E+01
                               -3.9516E-01  1.5633E+01 -4.7744E+01  2.5147E+03

           1    6.70033E+00     7.2893E-01 -4.6640E-03 -3.7323E+00  3.8028E+00
ac ID =   33377                -9.0266E-01  4.4425E+01  3.0831E-01  4.4435E+01
                               -3.9585E-01  1.5813E+01 -4.7723E+01  2.5147E+03

           1    6.80032E+00     6.8156E-01 -3.0808E-03 -3.7880E+00  3.8488E+00
ac ID =   33377                -3.5710E-01  4.5050E+01  5.7533E-02  4.5051E+01
                               -3.9661E-01  1.5994E+01 -4.7697E+01  2.5147E+03

           1    6.90031E+00     7.1214E-01  5.0731E-03 -3.8902E+00  3.9548E+00
ac ID =   33377                -8.4898E-01  4.6407E+01 -1.7262E-02  4.6415E+01
                               -3.9733E-01  1.6177E+01 -4.7668E+01  2.5147E+03

           1    7.00030E+00     7.3215E-01  1.9376E-02 -3.9301E+00  3.9977E+00
ac ID =   33377                -1.1445E+00  4.7911E+01 -3.8516E-02  4.7924E+01
                               -3.9808E-01  1.6361E+01 -4.7634E+01  2.5147E+03

           1    7.10029E+00     7.2353E-01 -1.7222E-02 -3.9915E+00  4.0566E+00
ac ID =   33377                -1.2640E-01  4.8788E+01 -1.4594E-01  4.8788E+01
                               -3.9879E-01  1.6546E+01 -4.7596E+01  2.5147E+03

           1    7.20028E+00     7.1014E-01  1.3574E-02 -4.0840E+00  4.1453E+00
ac ID =   33377                -8.7724E-01  5.0013E+01 -4.4436E-01  5.0022E+01
                               -3.9948E-01  1.6732E+01 -4.7554E+01  2.5147E+03

           1    7.30027E+00     7.5364E-01  1.9262E-02 -4.1073E+00  4.1759E+00
ac ID =   33377                -9.5177E-01  5.1404E+01 -6.6450E-01  5.1418E+01
                               -4.0019E-01  1.6918E+01 -4.7507E+01  2.5147E+03

           1    7.40026E+00     7.4552E-01 -4.4158E-03 -4.1312E+00  4.1979E+00
ac ID =   33377                -1.5968E-01  5.2912E+01 -1.0054E-01  5.2912E+01
                               -4.0082E-01  1.7106E+01 -4.7456E+01  2.5147E+03

           1    7.50025E+00     7.4296E-01 -2.3360E-03 -4.1535E+00  4.2194E+00
ac ID =   33377                -6.2465E-01  5.3215E+01 -1.0800E-02  5.3219E+01
                               -4.0142E-01  1.7294E+01 -4.7400E+01  2.5147E+03

           1    7.60024E+00     7.4118E-01  3.0831E-02 -4.1290E+00  4.1951E+00
ac ID =   33377                -1.4796E+00  5.3992E+01 -4.5408E-02  5.4012E+01
                               -4.0202E-01  1.7483E+01 -4.7339E+01  2.5147E+03

           1    7.70023E+00     7.7795E-01 -1.1629E-02 -4.1554E+00  4.2277E+00
ac ID =   33377                -2.1285E-01  5.5664E+01 -1.5478E-01  5.5664E+01
                               -4.0257E-01  1.7672E+01 -4.7273E+01  2.5147E+03

           1    7.80022E+00     7.4116E-01 -2.2704E-02 -4.2096E+00  4.2744E+00
ac ID =   33377                -5.5910E-01  5.6086E+01  1.6090E-02  5.6089E+01
                               -4.0307E-01  1.7861E+01 -4.7203E+01  2.5147E+03

           1    7.90021E+00     7.5653E-01  2.4139E-02 -4.2316E+00  4.2988E+00
ac ID =   33377                -1.3503E+00  5.7829E+01  1.5811E-01  5.7845E+01
                               -4.0367E-01  1.8051E+01 -4.7127E+01  2.5147E+03

           1    8.00020E+00     7.8718E-01  9.4745E-03 -4.2588E+00  4.3310E+00
ac ID =   33377                -8.6993E-01  5.9379E+01  2.3849E-01  5.9386E+01
                               -4.0417E-01  1.8242E+01 -4.7047E+01  2.5147E+03

           1    8.10019E+00     7.4616E-01 -1.6778E-02 -4.2715E+00  4.3362E+00
ac ID =   33377                -5.9604E-02  5.9687E+01  2.1942E-01  5.9688E+01
                               -4.0458E-01  1.8433E+01 -4.6962E+01  2.5147E+03

           1    8.20018E+00     7.6852E-01  1.8132E-02 -4.2817E+00  4.3501E+00
ac ID =   33377                -7.9273E-01  6.1587E+01 -4.7871E-01  6.1594E+01
                               -4.0505E-01  1.8624E+01 -4.6872E+01  2.5147E+03

           1    8.30017E+00     7.9158E-01  1.9463E-02 -4.2849E+00  4.3574E+00
ac ID =   33377                -1.4037E+00  6.2643E+01 -8.2376E-01  6.2664E+01
                               -4.0544E-01  1.8816E+01 -4.6777E+01  2.5147E+03

           1    8.40016E+00     7.8282E-01 -5.4938E-03 -4.2647E+00  4.3359E+00
ac ID =   33377                -1.7363E-01  6.2904E+01 -3.8797E-01  6.2906E+01
                               -4.0578E-01  1.9007E+01 -4.6677E+01  2.5147E+03

           1    8.50015E+00     7.5866E-01 -6.6641E-03 -4.2350E+00  4.3025E+00
ac ID =   33377                -5.4060E-01  6.3699E+01 -2.0506E-01  6.3702E+01
                               -4.0608E-01  1.9199E+01 -4.6572E+01  2.5147E+03

           1    8.60014E+00     7.4114E-01  4.8741E-02 -4.2219E+00  4.2867E+00
ac ID =   33377                -1.2508E+00  6.4800E+01 -3.3014E-01  6.4813E+01
                               -4.0646E-01  1.9390E+01 -4.6462E+01  2.5147E+03

           1    8.70013E+00     7.7243E-01 -1.3179E-02 -4.2126E+00  4.2829E+00
ac ID =   33377                -3.8352E-01  6.5785E+01 -2.8808E-01  6.5787E+01
                               -4.0668E-01  1.9582E+01 -4.6348E+01  2.5147E+03

           1    8.80012E+00     7.2100E-01 -1.3185E-02 -4.1423E+00  4.2046E+00
ac ID =   33377                -2.5859E-01  6.5783E+01 -5.3758E-01  6.5785E+01
                               -4.0702E-01  1.9773E+01 -4.6228E+01  2.5147E+03

           1    8.90011E+00     8.0059E-01  1.6863E-02 -4.0927E+00  4.1703E+00
ac ID =   33377                -1.1938E+00  6.8355E+01 -6.4239E-01  6.8369E+01
                               -4.0728E-01  1.9963E+01 -4.6104E+01  2.5147E+03

           1    9.00010E+00     7.6660E-01  3.4768E-03 -4.0278E+00  4.1001E+00
ac ID =   33377                -4.8564E-01  6.8529E+01 -7.1942E-01  6.8535E+01
                               -4.0757E-01  2.0154E+01 -4.5975E+01  2.5147E+03

           1    9.10009E+00     7.8610E-01 -5.7842E-03 -3.9823E+00  4.0592E+00
ac ID =   33377                 1.6336E-02  6.9351E+01 -9.6596E-02  6.9351E+01
                               -4.0782E-01  2.0344E+01 -4.5842E+01  2.5147E+03

           1    9.20008E+00     7.6107E-01  4.5707E-03 -3.9427E+00  4.0155E+00
ac ID =   33377                -1.1035E+00  7.0258E+01  1.0990E-01  7.0267E+01
                               -4.0802E-01  2.0534E+01 -4.5705E+01  2.5147E+03

           1    9.30007E+00     7.6900E-01  1.4083E-02 -3.8434E+00  3.9196E+00
ac ID =   33377                -6.4886E-01  7.0583E+01 -3.6225E-01  7.0587E+01
                               -4.0823E-01  2.0723E+01 -4.5563E+01  2.5147E+03

           1    9.40006E+00     7.7030E-01 -1.0064E-02 -3.7884E+00  3.8659E+00
ac ID =   33377                -4.7080E-01  7.1221E+01 -2.5728E-01  7.1223E+01
                               -4.0834E-01  2.0913E+01 -4.5417E+01  2.5147E+03

           1    9.50005E+00     7.5809E-01  3.4879E-03 -3.7317E+00  3.8079E+00
ac ID =   33377                -7.3657E-01  7.1779E+01 -4.0802E-01  7.1784E+01
                               -4.0844E-01  2.1102E+01 -4.5267E+01  2.5147E+03

           1    9.60004E+00     7.7350E-01  2.2129E-02 -3.6597E+00  3.7406E+00
ac ID =   33377                -1.2953E+00  7.3304E+01 -5.4881E-02  7.3316E+01
                               -4.0854E-01  2.1290E+01 -4.5114E+01  2.5147E+03

           1    9.70003E+00     7.5871E-01 -1.2184E-03 -3.5907E+00  3.6699E+00
ac ID =   33377                -3.5981E-01  7.4175E+01  5.7068E-02  7.4176E+01
                               -4.0856E-01  2.1479E+01 -4.4957E+01  2.5147E+03

           1    9.80002E+00     7.7920E-01 -1.1004E-03 -3.5285E+00  3.6136E+00
ac ID =   33377                -4.0842E-01  7.4753E+01  1.1037E-01  7.4754E+01
                               -4.0855E-01  2.1667E+01 -4.4796E+01  2.5147E+03

           1    9.90001E+00     7.7868E-01  1.7003E-02 -3.4544E+00  3.5411E+00
ac ID =   33377                -1.0743E+00  7.5581E+01 -4.6037E-01  7.5591E+01
                               -4.0851E-01  2.1855E+01 -4.4633E+01  2.5147E+03

           1    1.00005E+01     7.7662E-01 -7.3169E-03 -3.3917E+00  3.4795E+00
ac ID =   33377                -2.8783E-01  7.6167E+01 -9.7917E-01  7.6174E+01
                               -4.0843E-01  2.2043E+01 -4.4465E+01  2.5147E+03

           1    1.01005E+01     7.7670E-01 -1.0486E-02 -3.3124E+00  3.4023E+00
ac ID =   33377                -4.1914E-01  7.6445E+01 -6.6429E-02  7.6446E+01
                               -4.0829E-01  2.2230E+01 -4.4295E+01  2.5147E+03

           1    1.02005E+01     7.5813E-01  5.5322E-03 -3.1905E+00  3.2794E+00
ac ID =   33377                -6.0617E-01  7.6903E+01  5.2374E-01  7.6907E+01
                               -4.0816E-01  2.2417E+01 -4.4122E+01  2.5147E+03

           1    1.03005E+01     7.3955E-01 -1.3356E-04 -3.0979E+00  3.1850E+00
ac ID =   33377                -4.7657E-01  7.7010E+01  1.3944E-01  7.7011E+01
                               -4.0801E-01  2.2603E+01 -4.3946E+01  2.5147E+03

           1    1.04005E+01     7.3389E-01 -4.8034E-03 -2.9919E+00  3.0806E+00
ac ID =   33377                -4.1723E-01  7.6829E+01 -4.3281E-01  7.6832E+01
                               -4.0788E-01  2.2789E+01 -4.3768E+01  2.5147E+03

           1    1.05004E+01     7.5430E-01 -2.7457E-03 -2.8500E+00  2.9481E+00
ac ID =   33377                -8.0038E-01  7.6999E+01 -7.7911E-01  7.7007E+01
                               -4.0772E-01  2.2974E+01 -4.3587E+01  2.5147E+03

           1    1.06004E+01     6.8785E-01  7.8254E-03 -2.7207E+00  2.8063E+00
ac ID =   33377                -6.0753E-01  7.6048E+01 -2.8420E-01  7.6051E+01
                               -4.0760E-01  2.3159E+01 -4.3405E+01  2.5147E+03

           1    1.07004E+01     7.3868E-01  6.0548E-03 -2.6659E+00  2.7664E+00
ac ID =   33377                -4.5140E-01  7.6596E+01  7.2365E-01  7.6601E+01
                               -4.0757E-01  2.3344E+01 -4.3220E+01  2.5147E+03

           1    1.08004E+01     7.2018E-01  8.7414E-03 -2.5381E+00  2.6383E+00
ac ID =   33377                -8.0897E-01  7.6266E+01  3.8738E-01  7.6271E+01
                               -4.0749E-01  2.3529E+01 -4.3034E+01  2.5147E+03

           1    1.09004E+01     6.8566E-01 -5.9754E-03 -2.4074E+00  2.5032E+00
ac ID =   33377                -5.6426E-01  7.5339E+01 -5.6692E-01  7.5343E+01
                               -4.0745E-01  2.3713E+01 -4.2846E+01  2.5147E+03

           1    1.10004E+01     7.2233E-01  5.6969E-03 -2.3538E+00  2.4622E+00
ac ID =   33377                -6.6621E-01  7.6267E+01 -6.8527E-01  7.6273E+01
                               -4.0749E-01  2.3898E+01 -4.2657E+01  2.5147E+03

           1    1.11004E+01     7.3349E-01  1.6045E-02 -2.2140E+00  2.3324E+00
ac ID =   33377                -1.0288E+00  7.5864E+01 -5.2036E-01  7.5873E+01
                               -4.0756E-01  2.4082E+01 -4.2467E+01  2.5147E+03

           1    1.12004E+01     6.7021E-01  2.5902E-03 -2.1146E+00  2.2183E+00
ac ID =   33377                -8.7507E-01  7.4877E+01 -2.6319E-01  7.4883E+01
                               -4.0757E-01  2.4267E+01 -4.2276E+01  2.5147E+03

           1    1.13004E+01     6.5968E-01 -1.3314E-02 -2.0143E+00  2.1196E+00
ac ID =   33377                -7.6958E-01  7.3922E+01 -2.6993E-01  7.3927E+01
                               -4.0772E-01  2.4452E+01 -4.2085E+01  2.5147E+03

           1    1.14004E+01     7.0992E-01  5.4229E-03 -1.8746E+00  2.0046E+00
ac ID =   33377                -1.0933E+00  7.3634E+01 -5.3894E-01  7.3644E+01
                               -4.0791E-01  2.4636E+01 -4.1893E+01  2.5147E+03

           1    1.15003E+01     6.5364E-01 -1.7650E-03 -1.8021E+00  1.9170E+00
ac ID =   33377                -9.3758E-01  7.2845E+01  5.4955E-02  7.2851E+01
                               -4.0808E-01  2.4822E+01 -4.1701E+01  2.5147E+03

           1    1.16003E+01     6.4697E-01 -4.9505E-03 -1.6953E+00  1.8146E+00
ac ID =   33377                -7.7054E-01  7.3250E+01  1.9246E-02  7.3254E+01
                               -4.0837E-01  2.5007E+01 -4.1509E+01  2.5147E+03

           1    1.17003E+01     6.6489E-01  3.1780E-03 -1.6046E+00  1.7369E+00
ac ID =   33377                -1.0484E+00  7.4245E+01 -1.2360E-01  7.4252E+01
                               -4.0872E-01  2.5192E+01 -4.1318E+01  2.5147E+03

           1    1.18003E+01     6.6632E-01  1.1983E-02 -1.5397E+00  1.6777E+00
ac ID =   33377                -1.0748E+00  7.4488E+01 -1.7762E-01  7.4495E+01
                               -4.0912E-01  2.5378E+01 -4.1126E+01  2.5147E+03

           1    1.19003E+01     6.2378E-01 -1.3725E-03 -1.4200E+00  1.5510E+00
ac ID =   33377                -6.7500E-01  7.3647E+01 -4.8355E-01  7.3652E+01
                               -4.0960E-01  2.5564E+01 -4.0935E+01  2.5147E+03

           1    1.20003E+01     6.5291E-01  1.0269E-02 -1.3073E+00  1.4613E+00
ac ID =   33377                -8.1548E-01  7.3886E+01 -6.6817E-01  7.3894E+01
                               -4.1013E-01  2.5750E+01 -4.0745E+01  2.5147E+03

           1    1.21003E+01     6.3215E-01  1.4407E-02 -1.1959E+00  1.3528E+00
ac ID =   33377                -1.2449E+00  7.3290E+01 -7.7955E-01  7.3305E+01
                               -4.1073E-01  2.5936E+01 -4.0555E+01  2.5147E+03

           1    1.22003E+01     6.0031E-01 -9.7641E-03 -1.0578E+00  1.2163E+00
ac ID =   33377                -7.1003E-01  7.2191E+01 -8.6298E-01  7.2200E+01
                               -4.1141E-01  2.6122E+01 -4.0367E+01  2.5147E+03

           1    1.23003E+01     6.0597E-01  1.5721E-02 -9.6781E-01  1.1420E+00
ac ID =   33377                -1.1499E+00  7.2066E+01 -5.1647E-01  7.2078E+01
                               -4.1217E-01  2.6308E+01 -4.0179E+01  2.5147E+03

           1    1.24003E+01     6.1404E-01  1.4776E-02 -8.5797E-01  1.0552E+00
ac ID =   33377                -1.1942E+00  7.1131E+01  8.8518E-02  7.1141E+01
                               -4.1300E-01  2.6494E+01 -3.9993E+01  2.5147E+03

           1    1.25002E+01     5.9543E-01 -1.9742E-03 -7.6787E-01  9.7168E-01
ac ID =   33377                -7.0657E-01  6.9735E+01 -1.1963E-01  6.9739E+01
                               -4.1390E-01  2.6680E+01 -3.9809E+01  2.5147E+03

           1    1.26002E+01     6.2011E-01 -5.4981E-03 -6.8948E-01  9.2734E-01
ac ID =   33377                -7.5955E-01  6.9520E+01 -6.2141E-01  6.9527E+01
                               -4.1482E-01  2.6867E+01 -3.9627E+01  2.5147E+03

           1    1.27002E+01     5.5655E-01  3.5510E-02 -5.4441E-01  7.7935E-01
ac ID =   33377                -1.7519E+00  6.8669E+01 -5.1760E-01  6.8694E+01
                               -4.1584E-01  2.7053E+01 -3.9446E+01  2.5147E+03

           1    1.28002E+01     5.8882E-01 -1.1391E-03 -5.0755E-01  7.7738E-01
ac ID =   33377                -4.9343E-01  6.8772E+01 -3.3770E-01  6.8775E+01
                               -4.1681E-01  2.7239E+01 -3.9267E+01  2.5147E+03

           1    1.29002E+01     5.6270E-01 -1.1741E-02 -4.1607E-01  6.9992E-01
ac ID =   33377                -6.1204E-01  6.7561E+01  6.9253E-02  6.7564E+01
                               -4.1768E-01  2.7425E+01 -3.9091E+01  2.5147E+03

           1    1.30002E+01     5.7331E-01  1.5293E-02 -3.0631E-01  6.5019E-01
ac ID =   33377                -9.8841E-01  6.7101E+01 -6.9018E-01  6.7112E+01
                               -4.1873E-01  2.7611E+01 -3.8917E+01  2.5147E+03

           1    1.31002E+01     5.3452E-01  1.3957E-02 -2.3972E-01  5.8598E-01
ac ID =   33377                -1.1761E+00  6.5421E+01 -6.4773E-01  6.5435E+01
                               -4.1976E-01  2.7797E+01 -3.8745E+01  2.5147E+03

           1    1.32002E+01     5.3917E-01 -1.6070E-02 -1.5796E-01  5.6206E-01
ac ID =   33377                -4.6055E-01  6.5640E+01 -4.0451E-01  6.5642E+01
                               -4.2070E-01  2.7983E+01 -3.8576E+01  2.5147E+03

           1    1.33002E+01     5.5689E-01 -3.9390E-04 -1.0422E-01  5.6656E-01
ac ID =   33377                -1.0068E+00  6.6322E+01  1.4934E-01  6.6330E+01
                               -4.2176E-01  2.8169E+01 -3.8409E+01  2.5147E+03

           1    1.34002E+01     5.0697E-01  2.7374E-02 -2.9141E-02  5.0855E-01
ac ID =   33377                -1.1967E+00  6.5729E+01  2.0582E-01  6.5740E+01
                               -4.2293E-01  2.8354E+01 -3.8246E+01  2.5147E+03

           1    1.35001E+01     5.2459E-01 -1.2936E-02  4.3516E-02  5.2655E-01
ac ID =   33377                -1.2997E-01  6.5355E+01  1.0450E-01  6.5355E+01
                               -4.2402E-01  2.8539E+01 -3.8085E+01  2.5147E+03

           1    1.36001E+01     5.4929E-01 -6.8243E-04  1.0249E-01  5.5877E-01
ac ID =   33377                -8.0960E-01  6.6196E+01  2.6185E-01  6.6201E+01
                               -4.2517E-01  2.8724E+01 -3.7927E+01  2.5147E+03

           1    1.37001E+01     5.0980E-01  2.1332E-02  1.8135E-01  5.4151E-01
ac ID =   33377                -9.3140E-01  6.5191E+01 -3.4689E-01  6.5198E+01
                               -4.2646E-01  2.8909E+01 -3.7772E+01  2.5147E+03

           1    1.38001E+01     4.8020E-01 -8.7706E-03  2.6816E-01  5.5007E-01
ac ID =   33377                -4.8624E-01  6.3982E+01 -2.7338E-01  6.3984E+01
                               -4.2764E-01  2.9093E+01 -3.7620E+01  2.5147E+03

           1    1.39001E+01     5.2996E-01  9.9557E-03  3.1934E-01  6.1882E-01
ac ID =   33377                -4.6051E-01  6.3083E+01 -1.2707E-01  6.3085E+01
                               -4.2897E-01  2.9276E+01 -3.7471E+01  2.5147E+03

           1    1.40001E+01     5.1632E-01  2.4199E-02  3.9643E-01  6.5140E-01
ac ID =   33377                -1.4116E+00  6.2310E+01  1.4184E-03  6.2326E+01
                               -4.3027E-01  2.9460E+01 -3.7326E+01  2.5147E+03

           1    1.41001E+01     4.9359E-01  5.9779E-03  4.4895E-01  6.6725E-01
ac ID =   33377                -7.2934E-01  6.1482E+01 -3.0599E-01  6.1487E+01
                               -4.3166E-01  2.9643E+01 -3.7184E+01  2.5147E+03

           1    1.42001E+01     5.2739E-01 -4.4353E-03  5.1174E-01  7.3487E-01
ac ID =   33377                -7.4729E-01  6.1465E+01 -4.3536E-01  6.1471E+01
                               -4.3305E-01  2.9826E+01 -3.7045E+01  2.5147E+03

           1    1.43001E+01     5.2170E-01  1.4658E-02  5.0355E-01  7.2523E-01
ac ID =   33377                -1.0511E+00  6.1186E+01 -4.1291E-01  6.1197E+01
                               -4.3450E-01  3.0008E+01 -3.6910E+01  2.5147E+03

           1    1.44001E+01     4.9437E-01  1.1161E-02  5.8959E-01  7.6951E-01
ac ID =   33377                -1.0198E+00  6.0078E+01 -1.1175E-01  6.0086E+01
                               -4.3596E-01  3.0189E+01 -3.6779E+01  2.5147E+03

           1    1.45000E+01     5.1109E-01 -1.0647E-02  6.4728E-01  8.2480E-01
ac ID =   33377                -4.0287E-01  5.9576E+01  1.1611E-01  5.9577E+01
                               -4.3751E-01  3.0370E+01 -3.6652E+01  2.5147E+03

           1    1.46000E+01     4.9770E-01  1.1982E-02  6.9677E-01  8.5635E-01
ac ID =   33377                -1.0404E+00  5.8062E+01 -3.6892E-02  5.8072E+01
                               -4.3906E-01  3.0550E+01 -3.6528E+01  2.5147E+03

           1    1.47000E+01     4.8320E-01  1.1033E-02  6.7817E-01  8.3278E-01
ac ID =   33377                -9.6594E-01  5.7197E+01 -8.1021E-01  5.7211E+01
                               -4.4066E-01  3.0730E+01 -3.6407E+01  2.5147E+03

           1    1.48005E+01     4.8339E-01 -1.4450E-02  6.7538E-01  8.3067E-01
ac ID =   33377                -6.9996E-01  5.6379E+01 -9.7328E-01  5.6392E+01
                               -4.4232E-01  3.0910E+01 -3.6290E+01  2.5147E+03

           1    1.49005E+01     4.8379E-01  2.3927E-02  7.4830E-01  8.9139E-01
ac ID =   33377                -1.3122E+00  5.5115E+01  1.7127E-02  5.5131E+01
                               -4.4409E-01  3.1088E+01 -3.6177E+01  2.5147E+03

           1    1.50005E+01     4.7965E-01  2.1441E-03  7.6470E-01  9.0269E-01
ac ID =   33377                -9.8936E-01  5.4887E+01  1.5085E-01  5.4896E+01
                               -4.4581E-01  3.1266E+01 -3.6068E+01  2.5147E+03

           1    1.51005E+01     4.4563E-01  5.9514E-04  7.7852E-01  8.9704E-01
ac ID =   33377                -6.8449E-01  5.3595E+01 -3.2994E-01  5.3601E+01
                               -4.4766E-01  3.1443E+01 -3.5962E+01  2.5147E+03

           1    1.52005E+01     4.4040E-01  5.1566E-03  7.8880E-01  9.0343E-01
ac ID =   33377                -6.5109E-01  5.2499E+01 -4.8650E-01  5.2505E+01
                               -4.4956E-01  3.1620E+01 -3.5860E+01  2.5147E+03

           1    1.53005E+01     4.2099E-01  2.4884E-02  8.2935E-01  9.3042E-01
ac ID =   33377                -1.1927E+00  5.1139E+01 -4.9205E-01  5.1156E+01
                               -4.5148E-01  3.1796E+01 -3.5762E+01  2.5147E+03

           1    1.54005E+01     4.1358E-01 -1.5572E-02  8.6837E-01  9.6196E-01
ac ID =   33377                -4.8385E-01  5.0208E+01 -4.6053E-01  5.0213E+01
                               -4.5343E-01  3.1972E+01 -3.5667E+01  2.5147E+03

           1    1.55004E+01     4.1395E-01  7.8144E-03  8.5977E-01  9.5426E-01
ac ID =   33377                -7.4386E-01  4.9275E+01 -5.1276E-01  4.9283E+01
                               -4.5549E-01  3.2147E+01 -3.5576E+01  2.5147E+03

           1    1.56004E+01     4.2018E-01  1.0402E-02  8.6215E-01  9.5915E-01
ac ID =   33377                -1.4564E+00  4.7531E+01 -2.9637E-01  4.7554E+01
                               -4.5755E-01  3.2322E+01 -3.5489E+01  2.5147E+03

           1    1.57004E+01     4.1067E-01  5.1314E-03  8.8869E-01  9.7900E-01
ac ID =   33377                -8.3967E-01  4.6621E+01 -1.3071E-01  4.6628E+01
                               -4.5970E-01  3.2497E+01 -3.5406E+01  2.5147E+03

           1    1.58004E+01     4.0240E-01 -9.5827E-03  9.3379E-01  1.0169E+00
ac ID =   33377                -8.4784E-01  4.5318E+01 -2.3986E-03  4.5325E+01
                               -4.6187E-01  3.2671E+01 -3.5326E+01  2.5147E+03

           1    1.59004E+01     3.8751E-01  1.6449E-02  9.1183E-01  9.9089E-01
ac ID =   33377                -1.6259E+00  4.4744E+01  1.1084E-01  4.4773E+01
                               -4.6414E-01  3.2844E+01 -3.5250E+01  2.5147E+03

           1    1.60004E+01     3.8259E-01 -1.0058E-02  8.8954E-01  9.6838E-01
ac ID =   33377                -9.8999E-01  4.3245E+01 -6.7807E-02  4.3256E+01
                               -4.6645E-01  3.3017E+01 -3.5178E+01  2.5147E+03

           1    1.61004E+01     3.8018E-01  4.1083E-03  8.7381E-01  9.5294E-01
ac ID =   33377                -7.9775E-01  4.2222E+01 -1.6493E-01  4.2230E+01
                               -4.6889E-01  3.3189E+01 -3.5108E+01  2.5147E+03

           1    1.62004E+01     3.4995E-01  1.1430E-02  8.9374E-01  9.5988E-01
ac ID =   33377                -1.3382E+00  4.0712E+01 -2.6948E-01  4.0735E+01
                               -4.7134E-01  3.3360E+01 -3.5043E+01  2.5147E+03

           1    1.63004E+01     3.3866E-01  6.2341E-05  8.6343E-01  9.2747E-01
ac ID =   33377                -9.6543E-01  3.9599E+01 -2.9111E-01  3.9612E+01
                               -4.7388E-01  3.3530E+01 -3.4980E+01  2.5147E+03

           1    1.64004E+01     3.6709E-01 -6.3402E-04  8.1822E-01  8.9680E-01
ac ID =   33377                -1.0191E+00  3.9063E+01 -4.0745E-01  3.9079E+01
                               -4.7649E-01  3.3700E+01 -3.4921E+01  2.5147E+03

           1    1.65003E+01     3.5526E-01  9.9441E-03  8.0234E-01  8.7753E-01
ac ID =   33377                -1.3586E+00  3.7986E+01 -3.9611E-01  3.8012E+01
                               -4.7916E-01  3.3868E+01 -3.4865E+01  2.5147E+03

           1    1.66003E+01     3.3874E-01  6.2514E-03  8.0245E-01  8.7104E-01
ac ID =   33377                -9.3316E-01  3.6622E+01 -2.4674E-01  3.6635E+01
                               -4.8193E-01  3.4036E+01 -3.4812E+01  2.5147E+03

           1    1.67003E+01     3.3358E-01  2.1524E-02  8.3472E-01  8.9916E-01
ac ID =   33377                -1.3847E+00  3.4900E+01  2.8281E-02  3.4928E+01
                               -4.8471E-01  3.4203E+01 -3.4762E+01  2.5147E+03

           1    1.68003E+01     2.9185E-01  3.5894E-04  8.1856E-01  8.6903E-01
ac ID =   33377                -1.2935E+00  3.2616E+01 -1.0252E-01  3.2642E+01
                               -4.8759E-01  3.4369E+01 -3.4715E+01  2.5147E+03

           1    1.69003E+01     2.8946E-01  1.3287E-02  7.6005E-01  8.1342E-01
ac ID =   33377                -1.6549E+00  3.0856E+01 -2.2141E-01  3.0901E+01
                               -4.9055E-01  3.4534E+01 -3.4670E+01  2.5147E+03

           1    1.70003E+01     2.9037E-01  8.0614E-03  7.7315E-01  8.2592E-01
ac ID =   33377                -1.1384E+00  3.0669E+01 -4.1445E-01  3.0693E+01
                               -4.9359E-01  3.4699E+01 -3.4629E+01  2.5147E+03

           1    1.71003E+01     3.1255E-01 -1.2072E-03  7.9769E-01  8.5673E-01
ac ID =   33377                -8.0144E-01  3.0576E+01  5.5367E-02  3.0587E+01
                               -4.9664E-01  3.4862E+01 -3.4590E+01  2.5147E+03

           1    1.72003E+01     2.7019E-01  5.8001E-03  7.3113E-01  7.7948E-01
ac ID =   33377                -5.1308E-01  2.8624E+01  3.5757E-01  2.8631E+01
                               -4.9983E-01  3.5025E+01 -3.4554E+01  2.5147E+03

           1    1.73003E+01     2.6405E-01 -5.0269E-03  6.7664E-01  7.2635E-01
ac ID =   33377                -8.9718E-01  2.7378E+01 -5.6532E-02  2.7392E+01
                               -5.0295E-01  3.5187E+01 -3.4520E+01  2.5147E+03

           1    1.74003E+01     3.0039E-01 -1.3160E-02  6.5779E-01  7.2325E-01
ac ID =   33377                -3.3680E-01  2.6414E+01 -3.2746E-01  2.6419E+01
                               -5.0621E-01  3.5347E+01 -3.4489E+01  2.5147E+03

           1    1.75002E+01     2.2619E-01 -2.8799E-03  6.8527E-01  7.2164E-01
ac ID =   33377                -6.4657E-01  2.3842E+01  1.1021E-01  2.3851E+01
                               -5.0944E-01  3.5507E+01 -3.4460E+01  2.5147E+03

           1    1.76002E+01     2.6264E-01 -1.8756E-05  6.6958E-01  7.1925E-01
ac ID =   33377                -6.6368E-01  2.3789E+01  1.1184E-01  2.3798E+01
                               -5.1269E-01  3.5666E+01 -3.4434E+01  2.5147E+03

           1    1.77002E+01     2.7195E-01 -1.2011E-02  5.7037E-01  6.3199E-01
ac ID =   33377                -1.2178E-01  2.3769E+01 -2.4438E-02  2.3770E+01
                               -5.1601E-01  3.5824E+01 -3.4409E+01  2.5147E+03

           1    1.78002E+01     2.5888E-01 -2.8142E-03  5.0985E-01  5.7181E-01
ac ID =   33377                -3.4016E-01  2.2503E+01  1.4446E-01  2.2506E+01
                               -5.1930E-01  3.5981E+01 -3.4386E+01  2.5147E+03

           1    1.79002E+01     2.2553E-01 -7.7029E-03  5.1737E-01  5.6445E-01
ac ID =   33377                -3.1307E-01  2.0623E+01 -1.8485E-01  2.0626E+01
                               -5.2261E-01  3.6136E+01 -3.4366E+01  2.5147E+03

           1    1.80002E+01     2.4789E-01  1.8020E-04  4.8746E-01  5.4687E-01
ac ID =   33377                -4.4019E-01  2.0199E+01 -4.0354E-01  2.0207E+01
                               -5.2596E-01  3.6291E+01 -3.4347E+01  2.5147E+03

           1    1.81002E+01     2.3081E-01 -2.6107E-02  4.2881E-01  4.8768E-01
ac ID =   33377                 3.5890E-01  1.8511E+01 -1.9192E-02  1.8515E+01
                               -5.2921E-01  3.6444E+01 -3.4330E+01  2.5147E+03

           1    1.82002E+01     2.0067E-01 -2.7071E-04  3.7013E-01  4.2103E-01
ac ID =   33377                -1.3165E-01  1.6628E+01  3.3896E-01  1.6632E+01
                               -5.3252E-01  3.6597E+01 -3.4314E+01  2.5147E+03

           1    1.83002E+01     2.1469E-01  2.4851E-03  3.5258E-01  4.1281E-01
ac ID =   33377                -9.1105E-02  1.6112E+01 -3.9853E-03  1.6113E+01
                               -5.3584E-01  3.6748E+01 -3.4300E+01  2.5147E+03

           1    1.84002E+01     2.1011E-01 -7.4990E-03  3.5802E-01  4.1519E-01
ac ID =   33377                -5.4939E-03  1.5217E+01 -3.7263E-01  1.5222E+01
                               -5.3911E-01  3.6898E+01 -3.4287E+01  2.5147E+03

           1    1.85001E+01     1.9736E-01 -1.9119E-02  3.0712E-01  3.6556E-01
ac ID =   33377                 9.0857E-02  1.4275E+01 -1.6208E-01  1.4276E+01
                               -5.4238E-01  3.7048E+01 -3.4275E+01  2.5147E+03

           1    1.86001E+01     2.2086E-01  1.5398E-02  2.5748E-01  3.3957E-01
ac ID =   33377                -7.4141E-01  1.4245E+01  3.5633E-01  1.4269E+01
                               -5.4571E-01  3.7196E+01 -3.4264E+01  2.5147E+03

           1    1.87001E+01     2.2365E-01 -8.5093E-03  2.2828E-01  3.1969E-01
ac ID =   33377                -1.0668E-01  1.4086E+01  1.5449E-01  1.4087E+01
                               -5.4897E-01  3.7343E+01 -3.4254E+01  2.5147E+03

           1    1.88001E+01     2.1091E-01 -9.7391E-03  2.1327E-01  3.0010E-01
ac ID =   33377                -1.0978E-01  1.2812E+01 -3.4333E-01  1.2817E+01
                               -5.5225E-01  3.7488E+01 -3.4245E+01  2.5147E+03

           1    1.89001E+01     2.1514E-01 -8.3053E-03  1.7223E-01  2.7571E-01
ac ID =   33377                -1.0194E-02  1.2186E+01 -5.8495E-01  1.2200E+01
                               -5.5552E-01  3.7633E+01 -3.4237E+01  2.5147E+03

           1    1.90001E+01     2.1729E-01  7.0644E-03  1.1533E-01  2.4610E-01
ac ID =   33377                -4.1087E-01  1.1327E+01 -2.1342E-01  1.1336E+01
                               -5.5881E-01  3.7777E+01 -3.4230E+01  2.5147E+03

           1    1.91001E+01     1.9995E-01 -9.5042E-03  9.3035E-02  2.2074E-01
ac ID =   33377                 2.6098E-01  9.8066E+00 -8.5567E-02  9.8105E+00
                               -5.6211E-01  3.7919E+01 -3.4223E+01  2.5147E+03

           1    1.92001E+01     2.2505E-01 -1.0896E-02  6.6493E-02  2.3492E-01
ac ID =   33377                -7.9508E-02  9.4277E+00 -6.3728E-02  9.4282E+00
                               -5.6537E-01  3.8060E+01 -3.4217E+01  2.5147E+03

           1    1.93001E+01     2.2678E-01  3.7982E-03  1.8249E-02  2.2754E-01
ac ID =   33377                -3.6112E-01  9.1211E+00 -2.8716E-01  9.1328E+00
                               -5.6868E-01  3.8200E+01 -3.4211E+01  2.5147E+03

           1    1.94001E+01     2.0288E-01 -2.2498E-03 -1.4318E-02  2.0340E-01
ac ID =   33377                -5.7578E-02  8.1627E+00 -5.3431E-01  8.1804E+00
                               -5.7202E-01  3.8339E+01 -3.4205E+01  2.5147E+03

           1    1.95000E+01     2.3524E-01 -1.1151E-02 -5.1826E-02  2.4114E-01
ac ID =   33377                 2.0531E-01  7.7912E+00 -3.5832E-01  7.8022E+00
                               -5.7531E-01  3.8476E+01 -3.4199E+01  2.5147E+03

           1    1.96000E+01     2.4145E-01 -1.7100E-04 -9.2514E-02  2.5857E-01
ac ID =   33377                -2.1469E-01  6.9887E+00 -2.7977E-02  6.9920E+00
                               -5.7861E-01  3.8613E+01 -3.4194E+01  2.5147E+03

           1    1.97005E+01     1.9541E-01  1.5601E-02 -1.0740E-01  2.2352E-01
ac ID =   33377                -7.6238E-01  4.9087E+00 -3.0277E-02  4.9677E+00
                               -5.8194E-01  3.8748E+01 -3.4189E+01  2.5147E+03

           1    1.98005E+01     2.0221E-01 -1.4946E-02 -1.4350E-01  2.4841E-01
ac ID =   33377                 2.8435E-01  3.9719E+00 -1.1122E-01  3.9836E+00
                               -5.8520E-01  3.8882E+01 -3.4183E+01  2.5147E+03

           1    1.99005E+01     2.0976E-01 -7.8435E-05 -1.8245E-01  2.7801E-01
ac ID =   33377                -2.0420E-01  3.3410E+00 -1.1401E-02  3.3472E+00
                               -5.8839E-01  3.9015E+01 -3.4177E+01  2.5147E+03

           1    2.00005E+01     1.9764E-01 -7.4364E-04 -1.9999E-01  2.8118E-01
ac ID =   33377                -1.8027E-01  2.5399E+00 -2.0605E-01  2.5546E+00
                               -5.9169E-01  3.9146E+01 -3.4171E+01  2.5147E+03

           1    2.01005E+01     1.9054E-01 -4.8689E-03 -2.3527E-01  3.0279E-01
ac ID =   33377                 1.1017E-01  1.4778E+00 -2.6241E-01  1.5050E+00
                               -5.9498E-01  3.9277E+01 -3.4165E+01  2.5147E+03

           1    2.02005E+01     1.9266E-01 -2.0648E-02 -2.7359E-01  3.3526E-01
ac ID =   33377                 9.5524E-02  4.2090E-01  9.0245E-03  4.3170E-01
                               -5.9819E-01  3.9406E+01 -3.4158E+01  2.5147E+03

           1    2.03005E+01     1.9505E-01  3.9704E-03 -3.2063E-01  3.7532E-01
ac ID =   33377                -4.8062E-02 -5.0776E-01 -3.8250E-02  5.1146E-01
                               -6.0151E-01  3.9534E+01 -3.4151E+01  2.5147E+03

           1    2.04005E+01     1.6697E-01 -8.3283E-03 -3.4299E-01  3.8156E-01
ac ID =   33377                 1.2308E-01 -2.1844E+00 -7.4221E-02  2.1891E+00
                               -6.0479E-01  3.9661E+01 -3.4142E+01  2.5147E+03

           1    2.05004E+01     1.8391E-01  4.2231E-03 -3.6431E-01  4.0812E-01
ac ID =   33377                -2.0715E-01 -2.7634E+00 -3.5798E-01  2.7941E+00
                               -6.0805E-01  3.9787E+01 -3.4134E+01  2.5147E+03

           1    2.06004E+01     1.8465E-01 -1.6071E-02 -3.9563E-01  4.3689E-01
ac ID =   33377                -4.3085E-02 -3.6313E+00 -4.6067E-01  3.6607E+00
                               -6.1120E-01  3.9911E+01 -3.4124E+01  2.5147E+03

           1    2.07004E+01     1.6142E-01 -1.4594E-02 -4.3225E-01  4.6163E-01
ac ID =   33377                -2.2672E-02 -5.2737E+00 -6.6690E-02  5.2742E+00
                               -6.1441E-01  4.0035E+01 -3.4113E+01  2.5147E+03

           1    2.08004E+01     1.5687E-01  4.6678E-03 -4.5272E-01  4.7915E-01
ac ID =   33377                -2.2626E-01 -6.1400E+00 -2.8711E-02  6.1442E+00
                               -6.1765E-01  4.0157E+01 -3.4101E+01  2.5147E+03

           1    2.09004E+01     1.6248E-01  1.1452E-03 -4.5050E-01  4.7891E-01
ac ID =   33377                -3.4717E-01 -7.2620E+00 -1.6364E-01  7.2722E+00
                               -6.2079E-01  4.0279E+01 -3.4089E+01  2.5147E+03

           1    2.10004E+01     1.5734E-01 -6.0460E-03 -4.5114E-01  4.7783E-01
ac ID =   33377                 1.8725E-02 -7.9512E+00 -3.8888E-01  7.9607E+00
                               -6.2390E-01  4.0400E+01 -3.4075E+01  2.5147E+03

           1    2.11004E+01     1.6935E-01 -1.2294E-02 -4.9948E-01  5.2755E-01
ac ID =   33377                 1.5533E-01 -8.3408E+00 -4.8594E-01  8.3563E+00
                               -6.2701E-01  4.0519E+01 -3.4060E+01  2.5147E+03

           1    2.12004E+01     1.7218E-01  1.2171E-02 -5.2790E-01  5.5540E-01
ac ID =   33377                -4.9853E-01 -9.2568E+00 -6.2375E-01  9.2912E+00
                               -6.3018E-01  4.0638E+01 -3.4043E+01  2.5147E+03

           1    2.13004E+01     1.4787E-01 -4.9076E-03 -4.9939E-01  5.2085E-01
ac ID =   33377                 9.2537E-02 -1.0763E+01  2.1760E-02  1.0764E+01
                               -6.3323E-01  4.0756E+01 -3.4025E+01  2.5147E+03

           1    2.14004E+01     1.5356E-01 -4.2611E-03 -4.8176E-01  5.0566E-01
ac ID =   33377                 2.1462E-01 -1.1624E+01 -2.1253E-02  1.1626E+01
                               -6.3633E-01  4.0873E+01 -3.4007E+01  2.5147E+03

           1    2.15003E+01     1.5973E-01  9.4795E-04 -4.8803E-01  5.1351E-01
ac ID =   33377                 3.0512E-02 -1.2441E+01 -1.1029E-01  1.2442E+01
                               -6.3946E-01  4.0989E+01 -3.3986E+01  2.5147E+03

           1    2.16003E+01     1.3976E-01  1.7220E-03 -5.0267E-01  5.2174E-01
ac ID =   33377                 7.4306E-02 -1.3089E+01  4.8171E-02  1.3089E+01
                               -6.4259E-01  4.1104E+01 -3.3964E+01  2.5147E+03

           1    2.17003E+01     1.3823E-01  3.9755E-03 -4.9698E-01  5.1586E-01
ac ID =   33377                -1.8255E-01 -1.3830E+01 -3.3728E-02  1.3832E+01
                               -6.4567E-01  4.1218E+01 -3.3941E+01  2.5147E+03

           1    2.18003E+01     1.4104E-01 -2.7162E-03 -4.7568E-01  4.9616E-01
ac ID =   33377                -4.0660E-02 -1.4630E+01 -1.0996E-01  1.4631E+01
                               -6.4876E-01  4.1332E+01 -3.3917E+01  2.5147E+03

           1    2.19003E+01     1.4227E-01 -2.5783E-03 -4.9184E-01  5.1201E-01
ac ID =   33377                 7.6198E-02 -1.5633E+01 -2.1743E-01  1.5635E+01
                               -6.5189E-01  4.1445E+01 -3.3891E+01  2.5147E+03

           1    2.20003E+01     1.2790E-01 -1.1787E-03 -5.2642E-01  5.4173E-01
ac ID =   33377                -1.6334E-01 -1.6355E+01 -2.6592E-01  1.6358E+01
                               -6.5500E-01  4.1557E+01 -3.3864E+01  2.5147E+03

           1    2.21003E+01     1.2867E-01 -1.3413E-02 -5.2503E-01  5.4074E-01
ac ID =   33377                 1.6997E-01 -1.7616E+01 -6.1369E-01  1.7628E+01
                               -6.5809E-01  4.1668E+01 -3.3835E+01  2.5147E+03

           1    2.22003E+01     1.4324E-01  4.7194E-03 -5.1603E-01  5.3556E-01
ac ID =   33377                 6.2302E-02 -1.7735E+01 -1.2365E-01  1.7736E+01
                               -6.6118E-01  4.1779E+01 -3.3805E+01  2.5147E+03

           1    2.23003E+01     1.3330E-01 -9.1871E-03 -5.1284E-01  5.2996E-01
ac ID =   33377                 4.4643E-01 -1.8032E+01  1.4513E-02  1.8037E+01
                               -6.6419E-01  4.1889E+01 -3.3774E+01  2.5147E+03

           1    2.24003E+01     1.2799E-01 -1.3778E-02 -5.1911E-01  5.3483E-01
ac ID =   33377                 4.8602E-01 -1.8404E+01 -6.4635E-02  1.8410E+01
                               -6.6726E-01  4.1999E+01 -3.3741E+01  2.5147E+03

           1    2.25002E+01     1.3747E-01  5.8861E-03 -5.2953E-01  5.4712E-01
ac ID =   33377                 7.2447E-02 -1.8900E+01  1.0159E-01  1.8901E+01
                               -6.7032E-01  4.2108E+01 -3.3706E+01  2.5147E+03

           1    2.26002E+01     1.4644E-01  5.7096E-03 -5.2541E-01  5.4547E-01
ac ID =   33377                 2.3858E-01 -1.9240E+01 -3.0203E-01  1.9244E+01
                               -6.7328E-01  4.2216E+01 -3.3670E+01  2.5147E+03

           1    2.27002E+01     1.1639E-01 -1.6223E-02 -5.0404E-01  5.1756E-01
ac ID =   33377                 6.1066E-01 -2.0508E+01 -1.6087E-01  2.0518E+01
                               -6.7621E-01  4.2325E+01 -3.3633E+01  2.5147E+03

           1    2.28002E+01     9.6944E-02 -1.1288E-02 -4.9092E-01  5.0053E-01
ac ID =   33377                 7.8686E-01 -2.1858E+01  2.2651E-01  2.1874E+01
                               -6.7913E-01  4.2432E+01 -3.3594E+01  2.5147E+03

           1    2.29002E+01     1.2345E-01 -6.3644E-03 -5.0676E-01  5.2161E-01
ac ID =   33377                 2.9549E-01 -2.1776E+01 -2.1350E-01  2.1779E+01
                               -6.8203E-01  4.2539E+01 -3.3554E+01  2.5147E+03

           1    2.30002E+01     1.0498E-01 -5.1931E-03 -4.9703E-01  5.0802E-01
ac ID =   33377                 5.9852E-01 -2.2734E+01 -5.7651E-01  2.2749E+01
                               -6.8484E-01  4.2646E+01 -3.3511E+01  2.5147E+03

           1    2.31002E+01     8.1199E-02 -3.3536E-02 -4.7056E-01  4.7869E-01
ac ID =   33377                 1.0614E+00 -2.3727E+01 -4.1154E-01  2.3754E+01
                               -6.8752E-01  4.2753E+01 -3.3468E+01  2.5147E+03

           1    2.32002E+01     9.1055E-02 -2.1962E-02 -4.4249E-01  4.5229E-01
ac ID =   33377                 9.5824E-01 -2.4426E+01 -3.1522E-01  2.4447E+01
                               -6.9024E-01  4.2859E+01 -3.3423E+01  2.5147E+03

           1    2.33002E+01     9.1231E-02 -7.0269E-03 -3.9660E-01  4.0702E-01
ac ID =   33377                 4.0525E-01 -2.5917E+01  1.7094E-02  2.5920E+01
                               -6.9295E-01  4.2966E+01 -3.3377E+01  2.5147E+03

           1    2.34002E+01     6.4607E-02 -5.9984E-03 -3.8110E-01  3.8659E-01
ac ID =   33377                 6.8239E-01 -2.7379E+01  1.6671E-01  2.7388E+01
                               -6.9560E-01  4.3072E+01 -3.3329E+01  2.5147E+03

           1    2.35001E+01     5.2310E-02 -1.4463E-02 -3.6806E-01  3.7204E-01
ac ID =   33377                 3.3568E-01 -2.8243E+01 -4.0066E-01  2.8248E+01
                               -6.9810E-01  4.3178E+01 -3.3280E+01  2.5147E+03

           1    2.36001E+01     6.3422E-02 -1.5405E-02 -3.1918E-01  3.2578E-01
ac ID =   33377                 5.6428E-01 -2.8356E+01 -4.8159E-01  2.8366E+01
                               -7.0067E-01  4.3285E+01 -3.3229E+01  2.5147E+03

           1    2.37001E+01     3.2214E-02 -6.1924E-03 -2.7677E-01  2.7871E-01
ac ID =   33377                 2.5912E-01 -2.9571E+01  5.0726E-03  2.9572E+01
                               -7.0319E-01  4.3391E+01 -3.3178E+01  2.5147E+03

           1    2.38001E+01     5.9944E-02 -7.7888E-03 -2.6536E-01  2.7216E-01
ac ID =   33377                 2.3048E-01 -2.9723E+01 -4.2018E-02  2.9724E+01
                               -7.0564E-01  4.3498E+01 -3.3125E+01  2.5147E+03

           1    2.39001E+01     8.3666E-02 -8.4053E-03 -2.6466E-01  2.7770E-01
ac ID =   33377                 3.2616E-01 -2.9801E+01 -9.5471E-02  2.9803E+01
                               -7.0808E-01  4.3605E+01 -3.3071E+01  2.5147E+03

           1    2.40001E+01     3.8947E-02  3.5072E-03 -2.0058E-01  2.0435E-01
ac ID =   33377                 4.3915E-02 -3.1646E+01  2.3833E-01  3.1647E+01
                               -7.1051E-01  4.3712E+01 -3.3017E+01  2.5147E+03

           1    2.41001E+01     1.1366E-02  4.6633E-03 -1.1030E-01  1.1098E-01
ac ID =   33377                -2.2874E-01 -3.2627E+01  3.3237E-01  3.2629E+01
                               -7.1284E-01  4.3819E+01 -3.2962E+01  2.5147E+03

           1    2.42001E+01     7.4881E-02 -2.2097E-02 -1.1513E-01  1.3910E-01
ac ID =   33377                 4.4598E-01 -3.2013E+01 -8.5421E-02  3.2016E+01
                               -7.1522E-01  4.3927E+01 -3.2905E+01  2.5147E+03

           1    2.43001E+01     5.1454E-02  1.4668E-02 -1.3210E-01  1.4252E-01
ac ID =   33377                -3.8465E-01 -3.2581E+01  4.7015E-02  3.2583E+01
                               -7.1771E-01  4.4034E+01 -3.2848E+01  2.5147E+03

           1    2.44001E+01    -6.0648E-03  2.1950E-02 -6.0090E-02  6.4261E-02
ac ID =   33377                -4.6501E-01 -3.3765E+01  4.9105E-02  3.3768E+01
                               -7.2016E-01  4.4143E+01 -3.2791E+01  2.5147E+03

           1    2.45005E+01     5.2539E-02 -1.1385E-02 -7.0320E-03  5.4217E-02
ac ID =   33377                 1.5765E-01 -3.3003E+01  1.1799E-02  3.3003E+01
                               -7.2249E-01  4.4252E+01 -3.2732E+01  2.5147E+03

           1    2.46005E+01     6.2266E-02 -1.9393E-02  3.6645E-03  6.5319E-02
ac ID =   33377                 3.8505E-01 -3.3204E+01  2.4344E-02  3.3206E+01
                               -7.2492E-01  4.4360E+01 -3.2674E+01  2.5147E+03

           1    2.47005E+01     3.1601E-03  1.1464E-02  7.7886E-03  1.4216E-02
ac ID =   33377                -1.0353E-01 -3.4622E+01 -9.3780E-02  3.4623E+01
                               -7.2746E-01  4.4469E+01 -3.2614E+01  2.5147E+03

           1    2.48005E+01     2.4178E-02  5.9829E-03  8.2291E-03  2.6231E-02
ac ID =   33377                -1.9108E-02 -3.4947E+01 -2.9836E-02  3.4947E+01
                               -7.2993E-01  4.4578E+01 -3.2555E+01  2.5147E+03

           1    2.49005E+01     3.8960E-02 -5.9851E-03  7.0754E-02  8.0993E-02
ac ID =   33377                 2.5285E-01 -3.5438E+01  1.9686E-01  3.5439E+01
                               -7.3233E-01  4.4688E+01 -3.2495E+01  2.5147E+03

