 LSTC 50th% Full_FE H-III Dummy (Beta Version, February 17, 2019)        
                    ls-dyna smp s R16 R16.0_619_d222963 date 03/18/2025

{BEGIN LEGEND}
 Entity #        Title
    22626                                                                                     
{END LEGEND}




 n o d a l   p r i n t   o u t   f o r   t i m e  s t e p       1                              ( at time 0.0000000E+00 )

 nodal point  x-disp     y-disp      z-disp      x-vel       y-vel       z-vel      x-accl      y-accl      z-accl      x-coor      y-coor      z-coor
    22626  0.00000E+00 0.00000E+00 0.00000E+00 0.00000E+00 0.00000E+00 0.00000E+00 0.00000E+00 0.00000E+00 0.00000E+00 4.65938E+00-2.81908E+01-4.49817E+01



 n o d a l   p r i n t   o u t   f o r   t i m e  s t e p       1                              ( at time 0.0000000E+00 )

 nodal point  x-rot      y-rot       z-rot       x-rot vel   y-rot vel   z-rot vel   x-rot acc   y-rot acc   z-rot acc
    22626  0.00000E+00 0.00000E+00 0.00000E+00 0.00000E+00 0.00000E+00 0.00000E+00 0.00000E+00 0.00000E+00 0.00000E+00



 n o d a l   p r i n t   o u t   f o r   t i m e  s t e p     201                              ( at time 9.9989993E-02 )

 nodal point  x-disp     y-disp      z-disp      x-vel       y-vel       z-vel      x-accl      y-accl      z-accl      x-coor      y-coor      z-coor
    22626  2.73610E-07 1.73548E-06-5.34264E-05 4.19751E-05 2.55489E-04-1.46806E-03 4.19793E-04 2.55514E-03-1.46821E-02 4.65938E+00-2.81908E+01-4.49818E+01



 n o d a l   p r i n t   o u t   f o r   t i m e  s t e p     201                              ( at time 9.9989993E-02 )

 nodal point  x-rot      y-rot       z-rot       x-rot vel   y-rot vel   z-rot vel   x-rot acc   y-rot acc   z-rot acc
    22626 -5.99259E-08-8.38974E-09-5.46409E-09-5.87094E-06-9.70222E-07-9.27499E-07-5.87153E-05-9.70319E-06-9.27592E-06



 n o d a l   p r i n t   o u t   f o r   t i m e  s t e p     401                              ( at time 1.9997999E-01 )

 nodal point  x-disp     y-disp      z-disp      x-vel       y-vel       z-vel      x-accl      y-accl      z-accl      x-coor      y-coor      z-coor
    22626  1.73133E-05 3.61694E-04-6.67523E-04 3.14662E-05 7.80963E-03-1.21519E-02-1.05099E-04 7.55490E-02-1.06849E-01 4.65939E+00-2.81905E+01-4.49824E+01



 n o d a l   p r i n t   o u t   f o r   t i m e  s t e p     401                              ( at time 1.9997999E-01 )

 nodal point  x-rot      y-rot       z-rot       x-rot vel   y-rot vel   z-rot vel   x-rot acc   y-rot acc   z-rot acc
    22626 -2.82074E-06-3.37243E-07-3.34702E-07-3.94394E-05-1.77401E-06-2.29608E-06-3.35718E-04-8.03870E-06-1.36872E-05



 n o d a l   p r i n t   o u t   f o r   t i m e  s t e p     601                              ( at time 2.9996998E-01 )

 nodal point  x-disp     y-disp      z-disp      x-vel       y-vel       z-vel      x-accl      y-accl      z-accl      x-coor      y-coor      z-coor
    22626  2.73833E-05 1.23915E-03-2.33764E-03 4.25110E-04 8.42605E-03-1.92395E-02 3.93683E-03 6.16474E-03-7.08831E-02 4.65940E+00-2.81896E+01-4.49841E+01



 n o d a l   p r i n t   o u t   f o r   t i m e  s t e p     601                              ( at time 2.9996998E-01 )

 nodal point  x-rot      y-rot       z-rot       x-rot vel   y-rot vel   z-rot vel   x-rot acc   y-rot acc   z-rot acc
    22626 -5.39023E-06-3.91067E-07-6.42089E-07-1.54441E-05-5.54524E-06-6.64510E-06 2.39977E-04-3.77161E-05-4.34946E-05



 n o d a l   p r i n t   o u t   f o r   t i m e  s t e p     801                              ( at time 3.9995997E-01 )

 nodal point  x-disp     y-disp      z-disp      x-vel       y-vel       z-vel      x-accl      y-accl      z-accl      x-coor      y-coor      z-coor
    22626  2.61024E-05 2.15569E-03-4.27950E-03-3.13185E-04 1.06431E-02-2.10511E-02-7.38368E-03 2.21724E-02-1.81177E-02 4.65940E+00-2.81887E+01-4.49860E+01



 n o d a l   p r i n t   o u t   f o r   t i m e  s t e p     801                              ( at time 3.9995997E-01 )

 nodal point  x-rot      y-rot       z-rot       x-rot vel   y-rot vel   z-rot vel   x-rot acc   y-rot acc   z-rot acc
    22626 -7.56131E-06-1.25523E-06-9.80721E-07-4.33399E-05-6.30410E-06-1.44856E-06-2.78985E-04-7.58929E-06 5.19706E-05



 n o d a l   p r i n t   o u t   f o r   t i m e  s t e p    1001                              ( at time 4.9994997E-01 )

 nodal point  x-disp     y-disp      z-disp      x-vel       y-vel       z-vel      x-accl      y-accl      z-accl      x-coor      y-coor      z-coor
    22626  3.79830E-06 3.41586E-03-6.73370E-03-2.47872E-04 1.39710E-02-2.85612E-02 6.53190E-04 3.32822E-02-7.51084E-02 4.65938E+00-2.81874E+01-4.49885E+01



 n o d a l   p r i n t   o u t   f o r   t i m e  s t e p    1001                              ( at time 4.9994997E-01 )

 nodal point  x-rot      y-rot       z-rot       x-rot vel   y-rot vel   z-rot vel   x-rot acc   y-rot acc   z-rot acc
    22626 -1.31842E-05-1.19943E-06-9.41434E-07-7.95739E-05 2.80591E-06 4.31454E-06-3.62376E-04 9.11092E-05 5.76367E-05



 n o d a l   p r i n t   o u t   f o r   t i m e  s t e p    1201                              ( at time 5.9993996E-01 )

 nodal point  x-disp     y-disp      z-disp      x-vel       y-vel       z-vel      x-accl      y-accl      z-accl      x-coor      y-coor      z-coor
    22626 -1.78119E-06 4.96338E-03-9.68738E-03 3.22045E-05 1.62949E-02-3.08297E-02 2.80105E-03 2.32417E-02-2.26870E-02 4.65937E+00-2.81859E+01-4.49914E+01



 n o d a l   p r i n t   o u t   f o r   t i m e  s t e p    1201                              ( at time 5.9993996E-01 )

 nodal point  x-rot      y-rot       z-rot       x-rot vel   y-rot vel   z-rot vel   x-rot acc   y-rot acc   z-rot acc
    22626 -1.93723E-05-9.76777E-07-9.23864E-07-5.24036E-05 3.18602E-06-1.72067E-06 2.71730E-04 3.80156E-06-6.03581E-05



 n o d a l   p r i n t   o u t   f o r   t i m e  s t e p    1401                              ( at time 6.9992995E-01 )

 nodal point  x-disp     y-disp      z-disp      x-vel       y-vel       z-vel      x-accl      y-accl      z-accl      x-coor      y-coor      z-coor
    22626 -5.12576E-05 6.75920E-03-1.31287E-02-4.69864E-04 1.92447E-02-3.88025E-02-5.02119E-03 2.95005E-02-7.97360E-02 4.65932E+00-2.81841E+01-4.49949E+01



 n o d a l   p r i n t   o u t   f o r   t i m e  s t e p    1401                              ( at time 6.9992995E-01 )

 nodal point  x-rot      y-rot       z-rot       x-rot vel   y-rot vel   z-rot vel   x-rot acc   y-rot acc   z-rot acc
    22626 -2.44561E-05-1.06855E-06-5.81764E-07-6.05164E-05-7.78092E-07 3.87577E-06-8.11357E-05-3.96451E-05 5.59700E-05



 n o d a l   p r i n t   o u t   f o r   t i m e  s t e p    1601                              ( at time 7.9991994E-01 )

 nodal point  x-disp     y-disp      z-disp      x-vel       y-vel       z-vel      x-accl      y-accl      z-accl      x-coor      y-coor      z-coor
    22626 -7.92499E-05 8.84352E-03-1.73926E-02-4.75233E-04 2.15243E-02-4.46733E-02-5.36900E-05 2.27990E-02-5.87141E-02 4.65930E+00-2.81820E+01-4.49991E+01



 n o d a l   p r i n t   o u t   f o r   t i m e  s t e p    1601                              ( at time 7.9991994E-01 )

 nodal point  x-rot      y-rot       z-rot       x-rot vel   y-rot vel   z-rot vel   x-rot acc   y-rot acc   z-rot acc
    22626 -3.13797E-05-1.19651E-06-4.44921E-07-7.62507E-05-6.35663E-06 1.79319E-06-1.57359E-04-5.57910E-05-2.08279E-05



 n o d a l   p r i n t   o u t   f o r   t i m e  s t e p    1801                              ( at time 8.9990994E-01 )

 nodal point  x-disp     y-disp      z-disp      x-vel       y-vel       z-vel      x-accl      y-accl      z-accl      x-coor      y-coor      z-coor
    22626 -1.13792E-04 1.10307E-02-2.18675E-02-2.76115E-04 2.30812E-02-4.50456E-02 1.99138E-03 1.55700E-02-3.72403E-03 4.65926E+00-2.81798E+01-4.50036E+01



 n o d a l   p r i n t   o u t   f o r   t i m e  s t e p    1801                              ( at time 8.9990994E-01 )

 nodal point  x-rot      y-rot       z-rot       x-rot vel   y-rot vel   z-rot vel   x-rot acc   y-rot acc   z-rot acc
    22626 -3.78941E-05-1.41746E-06-3.95336E-07-6.02781E-05 3.62371E-08-1.38976E-07 1.59742E-04 6.39351E-05-1.93236E-05



 n o d a l   p r i n t   o u t   f o r   t i m e  s t e p    2001                              ( at time 9.9989993E-01 )

 nodal point  x-disp     y-disp      z-disp      x-vel       y-vel       z-vel      x-accl      y-accl      z-accl      x-coor      y-coor      z-coor
    22626 -1.44932E-04 1.34603E-02-2.65497E-02 2.61591E-05 2.53366E-02-4.93715E-02 3.02304E-03 2.25567E-02-4.32625E-02 4.65923E+00-2.81774E+01-4.50083E+01



 n o d a l   p r i n t   o u t   f o r   t i m e  s t e p    2001                              ( at time 9.9989993E-01 )

 nodal point  x-rot      y-rot       z-rot       x-rot vel   y-rot vel   z-rot vel   x-rot acc   y-rot acc   z-rot acc
    22626 -4.44510E-05-1.61549E-06-2.87942E-07-7.85397E-05-1.76242E-06-3.01370E-06-1.82634E-04-1.79884E-05-2.87501E-05



 n o d a l   p r i n t   o u t   f o r   t i m e  s t e p    2201                              ( at time 1.0998899E+00 )

 nodal point  x-disp     y-disp      z-disp      x-vel       y-vel       z-vel      x-accl      y-accl      z-accl      x-coor      y-coor      z-coor
    22626 -1.50757E-04 1.60732E-02-3.18046E-02-3.25690E-04 2.74922E-02-5.53579E-02-3.51885E-03 2.15576E-02-5.98702E-02 4.65922E+00-2.81748E+01-4.50135E+01



 n o d a l   p r i n t   o u t   f o r   t i m e  s t e p    2201                              ( at time 1.0998899E+00 )

 nodal point  x-rot      y-rot       z-rot       x-rot vel   y-rot vel   z-rot vel   x-rot acc   y-rot acc   z-rot acc
    22626 -5.24055E-05-2.06341E-06-5.45422E-07-6.79542E-05-1.10882E-05-9.89807E-07 1.05866E-04-9.32672E-05 2.02409E-05



 n o d a l   p r i n t   o u t   f o r   t i m e  s t e p    2401                              ( at time 1.1998799E+00 )

 nodal point  x-disp     y-disp      z-disp      x-vel       y-vel       z-vel      x-accl      y-accl      z-accl      x-coor      y-coor      z-coor
    22626 -1.75814E-04 1.88664E-02-3.75979E-02-1.59262E-04 2.85760E-02-6.01619E-02 1.66445E-03 1.08391E-02-4.80447E-02 4.65920E+00-2.81720E+01-4.50193E+01



 n o d a l   p r i n t   o u t   f o r   t i m e  s t e p    2401                              ( at time 1.1998799E+00 )

 nodal point  x-rot      y-rot       z-rot       x-rot vel   y-rot vel   z-rot vel   x-rot acc   y-rot acc   z-rot acc
    22626 -5.85095E-05-3.03210E-06-7.08727E-07-5.83145E-05-1.08987E-05-2.33593E-06 9.64063E-05 1.89472E-06-1.34626E-05



 n o d a l   p r i n t   o u t   f o r   t i m e  s t e p    2601                              ( at time 1.2998699E+00 )

 nodal point  x-disp     y-disp      z-disp      x-vel       y-vel       z-vel      x-accl      y-accl      z-accl      x-coor      y-coor      z-coor
    22626 -2.02320E-04 2.18312E-02-4.37520E-02-1.54435E-04 3.05908E-02-6.27423E-02 4.82788E-05 2.01509E-02-2.58065E-02 4.65917E+00-2.81690E+01-4.50255E+01



 n o d a l   p r i n t   o u t   f o r   t i m e  s t e p    2601                              ( at time 1.2998699E+00 )

 nodal point  x-rot      y-rot       z-rot       x-rot vel   y-rot vel   z-rot vel   x-rot acc   y-rot acc   z-rot acc
    22626 -6.48327E-05-3.98278E-06-9.29141E-07-7.79666E-05-4.95782E-06-9.32196E-07-1.96540E-04 5.94152E-05 1.40388E-05



 n o d a l   p r i n t   o u t   f o r   t i m e  s t e p    2801                              ( at time 1.3998599E+00 )

 nodal point  x-disp     y-disp      z-disp      x-vel       y-vel       z-vel      x-accl      y-accl      z-accl      x-coor      y-coor      z-coor
    22626 -2.23575E-04 2.49853E-02-5.01229E-02-3.82372E-04 3.22480E-02-6.53415E-02-2.27960E-03 1.65729E-02-2.59948E-02 4.65915E+00-2.81658E+01-4.50318E+01



 n o d a l   p r i n t   o u t   f o r   t i m e  s t e p    2801                              ( at time 1.3998599E+00 )

 nodal point  x-rot      y-rot       z-rot       x-rot vel   y-rot vel   z-rot vel   x-rot acc   y-rot acc   z-rot acc
    22626 -7.26838E-05-4.43069E-06-9.11730E-07-7.74992E-05-6.40386E-06 2.78341E-06 4.67505E-06-1.44618E-05 3.71597E-05



 n o d a l   p r i n t   o u t   f o r   t i m e  s t e p    3001                              ( at time 1.4998499E+00 )

 nodal point  x-disp     y-disp      z-disp      x-vel       y-vel       z-vel      x-accl      y-accl      z-accl      x-coor      y-coor      z-coor
    22626 -2.60360E-04 2.83467E-02-5.69998E-02-3.50016E-04 3.48162E-02-7.25407E-02 3.23588E-04 2.56849E-02-7.19991E-02 4.65911E+00-2.81625E+01-4.50387E+01



 n o d a l   p r i n t   o u t   f o r   t i m e  s t e p    3001                              ( at time 1.4998499E+00 )

 nodal point  x-rot      y-rot       z-rot       x-rot vel   y-rot vel   z-rot vel   x-rot acc   y-rot acc   z-rot acc
    22626 -7.96695E-05-5.11716E-06-7.61881E-07-6.08990E-05-8.25041E-06-1.41792E-06 1.66018E-04-1.84674E-05-4.20174E-05



 n o d a l   p r i n t   o u t   f o r   t i m e  s t e p    3201                              ( at time 1.5998399E+00 )

 nodal point  x-disp     y-disp      z-disp      x-vel       y-vel       z-vel      x-accl      y-accl      z-accl      x-coor      y-coor      z-coor
    22626 -3.12823E-04 3.19914E-02-6.45579E-02-4.65843E-04 3.79047E-02-7.78218E-02-1.15839E-03 3.08881E-02-5.28168E-02 4.65906E+00-2.81588E+01-4.50463E+01



 n o d a l   p r i n t   o u t   f o r   t i m e  s t e p    3201                              ( at time 1.5998399E+00 )

 nodal point  x-rot      y-rot       z-rot       x-rot vel   y-rot vel   z-rot vel   x-rot acc   y-rot acc   z-rot acc
    22626 -8.51169E-05-5.97585E-06-5.63824E-07-5.81899E-05-1.03042E-05 3.24602E-06 2.70936E-05-2.05398E-05 4.66440E-05



 n o d a l   p r i n t   o u t   f o r   t i m e  s t e p    3401                              ( at time 1.6998299E+00 )

 nodal point  x-disp     y-disp      z-disp      x-vel       y-vel       z-vel      x-accl      y-accl      z-accl      x-coor      y-coor      z-coor
    22626 -3.62185E-04 3.58558E-02-7.24963E-02-5.95886E-04 3.91901E-02-8.05678E-02-1.30055E-03 1.28551E-02-2.74622E-02 4.65901E+00-2.81550E+01-4.50542E+01



 n o d a l   p r i n t   o u t   f o r   t i m e  s t e p    3401                              ( at time 1.6998299E+00 )

 nodal point  x-rot      y-rot       z-rot       x-rot vel   y-rot vel   z-rot vel   x-rot acc   y-rot acc   z-rot acc
    22626 -9.13300E-05-6.78228E-06-2.89921E-07-6.32276E-05-7.24701E-06 5.21243E-06-5.03815E-05 3.05748E-05 1.96661E-05



 n o d a l   p r i n t   o u t   f o r   t i m e  s t e p    3601                              ( at time 1.7998199E+00 )

 nodal point  x-disp     y-disp      z-disp      x-vel       y-vel       z-vel      x-accl      y-accl      z-accl      x-coor      y-coor      z-coor
    22626 -4.13745E-04 3.98020E-02-8.06675E-02-4.12927E-04 4.01377E-02-8.27482E-02 1.82977E-03 9.47731E-03-2.18064E-02 4.65896E+00-2.81510E+01-4.50624E+01



 n o d a l   p r i n t   o u t   f o r   t i m e  s t e p    3601                              ( at time 1.7998199E+00 )

 nodal point  x-rot      y-rot       z-rot       x-rot vel   y-rot vel   z-rot vel   x-rot acc   y-rot acc   z-rot acc
    22626 -9.76861E-05-7.68451E-06-1.20533E-07-5.75011E-05-9.18651E-06-1.12568E-06 5.72710E-05-1.93970E-05-6.33875E-05



 n o d a l   p r i n t   o u t   f o r   t i m e  s t e p    3801                              ( at time 1.8998099E+00 )

 nodal point  x-disp     y-disp      z-disp      x-vel       y-vel       z-vel      x-accl      y-accl      z-accl      x-coor      y-coor      z-coor
    22626 -4.57428E-04 4.39618E-02-8.91269E-02-2.89772E-04 4.28765E-02-8.66863E-02 1.23167E-03 2.73906E-02-3.93847E-02 4.65892E+00-2.81469E+01-4.50708E+01



 n o d a l   p r i n t   o u t   f o r   t i m e  s t e p    3801                              ( at time 1.8998099E+00 )

 nodal point  x-rot      y-rot       z-rot       x-rot vel   y-rot vel   z-rot vel   x-rot acc   y-rot acc   z-rot acc
    22626 -1.03089E-04-8.56589E-06 1.81903E-08-5.40534E-05-1.24047E-05-3.64917E-07 3.44800E-05-3.21847E-05 7.60836E-06



 n o d a l   p r i n t   o u t   f o r   t i m e  s t e p    4001                              ( at time 1.9997999E+00 )

 nodal point  x-disp     y-disp      z-disp      x-vel       y-vel       z-vel      x-accl      y-accl      z-accl      x-coor      y-coor      z-coor
    22626 -4.85316E-04 4.82973E-02-9.80048E-02-3.72277E-04 4.40251E-02-9.06139E-02-8.25133E-04 1.14870E-02-3.92806E-02 4.65889E+00-2.81425E+01-4.50797E+01



 n o d a l   p r i n t   o u t   f o r   t i m e  s t e p    4001                              ( at time 1.9997999E+00 )

 nodal point  x-rot      y-rot       z-rot       x-rot vel   y-rot vel   z-rot vel   x-rot acc   y-rot acc   z-rot acc
    22626 -1.08254E-04-9.93767E-06-1.18347E-08-5.26654E-05-1.72954E-05 7.00896E-07 1.38811E-05-4.89128E-05 1.06592E-05



 n o d a l   p r i n t   o u t   f o r   t i m e  s t e p    4201                              ( at time 2.0997899E+00 )

 nodal point  x-disp     y-disp      z-disp      x-vel       y-vel       z-vel      x-accl      y-accl      z-accl      x-coor      y-coor      z-coor
    22626 -5.21381E-04 5.27432E-02-1.07164E-01-3.24995E-04 4.51168E-02-9.26552E-02 4.72869E-04 1.09187E-02-2.04150E-02 4.65885E+00-2.81381E+01-4.50889E+01



 n o d a l   p r i n t   o u t   f o r   t i m e  s t e p    4201                              ( at time 2.0997899E+00 )

 nodal point  x-rot      y-rot       z-rot       x-rot vel   y-rot vel   z-rot vel   x-rot acc   y-rot acc   z-rot acc
    22626 -1.13062E-04-1.17206E-05-5.20415E-08-4.57091E-05-1.64506E-05 3.01517E-06 6.95704E-05 8.44945E-06 2.31451E-05



 n o d a l   p r i n t   o u t   f o r   t i m e  s t e p    4401                              ( at time 2.1997798E+00 )

 nodal point  x-disp     y-disp      z-disp      x-vel       y-vel       z-vel      x-accl      y-accl      z-accl      x-coor      y-coor      z-coor
    22626 -5.52105E-04 5.73316E-02-1.16487E-01-1.78525E-04 4.63862E-02-9.37880E-02 1.46485E-03 1.26950E-02-1.13290E-02 4.65882E+00-2.81335E+01-4.50982E+01



 n o d a l   p r i n t   o u t   f o r   t i m e  s t e p    4401                              ( at time 2.1997798E+00 )

 nodal point  x-rot      y-rot       z-rot       x-rot vel   y-rot vel   z-rot vel   x-rot acc   y-rot acc   z-rot acc
    22626 -1.18021E-04-1.32638E-05 1.52508E-07-5.49458E-05-1.62738E-05 2.07989E-06-9.23765E-05 1.76836E-06-9.35374E-06



 n o d a l   p r i n t   o u t   f o r   t i m e  s t e p    4601                              ( at time 2.2997698E+00 )

 nodal point  x-disp     y-disp      z-disp      x-vel       y-vel       z-vel      x-accl      y-accl      z-accl      x-coor      y-coor      z-coor
    22626 -5.65496E-04 6.20245E-02-1.25927E-01-1.92161E-04 4.78507E-02-9.55565E-02-1.36375E-04 1.46462E-02-1.76861E-02 4.65881E+00-2.81288E+01-4.51076E+01



 n o d a l   p r i n t   o u t   f o r   t i m e  s t e p    4601                              ( at time 2.2997698E+00 )

 nodal point  x-rot      y-rot       z-rot       x-rot vel   y-rot vel   z-rot vel   x-rot acc   y-rot acc   z-rot acc
    22626 -1.24030E-04-1.47550E-05 5.35467E-07-5.58873E-05-1.58011E-05 4.37524E-06-9.41620E-06 4.72720E-06 2.29558E-05



 n o d a l   p r i n t   o u t   f o r   t i m e  s t e p    4801                              ( at time 2.3997598E+00 )

 nodal point  x-disp     y-disp      z-disp      x-vel       y-vel       z-vel      x-accl      y-accl      z-accl      x-coor      y-coor      z-coor
    22626 -5.82541E-04 6.69556E-02-1.35688E-01-3.22784E-05 5.05034E-02-9.96926E-02 1.59899E-03 2.65302E-02-4.13656E-02 4.65879E+00-2.81239E+01-4.51174E+01



 n o d a l   p r i n t   o u t   f o r   t i m e  s t e p    4801                              ( at time 2.3997598E+00 )

 nodal point  x-rot      y-rot       z-rot       x-rot vel   y-rot vel   z-rot vel   x-rot acc   y-rot acc   z-rot acc
    22626 -1.29429E-04-1.64265E-05 1.45392E-06-5.34311E-05-1.62378E-05 1.25627E-05 2.45644E-05-4.36727E-06 8.18833E-05



 n o d a l   p r i n t   o u t   f o r   t i m e  s t e p    5001                              ( at time 2.4997498E+00 )

 nodal point  x-disp     y-disp      z-disp      x-vel       y-vel       z-vel      x-accl      y-accl      z-accl      x-coor      y-coor      z-coor
    22626 -5.78046E-04 7.21547E-02-1.45802E-01 1.12121E-04 5.29792E-02-1.01792E-01 1.44414E-03 2.47604E-02-2.09984E-02 4.65880E+00-2.81187E+01-4.51275E+01



 n o d a l   p r i n t   o u t   f o r   t i m e  s t e p    5001                              ( at time 2.4997498E+00 )

 nodal point  x-rot      y-rot       z-rot       x-rot vel   y-rot vel   z-rot vel   x-rot acc   y-rot acc   z-rot acc
    22626 -1.34786E-04-1.79438E-05 2.82267E-06-5.15269E-05-1.36894E-05 1.79343E-05 1.90440E-05 2.54858E-05 5.37203E-05



 n o d a l   p r i n t   o u t   f o r   t i m e  s t e p    5201                              ( at time 2.5997398E+00 )

 nodal point  x-disp     y-disp      z-disp      x-vel       y-vel       z-vel      x-accl      y-accl      z-accl      x-coor      y-coor      z-coor
    22626 -5.47514E-04 7.75272E-02-1.55970E-01 4.41434E-04 5.45486E-02-1.01504E-01 3.29346E-03 1.56954E-02 2.88255E-03 4.65883E+00-2.81133E+01-4.51377E+01



 n o d a l   p r i n t   o u t   f o r   t i m e  s t e p    5201                              ( at time 2.5997398E+00 )

 nodal point  x-rot      y-rot       z-rot       x-rot vel   y-rot vel   z-rot vel   x-rot acc   y-rot acc   z-rot acc
    22626 -1.39852E-04-1.91125E-05 4.72314E-06-4.75098E-05-9.27227E-06 2.23015E-05 4.01753E-05 4.41762E-05 4.36769E-05



 n o d a l   p r i n t   o u t   f o r   t i m e  s t e p    5401                              ( at time 2.6997298E+00 )

 nodal point  x-disp     y-disp      z-disp      x-vel       y-vel       z-vel      x-accl      y-accl      z-accl      x-coor      y-coor      z-coor
    22626 -4.84855E-04 8.31003E-02-1.66136E-01 1.03128E-03 5.72289E-02-1.02037E-01 5.89903E-03 2.68053E-02-5.33388E-03 4.65889E+00-2.81077E+01-4.51479E+01



 n o d a l   p r i n t   o u t   f o r   t i m e  s t e p    5401                              ( at time 2.6997298E+00 )

 nodal point  x-rot      y-rot       z-rot       x-rot vel   y-rot vel   z-rot vel   x-rot acc   y-rot acc   z-rot acc
    22626 -1.45281E-04-1.99690E-05 7.54983E-06-6.07316E-05-6.53290E-06 3.26303E-05-1.32231E-04 2.73964E-05 1.03298E-04



 n o d a l   p r i n t   o u t   f o r   t i m e  s t e p    5601                              ( at time 2.7997198E+00 )

 nodal point  x-disp     y-disp      z-disp      x-vel       y-vel       z-vel      x-accl      y-accl      z-accl      x-coor      y-coor      z-coor
    22626 -3.65933E-04 8.90106E-02-1.76410E-01 1.54753E-03 6.12415E-02-1.03734E-01 5.16304E-03 4.01308E-02-1.69709E-02 4.65901E+00-2.81018E+01-4.51581E+01



 n o d a l   p r i n t   o u t   f o r   t i m e  s t e p    5601                              ( at time 2.7997198E+00 )

 nodal point  x-rot      y-rot       z-rot       x-rot vel   y-rot vel   z-rot vel   x-rot acc   y-rot acc   z-rot acc
    22626 -1.50752E-04-2.05965E-05 1.12647E-05-4.67874E-05-5.99717E-06 3.79221E-05 1.39456E-04 5.35781E-06 5.29240E-05



 n o d a l   p r i n t   o u t   f o r   t i m e  s t e p    5801                              ( at time 2.8997098E+00 )

 nodal point  x-disp     y-disp      z-disp      x-vel       y-vel       z-vel      x-accl      y-accl      z-accl      x-coor      y-coor      z-coor
    22626 -1.78261E-04 9.53215E-02-1.86906E-01 2.04944E-03 6.52126E-02-1.06182E-01 5.01961E-03 3.97148E-02-2.44755E-02 4.65920E+00-2.80955E+01-4.51686E+01



 n o d a l   p r i n t   o u t   f o r   t i m e  s t e p    5801                              ( at time 2.8997098E+00 )

 nodal point  x-rot      y-rot       z-rot       x-rot vel   y-rot vel   z-rot vel   x-rot acc   y-rot acc   z-rot acc
    22626 -1.54853E-04-2.11721E-05 1.56501E-05-3.92159E-05-5.81625E-06 5.24689E-05 7.57227E-05 1.80948E-06 1.45482E-04



 n o d a l   p r i n t   o u t   f o r   t i m e  s t e p    6001                              ( at time 2.9996998E+00 )

 nodal point  x-disp     y-disp      z-disp      x-vel       y-vel       z-vel      x-accl      y-accl      z-accl      x-coor      y-coor      z-coor
    22626  5.88408E-05 1.02085E-01-1.97582E-01 2.74493E-03 7.00906E-02-1.06905E-01 6.95559E-03 4.87841E-02-7.23359E-03 4.65943E+00-2.80887E+01-4.51793E+01



 n o d a l   p r i n t   o u t   f o r   t i m e  s t e p    6001                              ( at time 2.9996998E+00 )

 nodal point  x-rot      y-rot       z-rot       x-rot vel   y-rot vel   z-rot vel   x-rot acc   y-rot acc   z-rot acc
    22626 -1.60311E-04-2.15409E-05 2.13780E-05-6.73049E-05-3.31212E-06 6.42579E-05-2.80918E-04 2.50437E-05 1.17902E-04



 n o d a l   p r i n t   o u t   f o r   t i m e  s t e p    6201                              ( at time 3.0996898E+00 )

 nodal point  x-disp     y-disp      z-disp      x-vel       y-vel       z-vel      x-accl      y-accl      z-accl      x-coor      y-coor      z-coor
    22626  3.70602E-04 1.09377E-01-2.08269E-01 3.63491E-03 7.63395E-02-1.07473E-01 8.90066E-03 6.24958E-02-5.68216E-03 4.65975E+00-2.80815E+01-4.51900E+01



 n o d a l   p r i n t   o u t   f o r   t i m e  s t e p    6201                              ( at time 3.0996898E+00 )

 nodal point  x-rot      y-rot       z-rot       x-rot vel   y-rot vel   z-rot vel   x-rot acc   y-rot acc   z-rot acc
    22626 -1.67534E-04-2.16072E-05 2.83931E-05-7.96702E-05 2.00527E-06 8.05498E-05-1.23665E-04 5.31793E-05 1.62936E-04



 n o d a l   p r i n t   o u t   f o r   t i m e  s t e p    6401                              ( at time 3.1996798E+00 )

 nodal point  x-disp     y-disp      z-disp      x-vel       y-vel       z-vel      x-accl      y-accl      z-accl      x-coor      y-coor      z-coor
    22626  7.76229E-04 1.17380E-01-2.19149E-01 4.27150E-03 8.35315E-02-1.10032E-01 6.36660E-03 7.19268E-02-2.55894E-02 4.66015E+00-2.80735E+01-4.52009E+01



 n o d a l   p r i n t   o u t   f o r   t i m e  s t e p    6401                              ( at time 3.1996798E+00 )

 nodal point  x-rot      y-rot       z-rot       x-rot vel   y-rot vel   z-rot vel   x-rot acc   y-rot acc   z-rot acc
    22626 -1.76658E-04-2.12549E-05 3.71267E-05-9.07996E-05 7.73851E-06 9.67729E-05-1.11305E-04 5.73380E-05 1.62247E-04



 n o d a l   p r i n t   o u t   f o r   t i m e  s t e p    6601                              ( at time 3.2996698E+00 )

 nodal point  x-disp     y-disp      z-disp      x-vel       y-vel       z-vel      x-accl      y-accl      z-accl      x-coor      y-coor      z-coor
    22626  1.23187E-03 1.26192E-01-2.30326E-01 5.06359E-03 9.24969E-02-1.13631E-01 7.92162E-03 8.96632E-02-3.59934E-02 4.66061E+00-2.80646E+01-4.52120E+01



 n o d a l   p r i n t   o u t   f o r   t i m e  s t e p    6601                              ( at time 3.2996698E+00 )

 nodal point  x-rot      y-rot       z-rot       x-rot vel   y-rot vel   z-rot vel   x-rot acc   y-rot acc   z-rot acc
    22626 -1.88077E-04-2.05595E-05 4.84796E-05-1.32610E-04 8.59885E-06 1.18006E-04-4.18147E-04 8.60423E-06 2.12352E-04



 n o d a l   p r i n t   o u t   f o r   t i m e  s t e p    6801                              ( at time 3.3996598E+00 )

 nodal point  x-disp     y-disp      z-disp      x-vel       y-vel       z-vel      x-accl      y-accl      z-accl      x-coor      y-coor      z-coor
    22626  1.74427E-03 1.35914E-01-2.41747E-01 5.23016E-03 1.01443E-01-1.14523E-01 1.66592E-03 8.94660E-02-8.91945E-03 4.66112E+00-2.80549E+01-4.52235E+01



 n o d a l   p r i n t   o u t   f o r   t i m e  s t e p    6801                              ( at time 3.3996598E+00 )

 nodal point  x-rot      y-rot       z-rot       x-rot vel   y-rot vel   z-rot vel   x-rot acc   y-rot acc   z-rot acc
    22626 -2.03216E-04-1.89934E-05 6.25033E-05-1.70198E-04 1.87124E-05 1.53153E-04-3.75920E-04 1.01146E-04 3.51505E-04



 n o d a l   p r i n t   o u t   f o r   t i m e  s t e p    7001                              ( at time 3.4996498E+00 )

 nodal point  x-disp     y-disp      z-disp      x-vel       y-vel       z-vel      x-accl      y-accl      z-accl      x-coor      y-coor      z-coor
    22626  2.31860E-03 1.46533E-01-2.53193E-01 6.41525E-03 1.11458E-01-1.14297E-01 1.18521E-02 1.00167E-01 2.25217E-03 4.66169E+00-2.80443E+01-4.52349E+01



 n o d a l   p r i n t   o u t   f o r   t i m e  s t e p    7001                              ( at time 3.4996498E+00 )

 nodal point  x-rot      y-rot       z-rot       x-rot vel   y-rot vel   z-rot vel   x-rot acc   y-rot acc   z-rot acc
    22626 -2.24420E-04-1.73567E-05 8.00892E-05-2.46369E-04 1.99147E-05 1.97601E-04-7.61788E-04 1.20237E-05 4.44523E-04



 n o d a l   p r i n t   o u t   f o r   t i m e  s t e p    7201                              ( at time 3.5996397E+00 )

 nodal point  x-disp     y-disp      z-disp      x-vel       y-vel       z-vel      x-accl      y-accl      z-accl      x-coor      y-coor      z-coor
    22626  3.00256E-03 1.58160E-01-2.64582E-01 6.67311E-03 1.20533E-01-1.13929E-01 2.57889E-03 9.07574E-02 3.68714E-03 4.66238E+00-2.80327E+01-4.52463E+01



 n o d a l   p r i n t   o u t   f o r   t i m e  s t e p    7201                              ( at time 3.5996397E+00 )

 nodal point  x-rot      y-rot       z-rot       x-rot vel   y-rot vel   z-rot vel   x-rot acc   y-rot acc   z-rot acc
    22626 -2.52384E-04-1.43039E-05 1.00780E-04-3.05861E-04 3.64629E-05 2.28382E-04-5.94975E-04 1.65499E-04 3.07845E-04



 n o d a l   p r i n t   o u t   f o r   t i m e  s t e p    7401                              ( at time 3.6996297E+00 )

 nodal point  x-disp     y-disp      z-disp      x-vel       y-vel       z-vel      x-accl      y-accl      z-accl      x-coor      y-coor      z-coor
    22626  3.73265E-03 1.70874E-01-2.75979E-01 8.54337E-03 1.33060E-01-1.14502E-01 1.87044E-02 1.25282E-01-5.73528E-03 4.66311E+00-2.80200E+01-4.52577E+01



 n o d a l   p r i n t   o u t   f o r   t i m e  s t e p    7401                              ( at time 3.6996297E+00 )

 nodal point  x-rot      y-rot       z-rot       x-rot vel   y-rot vel   z-rot vel   x-rot acc   y-rot acc   z-rot acc
    22626 -2.87006E-04-1.10255E-05 1.25688E-04-3.79291E-04 3.47108E-05 2.54346E-04-7.34369E-04-1.75225E-05 2.59666E-04



 n o d a l   p r i n t   o u t   f o r   t i m e  s t e p    7601                              ( at time 3.7996197E+00 )

 nodal point  x-disp     y-disp      z-disp      x-vel       y-vel       z-vel      x-accl      y-accl      z-accl      x-coor      y-coor      z-coor
    22626  4.55292E-03 1.84760E-01-2.87376E-01 9.41378E-03 1.45060E-01-1.13478E-01 8.70502E-03 1.20012E-01 1.02463E-02 4.66393E+00-2.80061E+01-4.52691E+01



 n o d a l   p r i n t   o u t   f o r   t i m e  s t e p    7601                              ( at time 3.7996197E+00 )

 nodal point  x-rot      y-rot       z-rot       x-rot vel   y-rot vel   z-rot vel   x-rot acc   y-rot acc   z-rot acc
    22626 -3.30766E-04-7.18622E-06 1.53990E-04-5.09883E-04 4.26617E-05 3.01913E-04-1.30606E-03 7.95167E-05 4.75711E-04



 n o d a l   p r i n t   o u t   f o r   t i m e  s t e p    7801                              ( at time 3.8996097E+00 )

 nodal point  x-disp     y-disp      z-disp      x-vel       y-vel       z-vel      x-accl      y-accl      z-accl      x-coor      y-coor      z-coor
    22626  5.49890E-03 1.99837E-01-2.98569E-01 9.25594E-03 1.57018E-01-1.09406E-01-1.57859E-03 1.19587E-01 4.07185E-02 4.66487E+00-2.79910E+01-4.52803E+01



 n o d a l   p r i n t   o u t   f o r   t i m e  s t e p    7801                              ( at time 3.8996097E+00 )

 nodal point  x-rot      y-rot       z-rot       x-rot vel   y-rot vel   z-rot vel   x-rot acc   y-rot acc   z-rot acc
    22626 -3.85954E-04-2.76620E-06 1.85962E-04-5.86619E-04 4.65401E-05 3.53302E-04-7.67433E-04 3.87873E-05 5.13949E-04



 n o d a l   p r i n t   o u t   f o r   t i m e  s t e p    8001                              ( at time 3.9995997E+00 )

 nodal point  x-disp     y-disp      z-disp      x-vel       y-vel       z-vel      x-accl      y-accl      z-accl      x-coor      y-coor      z-coor
    22626  6.59894E-03 2.16121E-01-3.09444E-01 1.15308E-02 1.69078E-01-1.07003E-01 2.27509E-02 1.20617E-01 2.40329E-02 4.66597E+00-2.79747E+01-4.52912E+01



 n o d a l   p r i n t   o u t   f o r   t i m e  s t e p    8001                              ( at time 3.9995997E+00 )

 nodal point  x-rot      y-rot       z-rot       x-rot vel   y-rot vel   z-rot vel   x-rot acc   y-rot acc   z-rot acc
    22626 -4.53401E-04 1.53130E-06 2.21372E-04-7.27751E-04 3.74159E-05 3.60496E-04-1.41146E-03-9.12505E-05 7.19458E-05



 n o d a l   p r i n t   o u t   f o r   t i m e  s t e p    8201                              ( at time 4.0995897E+00 )

 nodal point  x-disp     y-disp      z-disp      x-vel       y-vel       z-vel      x-accl      y-accl      z-accl      x-coor      y-coor      z-coor
    22626  7.76933E-03 2.33766E-01-3.20114E-01 1.28306E-02 1.83824E-01-1.06406E-01 1.29990E-02 1.47477E-01 5.97186E-03 4.66714E+00-2.79571E+01-4.53018E+01



 n o d a l   p r i n t   o u t   f o r   t i m e  s t e p    8201                              ( at time 4.0995897E+00 )

 nodal point  x-rot      y-rot       z-rot       x-rot vel   y-rot vel   z-rot vel   x-rot acc   y-rot acc   z-rot acc
    22626 -5.32515E-04 6.15901E-06 2.59657E-04-8.58029E-04 4.98514E-05 4.03494E-04-1.30291E-03 1.24367E-04 4.30017E-04



 n o d a l   p r i n t   o u t   f o r   t i m e  s t e p    8401                              ( at time 4.1995797E+00 )

 nodal point  x-disp     y-disp      z-disp      x-vel       y-vel       z-vel      x-accl      y-accl      z-accl      x-coor      y-coor      z-coor
    22626  9.09625E-03 2.52814E-01-3.30582E-01 1.35923E-02 1.98831E-01-1.03496E-01 7.61844E-03 1.50084E-01 2.90998E-02 4.66847E+00-2.79380E+01-4.53123E+01



 n o d a l   p r i n t   o u t   f o r   t i m e  s t e p    8401                              ( at time 4.1995797E+00 )

 nodal point  x-rot      y-rot       z-rot       x-rot vel   y-rot vel   z-rot vel   x-rot acc   y-rot acc   z-rot acc
    22626 -6.23820E-04 1.12925E-05 3.01113E-04-9.99121E-04 5.21093E-05 4.33919E-04-1.41107E-03 2.25815E-05 3.04283E-04



 n o d a l   p r i n t   o u t   f o r   t i m e  s t e p    8601                              ( at time 4.2995697E+00 )

 nodal point  x-disp     y-disp      z-disp      x-vel       y-vel       z-vel      x-accl      y-accl      z-accl      x-coor      y-coor      z-coor
    22626  1.05708E-02 2.73391E-01-3.40710E-01 1.53613E-02 2.13759E-01-9.93873E-02 1.76919E-02 1.49290E-01 4.10944E-02 4.66995E+00-2.79174E+01-4.53224E+01



 n o d a l   p r i n t   o u t   f o r   t i m e  s t e p    8601                              ( at time 4.2995697E+00 )

 nodal point  x-rot      y-rot       z-rot       x-rot vel   y-rot vel   z-rot vel   x-rot acc   y-rot acc   z-rot acc
    22626 -7.31862E-04 1.58580E-05 3.45793E-04-1.16031E-03 4.86314E-05 4.60507E-04-1.61201E-03-3.47824E-05 2.65907E-04



 n o d a l   p r i n t   o u t   f o r   t i m e  s t e p    8801                              ( at time 4.3995597E+00 )

 nodal point  x-disp     y-disp      z-disp      x-vel       y-vel       z-vel      x-accl      y-accl      z-accl      x-coor      y-coor      z-coor
    22626  1.20944E-02 2.95527E-01-3.50274E-01 1.56551E-02 2.28300E-01-9.17109E-02 2.93826E-03 1.45429E-01 7.67712E-02 4.67147E+00-2.78953E+01-4.53320E+01



 n o d a l   p r i n t   o u t   f o r   t i m e  s t e p    8801                              ( at time 4.3995597E+00 )

 nodal point  x-rot      y-rot       z-rot       x-rot vel   y-rot vel   z-rot vel   x-rot acc   y-rot acc   z-rot acc
    22626 -8.53986E-04 2.05574E-05 3.93945E-04-1.26639E-03 3.25528E-05 4.90694E-04-1.06097E-03-1.60803E-04 3.01906E-04



 n o d a l   p r i n t   o u t   f o r   t i m e  s t e p    9001                              ( at time 4.4995497E+00 )

 nodal point  x-disp     y-disp      z-disp      x-vel       y-vel       z-vel      x-accl      y-accl      z-accl      x-coor      y-coor      z-coor
    22626  1.37342E-02 3.19273E-01-3.59298E-01 1.74108E-02 2.45811E-01-8.82797E-02 1.75581E-02 1.75122E-01 3.43160E-02 4.67311E+00-2.78716E+01-4.53410E+01



 n o d a l   p r i n t   o u t   f o r   t i m e  s t e p    9001                              ( at time 4.4995497E+00 )

 nodal point  x-rot      y-rot       z-rot       x-rot vel   y-rot vel   z-rot vel   x-rot acc   y-rot acc   z-rot acc
    22626 -9.93725E-04 2.53957E-05 4.43482E-04-1.49342E-03 5.50225E-05 5.18418E-04-2.27046E-03 2.24719E-04 2.77266E-04



 n o d a l   p r i n t   o u t   f o r   t i m e  s t e p    9201                              ( at time 4.5995397E+00 )

 nodal point  x-disp     y-disp      z-disp      x-vel       y-vel       z-vel      x-accl      y-accl      z-accl      x-coor      y-coor      z-coor
    22626  1.55624E-02 3.44786E-01-3.67884E-01 1.91345E-02 2.63243E-01-8.20157E-02 1.72387E-02 1.74339E-01 6.26457E-02 4.67494E+00-2.78460E+01-4.53496E+01



 n o d a l   p r i n t   o u t   f o r   t i m e  s t e p    9201                              ( at time 4.5995397E+00 )

 nodal point  x-rot      y-rot       z-rot       x-rot vel   y-rot vel   z-rot vel   x-rot acc   y-rot acc   z-rot acc
    22626 -1.15247E-03 3.10892E-05 4.95911E-04-1.62729E-03 4.99573E-05 5.41861E-04-1.33890E-03-5.06568E-05 2.34454E-04



 n o d a l   p r i n t   o u t   f o r   t i m e  s t e p    9401                              ( at time 4.6995297E+00 )

 nodal point  x-disp     y-disp      z-disp      x-vel       y-vel       z-vel      x-accl      y-accl      z-accl      x-coor      y-coor      z-coor
    22626  1.74848E-02 3.71865E-01-3.75810E-01 1.80206E-02 2.78424E-01-7.80791E-02-1.11398E-02 1.51826E-01 3.93706E-02 4.67686E+00-2.78190E+01-4.53575E+01



 n o d a l   p r i n t   o u t   f o r   t i m e  s t e p    9401                              ( at time 4.6995297E+00 )

 nodal point  x-rot      y-rot       z-rot       x-rot vel   y-rot vel   z-rot vel   x-rot acc   y-rot acc   z-rot acc
    22626 -1.32742E-03 3.57190E-05 5.50876E-04-1.88875E-03 3.86574E-05 5.39650E-04-2.61486E-03-1.13011E-04-2.21142E-05



 n o d a l   p r i n t   o u t   f o r   t i m e  s t e p    9601                              ( at time 4.7995197E+00 )

 nodal point  x-disp     y-disp      z-disp      x-vel       y-vel       z-vel      x-accl      y-accl      z-accl      x-coor      y-coor      z-coor
    22626  1.94446E-02 4.00776E-01-3.83114E-01 2.06304E-02 2.97586E-01-6.86095E-02 2.61002E-02 1.91641E-01 9.47053E-02 4.67882E+00-2.77901E+01-4.53648E+01



 n o d a l   p r i n t   o u t   f o r   t i m e  s t e p    9601                              ( at time 4.7995197E+00 )

 nodal point  x-rot      y-rot       z-rot       x-rot vel   y-rot vel   z-rot vel   x-rot acc   y-rot acc   z-rot acc
    22626 -1.52428E-03 3.96889E-05 6.06435E-04-2.05668E-03 4.62077E-05 5.52298E-04-1.67941E-03 7.55112E-05 1.26492E-04



 n o d a l   p r i n t   o u t   f o r   t i m e  s t e p    9801                              ( at time 4.8995097E+00 )

 nodal point  x-disp     y-disp      z-disp      x-vel       y-vel       z-vel      x-accl      y-accl      z-accl      x-coor      y-coor      z-coor
    22626  2.16094E-02 4.31300E-01-3.89615E-01 2.21133E-02 3.15501E-01-6.09159E-02 1.48304E-02 1.79163E-01 7.69442E-02 4.68098E+00-2.77595E+01-4.53713E+01



 n o d a l   p r i n t   o u t   f o r   t i m e  s t e p    9801                              ( at time 4.8995097E+00 )

 nodal point  x-rot      y-rot       z-rot       x-rot vel   y-rot vel   z-rot vel   x-rot acc   y-rot acc   z-rot acc
    22626 -1.73805E-03 4.50204E-05 6.62789E-04-2.23581E-03 7.76976E-05 5.66732E-04-1.79148E-03 3.14931E-04 1.44349E-04



 n o d a l   p r i n t   o u t   f o r   t i m e  s t e p   10001                              ( at time 4.9994997E+00 )

 nodal point  x-disp     y-disp      z-disp      x-vel       y-vel       z-vel      x-accl      y-accl      z-accl      x-coor      y-coor      z-coor
    22626  2.38411E-02 4.63672E-01-3.95454E-01 2.15945E-02 3.32138E-01-5.45349E-02-5.18799E-03 1.66385E-01 6.38152E-02 4.68322E+00-2.77272E+01-4.53772E+01



 n o d a l   p r i n t   o u t   f o r   t i m e  s t e p   10001                              ( at time 4.9994997E+00 )

 nodal point  x-rot      y-rot       z-rot       x-rot vel   y-rot vel   z-rot vel   x-rot acc   y-rot acc   z-rot acc
    22626 -1.97429E-03 5.05183E-05 7.21828E-04-2.44927E-03 2.72796E-05 5.95099E-04-2.13485E-03-5.04229E-04 2.83705E-04



 n o d a l   p r i n t   o u t   f o r   t i m e  s t e p   10202                              ( at time 5.0999896E+00 )

 nodal point  x-disp     y-disp      z-disp      x-vel       y-vel       z-vel      x-accl      y-accl      z-accl      x-coor      y-coor      z-coor
    22626  2.61459E-02 4.97840E-01-4.00566E-01 2.31754E-02 3.48323E-01-4.71521E-02 1.57322E-02 1.61068E-01 7.34687E-02 4.68552E+00-2.76930E+01-4.53823E+01



 n o d a l   p r i n t   o u t   f o r   t i m e  s t e p   10202                              ( at time 5.0999896E+00 )

 nodal point  x-rot      y-rot       z-rot       x-rot vel   y-rot vel   z-rot vel   x-rot acc   y-rot acc   z-rot acc
    22626 -2.22847E-03 5.48952E-05 7.79424E-04-2.62684E-03 6.55026E-05 5.61144E-04-1.76706E-03 3.80368E-04-3.37904E-04



 n o d a l   p r i n t   o u t   f o r   t i m e  s t e p   10402                              ( at time 5.1999796E+00 )

 nodal point  x-disp     y-disp      z-disp      x-vel       y-vel       z-vel      x-accl      y-accl      z-accl      x-coor      y-coor      z-coor
    22626  2.84974E-02 5.33918E-01-4.04768E-01 2.46395E-02 3.68131E-01-3.50779E-02 1.46425E-02 1.98094E-01 1.20754E-01 4.68787E+00-2.76569E+01-4.53865E+01



 n o d a l   p r i n t   o u t   f o r   t i m e  s t e p   10402                              ( at time 5.1999796E+00 )

 nodal point  x-rot      y-rot       z-rot       x-rot vel   y-rot vel   z-rot vel   x-rot acc   y-rot acc   z-rot acc
    22626 -2.50415E-03 6.22978E-05 8.38199E-04-2.82875E-03 5.54424E-05 6.18988E-04-2.01930E-03-1.00612E-04 5.78497E-04



 n o d a l   p r i n t   o u t   f o r   t i m e  s t e p   10602                              ( at time 5.2999696E+00 )

 nodal point  x-disp     y-disp      z-disp      x-vel       y-vel       z-vel      x-accl      y-accl      z-accl      x-coor      y-coor      z-coor
    22626  3.09103E-02 5.71431E-01-4.08021E-01 2.57714E-02 3.87118E-01-3.05368E-02 1.13200E-02 1.89890E-01 4.54154E-02 4.69029E+00-2.76194E+01-4.53897E+01



 n o d a l   p r i n t   o u t   f o r   t i m e  s t e p   10602                              ( at time 5.2999696E+00 )

 nodal point  x-rot      y-rot       z-rot       x-rot vel   y-rot vel   z-rot vel   x-rot acc   y-rot acc   z-rot acc
    22626 -2.79703E-03 6.70140E-05 8.99056E-04-3.04622E-03 6.80800E-05 5.61608E-04-2.17493E-03 1.26389E-04-5.73859E-04



 n o d a l   p r i n t   o u t   f o r   t i m e  s t e p   10802                              ( at time 5.3999596E+00 )

 nodal point  x-disp     y-disp      z-disp      x-vel       y-vel       z-vel      x-accl      y-accl      z-accl      x-coor      y-coor      z-coor
    22626  3.33809E-02 6.10783E-01-4.10409E-01 2.46233E-02 3.98830E-01-1.72652E-02-1.14822E-02 1.17138E-01 1.32730E-01 4.69276E+00-2.75800E+01-4.53921E+01



 n o d a l   p r i n t   o u t   f o r   t i m e  s t e p   10802                              ( at time 5.3999596E+00 )

 nodal point  x-rot      y-rot       z-rot       x-rot vel   y-rot vel   z-rot vel   x-rot acc   y-rot acc   z-rot acc
    22626 -3.11182E-03 7.31762E-05 9.54860E-04-3.21498E-03 6.81240E-05 5.82274E-04-1.68772E-03 4.39803E-07 2.06685E-04



 n o d a l   p r i n t   o u t   f o r   t i m e  s t e p   11002                              ( at time 5.4999496E+00 )

 nodal point  x-disp     y-disp      z-disp      x-vel       y-vel       z-vel      x-accl      y-accl      z-accl      x-coor      y-coor      z-coor
    22626  3.59860E-02 6.51792E-01-4.11967E-01 2.53612E-02 4.21120E-01-1.33821E-02 7.37989E-03 2.22918E-01 3.88351E-02 4.69536E+00-2.75390E+01-4.53937E+01



 n o d a l   p r i n t   o u t   f o r   t i m e  s t e p   11002                              ( at time 5.4999496E+00 )

 nodal point  x-rot      y-rot       z-rot       x-rot vel   y-rot vel   z-rot vel   x-rot acc   y-rot acc   z-rot acc
    22626 -3.44608E-03 8.05659E-05 1.01357E-03-3.49694E-03 5.90625E-05 6.07336E-04-2.81990E-03-9.06243E-05 2.50641E-04



 n o d a l   p r i n t   o u t   f o r   t i m e  s t e p   11202                              ( at time 5.5999396E+00 )

 nodal point  x-disp     y-disp      z-disp      x-vel       y-vel       z-vel      x-accl      y-accl      z-accl      x-coor      y-coor      z-coor
    22626  3.86875E-02 6.94333E-01-4.12376E-01 2.73129E-02 4.32331E-01 5.08047E-03 1.95188E-02 1.12125E-01 1.84644E-01 4.69806E+00-2.74965E+01-4.53941E+01



 n o d a l   p r i n t   o u t   f o r   t i m e  s t e p   11202                              ( at time 5.5999396E+00 )

 nodal point  x-rot      y-rot       z-rot       x-rot vel   y-rot vel   z-rot vel   x-rot acc   y-rot acc   z-rot acc
    22626 -3.80151E-03 8.75492E-05 1.06711E-03-3.62140E-03 7.53573E-05 5.05994E-04-1.24479E-03 1.62964E-04-1.01352E-03



 n o d a l   p r i n t   o u t   f o r   t i m e  s t e p   11402                              ( at time 5.6999296E+00 )

 nodal point  x-disp     y-disp      z-disp      x-vel       y-vel       z-vel      x-accl      y-accl      z-accl      x-coor      y-coor      z-coor
    22626  4.13086E-02 7.38370E-01-4.11607E-01 2.82073E-02 4.50437E-01 1.14889E-02 8.94465E-03 1.81078E-01 6.40902E-02 4.70068E+00-2.74525E+01-4.53933E+01



 n o d a l   p r i n t   o u t   f o r   t i m e  s t e p   11402                              ( at time 5.6999296E+00 )

 nodal point  x-rot      y-rot       z-rot       x-rot vel   y-rot vel   z-rot vel   x-rot acc   y-rot acc   z-rot acc
    22626 -4.17489E-03 9.42374E-05 1.12156E-03-3.83940E-03 7.42804E-05 5.13845E-04-2.18020E-03-1.07695E-05 7.85198E-05



 n o d a l   p r i n t   o u t   f o r   t i m e  s t e p   11602                              ( at time 5.7999195E+00 )

 nodal point  x-disp     y-disp      z-disp      x-vel       y-vel       z-vel      x-accl      y-accl      z-accl      x-coor      y-coor      z-coor
    22626  4.41528E-02 7.84145E-01-4.09780E-01 2.54738E-02 4.62371E-01 2.76071E-02-2.73376E-02 1.19349E-01 1.61199E-01 4.70353E+00-2.74067E+01-4.53915E+01



 n o d a l   p r i n t   o u t   f o r   t i m e  s t e p   11602                              ( at time 5.7999195E+00 )

 nodal point  x-rot      y-rot       z-rot       x-rot vel   y-rot vel   z-rot vel   x-rot acc   y-rot acc   z-rot acc
    22626 -4.57009E-03 1.02236E-04 1.17180E-03-4.01555E-03 7.48506E-05 5.08396E-04-1.76161E-03 5.70260E-06-5.45007E-05



 n o d a l   p r i n t   o u t   f o r   t i m e  s t e p   11802                              ( at time 5.8999095E+00 )

 nodal point  x-disp     y-disp      z-disp      x-vel       y-vel       z-vel      x-accl      y-accl      z-accl      x-coor      y-coor      z-coor
    22626  4.69376E-02 8.31313E-01-4.06665E-01 3.10322E-02 4.81877E-01 3.49909E-02 5.55896E-02 1.95081E-01 7.38458E-02 4.70631E+00-2.73595E+01-4.53884E+01



 n o d a l   p r i n t   o u t   f o r   t i m e  s t e p   11802                              ( at time 5.8999095E+00 )

 nodal point  x-rot      y-rot       z-rot       x-rot vel   y-rot vel   z-rot vel   x-rot acc   y-rot acc   z-rot acc
    22626 -4.98183E-03 1.10426E-04 1.22242E-03-4.22045E-03 1.09342E-04 4.67546E-04-2.04927E-03 3.44945E-04-4.08541E-04



 n o d a l   p r i n t   o u t   f o r   t i m e  s t e p   12002                              ( at time 5.9998995E+00 )

 nodal point  x-disp     y-disp      z-disp      x-vel       y-vel       z-vel      x-accl      y-accl      z-accl      x-coor      y-coor      z-coor
    22626  4.97688E-02 8.79976E-01-4.02466E-01 2.78588E-02 4.93925E-01 4.71350E-02-3.17374E-02 1.20493E-01 1.21453E-01 4.70914E+00-2.73109E+01-4.53842E+01



 n o d a l   p r i n t   o u t   f o r   t i m e  s t e p   12002                              ( at time 5.9998995E+00 )

 nodal point  x-rot      y-rot       z-rot       x-rot vel   y-rot vel   z-rot vel   x-rot acc   y-rot acc   z-rot acc
    22626 -5.41329E-03 1.20698E-04 1.26866E-03-4.46385E-03 9.46141E-05 4.78920E-04-2.43420E-03-1.47290E-04 1.13753E-04



 n o d a l   p r i n t   o u t   f o r   t i m e  s t e p   12202                              ( at time 6.0998895E+00 )

 nodal point  x-disp     y-disp      z-disp      x-vel       y-vel       z-vel      x-accl      y-accl      z-accl      x-coor      y-coor      z-coor
    22626  5.26957E-02 9.30351E-01-3.96999E-01 2.74119E-02 5.09516E-01 5.95961E-02-4.46938E-03 1.55916E-01 1.24623E-01 4.71207E+00-2.72605E+01-4.53787E+01



 n o d a l   p r i n t   o u t   f o r   t i m e  s t e p   12202                              ( at time 6.0998895E+00 )

 nodal point  x-rot      y-rot       z-rot       x-rot vel   y-rot vel   z-rot vel   x-rot acc   y-rot acc   z-rot acc
    22626 -5.86602E-03 1.29316E-04 1.31111E-03-4.62110E-03 1.10317E-04 4.44760E-04-1.57272E-03 1.57049E-04-3.41635E-04



 n o d a l   p r i n t   o u t   f o r   t i m e  s t e p   12402                              ( at time 6.1998795E+00 )

 nodal point  x-disp     y-disp      z-disp      x-vel       y-vel       z-vel      x-accl      y-accl      z-accl      x-coor      y-coor      z-coor
    22626  5.55545E-02 9.82194E-01-3.90319E-01 3.01103E-02 5.24925E-01 7.39189E-02 2.69871E-02 1.54111E-01 1.43242E-01 4.71493E+00-2.72086E+01-4.53720E+01



 n o d a l   p r i n t   o u t   f o r   t i m e  s t e p   12402                              ( at time 6.1998795E+00 )

 nodal point  x-rot      y-rot       z-rot       x-rot vel   y-rot vel   z-rot vel   x-rot acc   y-rot acc   z-rot acc
    22626 -6.33615E-03 1.42542E-04 1.35485E-03-4.80158E-03 1.30613E-04 3.89653E-04-1.80498E-03 2.02975E-04-5.51125E-04



 n o d a l   p r i n t   o u t   f o r   t i m e  s t e p   12602                              ( at time 6.2998695E+00 )

 nodal point  x-disp     y-disp      z-disp      x-vel       y-vel       z-vel      x-accl      y-accl      z-accl      x-coor      y-coor      z-coor
    22626  5.86127E-02 1.03553E+00-3.82437E-01 2.98210E-02 5.41484E-01 8.16143E-02-2.89406E-03 1.65602E-01 7.69616E-02 4.71799E+00-2.71553E+01-4.53642E+01



 n o d a l   p r i n t   o u t   f o r   t i m e  s t e p   12602                              ( at time 6.2998695E+00 )

 nodal point  x-rot      y-rot       z-rot       x-rot vel   y-rot vel   z-rot vel   x-rot acc   y-rot acc   z-rot acc
    22626 -6.82563E-03 1.56184E-04 1.39372E-03-4.99600E-03 1.47064E-04 3.67094E-04-1.94434E-03 1.64530E-04-2.25611E-04



 n o d a l   p r i n t   o u t   f o r   t i m e  s t e p   12802                              ( at time 6.3998595E+00 )

 nodal point  x-disp     y-disp      z-disp      x-vel       y-vel       z-vel      x-accl      y-accl      z-accl      x-coor      y-coor      z-coor
    22626  6.14466E-02 1.09059E+00-3.73319E-01 3.05973E-02 5.56111E-01 1.00382E-01 7.76416E-03 1.46289E-01 1.87691E-01 4.72082E+00-2.71002E+01-4.53550E+01



 n o d a l   p r i n t   o u t   f o r   t i m e  s t e p   12802                              ( at time 6.3998595E+00 )

 nodal point  x-rot      y-rot       z-rot       x-rot vel   y-rot vel   z-rot vel   x-rot acc   y-rot acc   z-rot acc
    22626 -7.33322E-03 1.70743E-04 1.43135E-03-5.17472E-03 1.52174E-04 3.40508E-04-1.78736E-03 5.11077E-05-2.65887E-04



 n o d a l   p r i n t   o u t   f o r   t i m e  s t e p   13002                              ( at time 6.4998495E+00 )

 nodal point  x-disp     y-disp      z-disp      x-vel       y-vel       z-vel      x-accl      y-accl      z-accl      x-coor      y-coor      z-coor
    22626  6.45345E-02 1.14706E+00-3.62649E-01 2.67767E-02 5.74352E-01 1.12010E-01-3.82095E-02 1.82429E-01 1.16299E-01 4.72391E+00-2.70438E+01-4.53444E+01



 n o d a l   p r i n t   o u t   f o r   t i m e  s t e p   13002                              ( at time 6.4998495E+00 )

 nodal point  x-rot      y-rot       z-rot       x-rot vel   y-rot vel   z-rot vel   x-rot acc   y-rot acc   z-rot acc
    22626 -7.86017E-03 1.88398E-04 1.46632E-03-5.40212E-03 1.94339E-04 3.68244E-04-2.27429E-03 4.21684E-04 2.77385E-04



 n o d a l   p r i n t   o u t   f o r   t i m e  s t e p   13202                              ( at time 6.5998395E+00 )

 nodal point  x-disp     y-disp      z-disp      x-vel       y-vel       z-vel      x-accl      y-accl      z-accl      x-coor      y-coor      z-coor
    22626  6.74854E-02 1.20507E+00-3.50765E-01 3.32932E-02 5.88738E-01 1.26745E-01 6.51708E-02 1.43869E-01 1.47358E-01 4.72686E+00-2.69858E+01-4.53325E+01



 n o d a l   p r i n t   o u t   f o r   t i m e  s t e p   13202                              ( at time 6.5998395E+00 )

 nodal point  x-rot      y-rot       z-rot       x-rot vel   y-rot vel   z-rot vel   x-rot acc   y-rot acc   z-rot acc
    22626 -8.40517E-03 2.08491E-04 1.50120E-03-5.57555E-03 1.92793E-04 2.73553E-04-1.73442E-03-1.54547E-05-9.46994E-04



 n o d a l   p r i n t   o u t   f o r   t i m e  s t e p   13402                              ( at time 6.6998295E+00 )

 nodal point  x-disp     y-disp      z-disp      x-vel       y-vel       z-vel      x-accl      y-accl      z-accl      x-coor      y-coor      z-coor
    22626  7.05420E-02 1.26462E+00-3.37295E-01 2.93528E-02 6.03583E-01 1.43103E-01-3.94077E-02 1.48472E-01 1.63597E-01 4.72992E+00-2.69262E+01-4.53190E+01



 n o d a l   p r i n t   o u t   f o r   t i m e  s t e p   13402                              ( at time 6.6998295E+00 )

 nodal point  x-rot      y-rot       z-rot       x-rot vel   y-rot vel   z-rot vel   x-rot acc   y-rot acc   z-rot acc
    22626 -8.96909E-03 2.30516E-04 1.52958E-03-5.73214E-03 2.51602E-04 2.97200E-04-1.56610E-03 5.88151E-04 2.36490E-04



 n o d a l   p r i n t   o u t   f o r   t i m e  s t e p   13602                              ( at time 6.7998195E+00 )

 nodal point  x-disp     y-disp      z-disp      x-vel       y-vel       z-vel      x-accl      y-accl      z-accl      x-coor      y-coor      z-coor
    22626  7.36201E-02 1.32592E+00-3.22371E-01 2.92821E-02 6.20471E-01 1.55986E-01-7.07579E-04 1.68891E-01 1.28842E-01 4.73300E+00-2.68649E+01-4.53041E+01



 n o d a l   p r i n t   o u t   f o r   t i m e  s t e p   13602                              ( at time 6.7998195E+00 )

 nodal point  x-rot      y-rot       z-rot       x-rot vel   y-rot vel   z-rot vel   x-rot acc   y-rot acc   z-rot acc
    22626 -9.55078E-03 2.54897E-04 1.55965E-03-5.91332E-03 2.23716E-04 2.78537E-04-1.81192E-03-2.78892E-04-1.86650E-04



 n o d a l   p r i n t   o u t   f o r   t i m e  s t e p   13802                              ( at time 6.8998095E+00 )

 nodal point  x-disp     y-disp      z-disp      x-vel       y-vel       z-vel      x-accl      y-accl      z-accl      x-coor      y-coor      z-coor
    22626  7.66924E-02 1.38864E+00-3.06075E-01 3.24328E-02 6.37529E-01 1.71752E-01 3.15107E-02 1.70599E-01 1.57679E-01 4.73607E+00-2.68022E+01-4.52878E+01



 n o d a l   p r i n t   o u t   f o r   t i m e  s t e p   13802                              ( at time 6.8998095E+00 )

 nodal point  x-rot      y-rot       z-rot       x-rot vel   y-rot vel   z-rot vel   x-rot acc   y-rot acc   z-rot acc
    22626 -1.01499E-02 2.80398E-04 1.58676E-03-6.10299E-03 2.86682E-04 2.55056E-04-1.89692E-03 6.29724E-04-2.34832E-04



 n o d a l   p r i n t   o u t   f o r   t i m e  s t e p   14002                              ( at time 6.9997995E+00 )

 nodal point  x-disp     y-disp      z-disp      x-vel       y-vel       z-vel      x-accl      y-accl      z-accl      x-coor      y-coor      z-coor
    22626  7.97325E-02 1.45300E+00-2.88076E-01 3.38651E-02 6.51045E-01 1.88164E-01 1.43243E-02 1.35176E-01 1.64133E-01 4.73911E+00-2.67378E+01-4.52698E+01



 n o d a l   p r i n t   o u t   f o r   t i m e  s t e p   14002                              ( at time 6.9997995E+00 )

 nodal point  x-rot      y-rot       z-rot       x-rot vel   y-rot vel   z-rot vel   x-rot acc   y-rot acc   z-rot acc
    22626 -1.07673E-02 3.07528E-04 1.61412E-03-6.26181E-03 2.95510E-04 2.72405E-04-1.58839E-03 8.82846E-05 1.73508E-04



 n o d a l   p r i n t   o u t   f o r   t i m e  s t e p   14202                              ( at time 7.0997895E+00 )

 nodal point  x-disp     y-disp      z-disp      x-vel       y-vel       z-vel      x-accl      y-accl      z-accl      x-coor      y-coor      z-coor
    22626  8.27795E-02 1.51907E+00-2.68635E-01 2.70734E-02 6.69458E-01 2.00864E-01-6.79231E-02 1.84146E-01 1.27021E-01 4.74215E+00-2.66718E+01-4.52504E+01



 n o d a l   p r i n t   o u t   f o r   t i m e  s t e p   14202                              ( at time 7.0997895E+00 )

 nodal point  x-rot      y-rot       z-rot       x-rot vel   y-rot vel   z-rot vel   x-rot acc   y-rot acc   z-rot acc
    22626 -1.14034E-02 3.36341E-04 1.63868E-03-6.46134E-03 2.93304E-04 2.53562E-04-1.99545E-03-2.20611E-05-1.88451E-04



 n o d a l   p r i n t   o u t   f o r   t i m e  s t e p   14402                              ( at time 7.1997794E+00 )

 nodal point  x-disp     y-disp      z-disp      x-vel       y-vel       z-vel      x-accl      y-accl      z-accl      x-coor      y-coor      z-coor
    22626  8.58839E-02 1.58667E+00-2.47576E-01 2.94392E-02 6.82910E-01 2.18848E-01 2.36602E-02 1.34534E-01 1.79850E-01 4.74526E+00-2.66042E+01-4.52293E+01



 n o d a l   p r i n t   o u t   f o r   t i m e  s t e p   14402                              ( at time 7.1997794E+00 )

 nodal point  x-rot      y-rot       z-rot       x-rot vel   y-rot vel   z-rot vel   x-rot acc   y-rot acc   z-rot acc
    22626 -1.20536E-02 3.69505E-04 1.66126E-03-6.58962E-03 3.16311E-04 2.34433E-04-1.28290E-03 2.30091E-04-1.91306E-04



 n o d a l   p r i n t   o u t   f o r   t i m e  s t e p   14602                              ( at time 7.2997694E+00 )

 nodal point  x-disp     y-disp      z-disp      x-vel       y-vel       z-vel      x-accl      y-accl      z-accl      x-coor      y-coor      z-coor
    22626  8.88309E-02 1.65586E+00-2.24935E-01 3.52446E-02 7.02032E-01 2.34514E-01 5.80599E-02 1.91236E-01 1.56678E-01 4.74821E+00-2.65350E+01-4.52067E+01



 n o d a l   p r i n t   o u t   f o r   t i m e  s t e p   14602                              ( at time 7.2997694E+00 )

 nodal point  x-rot      y-rot       z-rot       x-rot vel   y-rot vel   z-rot vel   x-rot acc   y-rot acc   z-rot acc
    22626 -1.27219E-02 4.01240E-04 1.68526E-03-6.78180E-03 3.28038E-04 1.97027E-04-1.92207E-03 1.17287E-04-3.74104E-04



 n o d a l   p r i n t   o u t   f o r   t i m e  s t e p   14802                              ( at time 7.3997594E+00 )

 nodal point  x-disp     y-disp      z-disp      x-vel       y-vel       z-vel      x-accl      y-accl      z-accl      x-coor      y-coor      z-coor
    22626  9.19352E-02 1.72657E+00-2.00413E-01 2.78495E-02 7.12585E-01 2.54677E-01-7.39587E-02 1.05547E-01 2.01648E-01 4.75131E+00-2.64643E+01-4.51821E+01



 n o d a l   p r i n t   o u t   f o r   t i m e  s t e p   14802                              ( at time 7.3997594E+00 )

 nodal point  x-rot      y-rot       z-rot       x-rot vel   y-rot vel   z-rot vel   x-rot acc   y-rot acc   z-rot acc
    22626 -1.34051E-02 4.36631E-04 1.70670E-03-6.87214E-03 3.52196E-04 2.16703E-04-9.03511E-04 2.41602E-04 1.96780E-04



 n o d a l   p r i n t   o u t   f o r   t i m e  s t e p   15002                              ( at time 7.4997494E+00 )

 nodal point  x-disp     y-disp      z-disp      x-vel       y-vel       z-vel      x-accl      y-accl      z-accl      x-coor      y-coor      z-coor
    22626  9.50684E-02 1.79882E+00-1.74343E-01 2.98895E-02 7.31169E-01 2.70708E-01 2.04020E-02 1.85859E-01 1.60325E-01 4.75444E+00-2.63920E+01-4.51561E+01



 n o d a l   p r i n t   o u t   f o r   t i m e  s t e p   15002                              ( at time 7.4997494E+00 )

 nodal point  x-rot      y-rot       z-rot       x-rot vel   y-rot vel   z-rot vel   x-rot acc   y-rot acc   z-rot acc
    22626 -1.41031E-02 4.72010E-04 1.72616E-03-7.03391E-03 3.12050E-04 2.28422E-04-1.61784E-03-4.01495E-04 1.17208E-04



 n o d a l   p r i n t   o u t   f o r   t i m e  s t e p   15202                              ( at time 7.5997394E+00 )

 nodal point  x-disp     y-disp      z-disp      x-vel       y-vel       z-vel      x-accl      y-accl      z-accl      x-coor      y-coor      z-coor
    22626  9.79624E-02 1.87267E+00-1.46404E-01 3.05905E-02 7.45087E-01 2.87340E-01 7.01072E-03 1.39196E-01 1.66340E-01 4.75734E+00-2.63182E+01-4.51281E+01



 n o d a l   p r i n t   o u t   f o r   t i m e  s t e p   15202                              ( at time 7.5997394E+00 )

 nodal point  x-rot      y-rot       z-rot       x-rot vel   y-rot vel   z-rot vel   x-rot acc   y-rot acc   z-rot acc
    22626 -1.48173E-02 5.07357E-04 1.74831E-03-7.20311E-03 4.14208E-04 2.04262E-04-1.69219E-03 1.02168E-03-2.41630E-04



 n o d a l   p r i n t   o u t   f o r   t i m e  s t e p   15402                              ( at time 7.6997294E+00 )

 nodal point  x-disp     y-disp      z-disp      x-vel       y-vel       z-vel      x-accl      y-accl      z-accl      x-coor      y-coor      z-coor
    22626  1.01021E-01 1.94803E+00-1.16964E-01 3.06078E-02 7.62075E-01 3.01050E-01 1.72573E-04 1.69892E-01 1.37111E-01 4.76040E+00-2.62428E+01-4.50987E+01



 n o d a l   p r i n t   o u t   f o r   t i m e  s t e p   15402                              ( at time 7.6997294E+00 )

 nodal point  x-rot      y-rot       z-rot       x-rot vel   y-rot vel   z-rot vel   x-rot acc   y-rot acc   z-rot acc
    22626 -1.55427E-02 5.46191E-04 1.76603E-03-7.35604E-03 3.96821E-04 1.86466E-04-1.52946E-03-1.73884E-04-1.77972E-04



 n o d a l   p r i n t   o u t   f o r   t i m e  s t e p   15602                              ( at time 7.7997194E+00 )

 nodal point  x-disp     y-disp      z-disp      x-vel       y-vel       z-vel      x-accl      y-accl      z-accl      x-coor      y-coor      z-coor
    22626  1.03988E-01 2.02506E+00-8.58047E-02 2.88032E-02 7.78472E-01 3.20907E-01-1.80474E-02 1.63985E-01 1.98597E-01 4.76336E+00-2.61658E+01-4.50675E+01



 n o d a l   p r i n t   o u t   f o r   t i m e  s t e p   15602                              ( at time 7.7997194E+00 )

 nodal point  x-rot      y-rot       z-rot       x-rot vel   y-rot vel   z-rot vel   x-rot acc   y-rot acc   z-rot acc
    22626 -1.62849E-02 5.82146E-04 1.78680E-03-7.48859E-03 3.70248E-04 1.95236E-04-1.32561E-03-2.65762E-04 8.77028E-05



 n o d a l   p r i n t   o u t   f o r   t i m e  s t e p   15802                              ( at time 7.8997094E+00 )

 nodal point  x-disp     y-disp      z-disp      x-vel       y-vel       z-vel      x-accl      y-accl      z-accl      x-coor      y-coor      z-coor
    22626  1.07063E-01 2.10365E+00-5.30225E-02 2.95052E-02 7.94034E-01 3.35111E-01 7.02039E-03 1.55641E-01 1.42057E-01 4.76644E+00-2.60872E+01-4.50347E+01



 n o d a l   p r i n t   o u t   f o r   t i m e  s t e p   15802                              ( at time 7.8997094E+00 )

 nodal point  x-rot      y-rot       z-rot       x-rot vel   y-rot vel   z-rot vel   x-rot acc   y-rot acc   z-rot acc
    22626 -1.70355E-02 6.21938E-04 1.80348E-03-7.49874E-03 3.79516E-04 2.17106E-04-1.01464E-04 9.26926E-05 2.18725E-04



 n o d a l   p r i n t   o u t   f o r   t i m e  s t e p   16002                              ( at time 7.9996994E+00 )

 nodal point  x-disp     y-disp      z-disp      x-vel       y-vel       z-vel      x-accl      y-accl      z-accl      x-coor      y-coor      z-coor
    22626  1.10065E-01 2.18390E+00-1.86321E-02 2.94126E-02 8.10152E-01 3.51078E-01-9.26290E-04 1.61190E-01 1.59676E-01 4.76944E+00-2.60069E+01-4.50004E+01



 n o d a l   p r i n t   o u t   f o r   t i m e  s t e p   16002                              ( at time 7.9996994E+00 )

 nodal point  x-rot      y-rot       z-rot       x-rot vel   y-rot vel   z-rot vel   x-rot acc   y-rot acc   z-rot acc
    22626 -1.77970E-02 6.59439E-04 1.82683E-03-7.64811E-03 3.59701E-04 2.03543E-04-1.49382E-03-1.98175E-04-1.35642E-04



 n o d a l   p r i n t   o u t   f o r   t i m e  s t e p   16202                              ( at time 8.0996894E+00 )

 nodal point  x-disp     y-disp      z-disp      x-vel       y-vel       z-vel      x-accl      y-accl      z-accl      x-coor      y-coor      z-coor
    22626  1.12891E-01 2.26583E+00 1.71089E-02 2.96806E-02 8.27064E-01 3.64890E-01 2.68071E-03 1.69136E-01 1.38136E-01 4.77227E+00-2.59250E+01-4.49646E+01



 n o d a l   p r i n t   o u t   f o r   t i m e  s t e p   16202                              ( at time 8.0996894E+00 )

 nodal point  x-rot      y-rot       z-rot       x-rot vel   y-rot vel   z-rot vel   x-rot acc   y-rot acc   z-rot acc
    22626 -1.85709E-02 6.99916E-04 1.84830E-03-7.76587E-03 4.21350E-04 1.91491E-04-1.17777E-03 6.16556E-04-1.20537E-04



 n o d a l   p r i n t   o u t   f o r   t i m e  s t e p   16402                              ( at time 8.1996794E+00 )

 nodal point  x-disp     y-disp      z-disp      x-vel       y-vel       z-vel      x-accl      y-accl      z-accl      x-coor      y-coor      z-coor
    22626  1.15890E-01 2.34925E+00 5.45159E-02 2.78049E-02 8.39708E-01 3.83217E-01-1.87587E-02 1.26455E-01 1.83288E-01 4.77527E+00-2.58416E+01-4.49272E+01



 n o d a l   p r i n t   o u t   f o r   t i m e  s t e p   16402                              ( at time 8.1996794E+00 )

 nodal point  x-rot      y-rot       z-rot       x-rot vel   y-rot vel   z-rot vel   x-rot acc   y-rot acc   z-rot acc
    22626 -1.93521E-02 7.38605E-04 1.86778E-03-7.84714E-03 3.93571E-04 2.45932E-04-8.12805E-04-2.77820E-04 5.44467E-04



 n o d a l   p r i n t   o u t   f o r   t i m e  s t e p   16602                              ( at time 8.2996694E+00 )

 nodal point  x-disp     y-disp      z-disp      x-vel       y-vel       z-vel      x-accl      y-accl      z-accl      x-coor      y-coor      z-coor
    22626  1.18649E-01 2.43420E+00 9.34443E-02 2.96038E-02 8.60783E-01 3.95452E-01 1.79906E-02 2.10768E-01 1.22363E-01 4.77802E+00-2.57566E+01-4.48883E+01



 n o d a l   p r i n t   o u t   f o r   t i m e  s t e p   16602                              ( at time 8.2996694E+00 )

 nodal point  x-rot      y-rot       z-rot       x-rot vel   y-rot vel   z-rot vel   x-rot acc   y-rot acc   z-rot acc
    22626 -2.01444E-02 7.77257E-04 1.89193E-03-8.02654E-03 3.86535E-04 1.75737E-04-1.79418E-03-7.03680E-05-7.02024E-04



 n o d a l   p r i n t   o u t   f o r   t i m e  s t e p   16802                              ( at time 8.3996594E+00 )

 nodal point  x-disp     y-disp      z-disp      x-vel       y-vel       z-vel      x-accl      y-accl      z-accl      x-coor      y-coor      z-coor
    22626  1.21717E-01 2.52077E+00 1.34053E-01 2.86652E-02 8.67916E-01 4.13955E-01-9.38669E-03 7.13432E-02 1.85047E-01 4.78109E+00-2.56701E+01-4.48477E+01



 n o d a l   p r i n t   o u t   f o r   t i m e  s t e p   16802                              ( at time 8.3996594E+00 )

 nodal point  x-rot      y-rot       z-rot       x-rot vel   y-rot vel   z-rot vel   x-rot acc   y-rot acc   z-rot acc
    22626 -2.09438E-02 8.18130E-04 1.90909E-03-7.95928E-03 3.80541E-04 1.81776E-04 6.72641E-04-5.99451E-05 6.04035E-05



 n o d a l   p r i n t   o u t   f o r   t i m e  s t e p   17002                              ( at time 8.4996494E+00 )

 nodal point  x-disp     y-disp      z-disp      x-vel       y-vel       z-vel      x-accl      y-accl      z-accl      x-coor      y-coor      z-coor
    22626  1.24519E-01 2.60887E+00 1.75970E-01 3.32760E-02 8.89088E-01 4.26507E-01 4.61119E-02 2.11740E-01 1.25534E-01 4.78389E+00-2.55820E+01-4.48058E+01



 n o d a l   p r i n t   o u t   f o r   t i m e  s t e p   17002                              ( at time 8.4996494E+00 )

 nodal point  x-rot      y-rot       z-rot       x-rot vel   y-rot vel   z-rot vel   x-rot acc   y-rot acc   z-rot acc
    22626 -2.17500E-02 8.56473E-04 1.93028E-03-8.13841E-03 3.84084E-04 1.55079E-04-1.79143E-03 3.54346E-05-2.66995E-04



 n o d a l   p r i n t   o u t   f o r   t i m e  s t e p   17202                              ( at time 8.5996394E+00 )

 nodal point  x-disp     y-disp      z-disp      x-vel       y-vel       z-vel      x-accl      y-accl      z-accl      x-coor      y-coor      z-coor
    22626  1.27545E-01 2.69833E+00 2.19594E-01 2.94030E-02 9.04647E-01 4.45539E-01-3.87339E-02 1.55603E-01 1.90338E-01 4.78692E+00-2.54925E+01-4.47621E+01



 n o d a l   p r i n t   o u t   f o r   t i m e  s t e p   17202                              ( at time 8.5996394E+00 )

 nodal point  x-rot      y-rot       z-rot       x-rot vel   y-rot vel   z-rot vel   x-rot acc   y-rot acc   z-rot acc
    22626 -2.25651E-02 8.96058E-04 1.94735E-03-8.09518E-03 4.01264E-04 1.94917E-04 4.32345E-04 1.71814E-04 3.98419E-04



 n o d a l   p r i n t   o u t   f o r   t i m e  s t e p   17402                              ( at time 8.6996293E+00 )

 nodal point  x-disp     y-disp      z-disp      x-vel       y-vel       z-vel      x-accl      y-accl      z-accl      x-coor      y-coor      z-coor
    22626  1.30575E-01 2.78927E+00 2.64645E-01 2.79106E-02 9.13267E-01 4.61020E-01-1.49251E-02 8.62057E-02 1.54831E-01 4.78995E+00-2.54016E+01-4.47171E+01



 n o d a l   p r i n t   o u t   f o r   t i m e  s t e p   17402                              ( at time 8.6996293E+00 )

 nodal point  x-rot      y-rot       z-rot       x-rot vel   y-rot vel   z-rot vel   x-rot acc   y-rot acc   z-rot acc
    22626 -2.33804E-02 9.35472E-04 1.96639E-03-8.09893E-03 3.54058E-04 2.69005E-04-3.74985E-05-4.72096E-04 7.40947E-04



 n o d a l   p r i n t   o u t   f o r   t i m e  s t e p   17602                              ( at time 8.7996193E+00 )

 nodal point  x-disp     y-disp      z-disp      x-vel       y-vel       z-vel      x-accl      y-accl      z-accl      x-coor      y-coor      z-coor
    22626  1.33724E-01 2.88121E+00 3.11801E-01 3.25457E-02 9.23958E-01 4.83340E-01 4.63556E-02 1.06924E-01 2.23225E-01 4.79310E+00-2.53096E+01-4.46699E+01



 n o d a l   p r i n t   o u t   f o r   t i m e  s t e p   17602                              ( at time 8.7996193E+00 )

 nodal point  x-rot      y-rot       z-rot       x-rot vel   y-rot vel   z-rot vel   x-rot acc   y-rot acc   z-rot acc
    22626 -2.42055E-02 9.76138E-04 1.98309E-03-8.22317E-03 4.41257E-04 1.28568E-04-1.24252E-03 8.72075E-04-1.40451E-03



 n o d a l   p r i n t   o u t   f o r   t i m e  s t e p   17802                              ( at time 8.8996093E+00 )

 nodal point  x-disp     y-disp      z-disp      x-vel       y-vel       z-vel      x-accl      y-accl      z-accl      x-coor      y-coor      z-coor
    22626  1.36682E-01 2.97447E+00 3.60509E-01 3.08587E-02 9.36324E-01 4.96254E-01-1.68720E-02 1.23671E-01 1.29148E-01 4.79606E+00-2.52164E+01-4.46212E+01



 n o d a l   p r i n t   o u t   f o r   t i m e  s t e p   17802                              ( at time 8.8996093E+00 )

 nodal point  x-rot      y-rot       z-rot       x-rot vel   y-rot vel   z-rot vel   x-rot acc   y-rot acc   z-rot acc
    22626 -2.50346E-02 1.01733E-03 2.00977E-03-8.26755E-03 4.13175E-04 2.70054E-04-4.43885E-04-2.80849E-04 1.41500E-03



 n o d a l   p r i n t   o u t   f o r   t i m e  s t e p   18002                              ( at time 8.9995993E+00 )

 nodal point  x-disp     y-disp      z-disp      x-vel       y-vel       z-vel      x-accl      y-accl      z-accl      x-coor      y-coor      z-coor
    22626  1.40115E-01 3.06861E+00 4.11402E-01 3.20331E-02 9.50965E-01 5.20660E-01 1.17460E-02 1.46425E-01 2.44086E-01 4.79949E+00-2.51222E+01-4.45703E+01



 n o d a l   p r i n t   o u t   f o r   t i m e  s t e p   18002                              ( at time 8.9995993E+00 )

 nodal point  x-rot      y-rot       z-rot       x-rot vel   y-rot vel   z-rot vel   x-rot acc   y-rot acc   z-rot acc
    22626 -2.58735E-02 1.06099E-03 2.02682E-03-8.42216E-03 4.61048E-04 1.46086E-04-1.54624E-03 4.78780E-04-1.23980E-03



 n o d a l   p r i n t   o u t   f o r   t i m e  s t e p   18202                              ( at time 9.0995893E+00 )

 nodal point  x-disp     y-disp      z-disp      x-vel       y-vel       z-vel      x-accl      y-accl      z-accl      x-coor      y-coor      z-coor
    22626  1.43342E-01 3.16419E+00 4.64042E-01 3.53287E-02 9.60084E-01 5.32755E-01 3.29590E-02 9.11972E-02 1.20958E-01 4.80272E+00-2.50266E+01-4.45177E+01



 n o d a l   p r i n t   o u t   f o r   t i m e  s t e p   18202                              ( at time 9.0995893E+00 )

 nodal point  x-rot      y-rot       z-rot       x-rot vel   y-rot vel   z-rot vel   x-rot acc   y-rot acc   z-rot acc
    22626 -2.67139E-02 1.10217E-03 2.04522E-03-8.41300E-03 4.07639E-04 1.90024E-04 9.16328E-05-5.34146E-04 4.39421E-04



 n o d a l   p r i n t   o u t   f o r   t i m e  s t e p   18402                              ( at time 9.1995793E+00 )

 nodal point  x-disp     y-disp      z-disp      x-vel       y-vel       z-vel      x-accl      y-accl      z-accl      x-coor      y-coor      z-coor
    22626  1.46740E-01 3.26081E+00 5.18643E-01 3.48713E-02 9.73440E-01 5.56050E-01-4.57456E-03 1.33580E-01 2.32979E-01 4.80612E+00-2.49300E+01-4.44631E+01



 n o d a l   p r i n t   o u t   f o r   t i m e  s t e p   18402                              ( at time 9.1995793E+00 )

 nodal point  x-rot      y-rot       z-rot       x-rot vel   y-rot vel   z-rot vel   x-rot acc   y-rot acc   z-rot acc
    22626 -2.75606E-02 1.14406E-03 2.07068E-03-8.62887E-03 4.14956E-04 2.46830E-04-2.15896E-03 7.31814E-05 5.68121E-04



 n o d a l   p r i n t   o u t   f o r   t i m e  s t e p   18602                              ( at time 9.2995693E+00 )

 nodal point  x-disp     y-disp      z-disp      x-vel       y-vel       z-vel      x-accl      y-accl      z-accl      x-coor      y-coor      z-coor
    22626  1.50386E-01 3.35857E+00 5.75150E-01 3.36958E-02 9.82736E-01 5.69646E-01-1.17560E-02 9.29652E-02 1.35971E-01 4.80976E+00-2.48323E+01-4.44066E+01



 n o d a l   p r i n t   o u t   f o r   t i m e  s t e p   18602                              ( at time 9.2995693E+00 )

 nodal point  x-rot      y-rot       z-rot       x-rot vel   y-rot vel   z-rot vel   x-rot acc   y-rot acc   z-rot acc
    22626 -2.84159E-02 1.18508E-03 2.08514E-03-8.59870E-03 3.82526E-04 1.55558E-04 3.01770E-04-3.24339E-04-9.12813E-04



 n o d a l   p r i n t   o u t   f o r   t i m e  s t e p   18802                              ( at time 9.3995593E+00 )

 nodal point  x-disp     y-disp      z-disp      x-vel       y-vel       z-vel      x-accl      y-accl      z-accl      x-coor      y-coor      z-coor
    22626  1.53659E-01 3.45781E+00 6.33428E-01 3.96145E-02 9.96440E-01 5.94781E-01 5.91927E-02 1.37057E-01 2.51378E-01 4.81303E+00-2.47330E+01-4.43483E+01



 n o d a l   p r i n t   o u t   f o r   t i m e  s t e p   18802                              ( at time 9.3995593E+00 )

 nodal point  x-rot      y-rot       z-rot       x-rot vel   y-rot vel   z-rot vel   x-rot acc   y-rot acc   z-rot acc
    22626 -2.92756E-02 1.22495E-03 2.10543E-03-8.61898E-03 4.20149E-04 1.50174E-04-2.02844E-04 3.76273E-04-5.38481E-05



 n o d a l   p r i n t   o u t   f o r   t i m e  s t e p   19002                              ( at time 9.4995493E+00 )

 nodal point  x-disp     y-disp      z-disp      x-vel       y-vel       z-vel      x-accl      y-accl      z-accl      x-coor      y-coor      z-coor
    22626  1.57512E-01 3.55786E+00 6.93560E-01 3.48944E-02 1.00876E+00 6.10978E-01-4.72058E-02 1.23185E-01 1.61990E-01 4.81689E+00-2.46330E+01-4.42882E+01



 n o d a l   p r i n t   o u t   f o r   t i m e  s t e p   19002                              ( at time 9.4995493E+00 )

 nodal point  x-rot      y-rot       z-rot       x-rot vel   y-rot vel   z-rot vel   x-rot acc   y-rot acc   z-rot acc
    22626 -3.01437E-02 1.26442E-03 2.12075E-03-8.66623E-03 3.61601E-04 1.78241E-04-4.72498E-04-5.85538E-04 2.80701E-04



 n o d a l   p r i n t   o u t   f o r   t i m e  s t e p   19202                              ( at time 9.5995393E+00 )

 nodal point  x-disp     y-disp      z-disp      x-vel       y-vel       z-vel      x-accl      y-accl      z-accl      x-coor      y-coor      z-coor
    22626  1.61085E-01 3.65946E+00 7.55649E-01 3.54974E-02 1.02335E+00 6.35807E-01 6.03057E-03 1.45893E-01 2.48304E-01 4.82046E+00-2.45314E+01-4.42261E+01



 n o d a l   p r i n t   o u t   f o r   t i m e  s t e p   19202                              ( at time 9.5995393E+00 )

 nodal point  x-rot      y-rot       z-rot       x-rot vel   y-rot vel   z-rot vel   x-rot acc   y-rot acc   z-rot acc
    22626 -3.10183E-02 1.30129E-03 2.13573E-03-8.80961E-03 3.52580E-04 1.45787E-04-1.43400E-03-9.02234E-05-3.24577E-04



 n o d a l   p r i n t   o u t   f o r   t i m e  s t e p   19402                              ( at time 9.6995293E+00 )

 nodal point  x-disp     y-disp      z-disp      x-vel       y-vel       z-vel      x-accl      y-accl      z-accl      x-coor      y-coor      z-coor
    22626  1.64990E-01 3.76236E+00 8.20023E-01 4.02121E-02 1.03576E+00 6.48407E-01 4.71520E-02 1.24151E-01 1.26021E-01 4.82437E+00-2.44285E+01-4.41617E+01



 n o d a l   p r i n t   o u t   f o r   t i m e  s t e p   19402                              ( at time 9.6995293E+00 )

 nodal point  x-rot      y-rot       z-rot       x-rot vel   y-rot vel   z-rot vel   x-rot acc   y-rot acc   z-rot acc
    22626 -3.19015E-02 1.34017E-03 2.14802E-03-8.89132E-03 3.94590E-04 5.30319E-05-8.17160E-04 4.20142E-04-9.27641E-04



 n o d a l   p r i n t   o u t   f o r   t i m e  s t e p   19602                              ( at time 9.7995193E+00 )

 nodal point  x-disp     y-disp      z-disp      x-vel       y-vel       z-vel      x-accl      y-accl      z-accl      x-coor      y-coor      z-coor
    22626  1.68756E-01 3.86680E+00 8.85994E-01 3.54328E-02 1.04908E+00 6.72549E-01-4.77977E-02 1.33262E-01 2.41443E-01 4.82813E+00-2.43240E+01-4.40957E+01



 n o d a l   p r i n t   o u t   f o r   t i m e  s t e p   19602                              ( at time 9.7995193E+00 )

 nodal point  x-rot      y-rot       z-rot       x-rot vel   y-rot vel   z-rot vel   x-rot acc   y-rot acc   z-rot acc
    22626 -3.27898E-02 1.37691E-03 2.15868E-03-8.88379E-03 3.41372E-04 1.75949E-04 7.53609E-05-5.32235E-04 1.22929E-03



 n o d a l   p r i n t   o u t   f o r   t i m e  s t e p   19802                              ( at time 9.8995093E+00 )

 nodal point  x-disp     y-disp      z-disp      x-vel       y-vel       z-vel      x-accl      y-accl      z-accl      x-coor      y-coor      z-coor
    22626  1.72701E-01 3.97245E+00 9.54252E-01 4.15374E-02 1.06574E+00 6.92677E-01 6.10519E-02 1.66536E-01 2.01293E-01 4.83208E+00-2.42184E+01-4.40275E+01



 n o d a l   p r i n t   o u t   f o r   t i m e  s t e p   19802                              ( at time 9.8995093E+00 )

 nodal point  x-rot      y-rot       z-rot       x-rot vel   y-rot vel   z-rot vel   x-rot acc   y-rot acc   z-rot acc
    22626 -3.36901E-02 1.41130E-03 2.16981E-03-9.08953E-03 3.79424E-04 6.87489E-05-2.05760E-03 3.80565E-04-1.07211E-03



 n o d a l   p r i n t   o u t   f o r   t i m e  s t e p   20003                              ( at time 9.9999992E+00 )

 nodal point  x-disp     y-disp      z-disp      x-vel       y-vel       z-vel      x-accl      y-accl      z-accl      x-coor      y-coor      z-coor
[...]
    22626 -2.29731E-01 7.68663E-03 1.31151E-03-1.86354E-02 7.84530E-04-3.31034E-05-3.31078E-04-5.92732E-04-3.85289E-04



 n o d a l   p r i n t   o u t   f o r   t i m e  s t e p   45205                              ( at time 2.2599738E+01 )

 nodal point  x-disp     y-disp      z-disp      x-vel       y-vel       z-vel      x-accl      y-accl      z-accl      x-coor      y-coor      z-coor
    22626  9.06279E-01 2.39710E+01 1.99145E+01 6.27064E-02 1.92576E+00 1.15864E+00 1.80879E-02 3.08065E-02-1.13551E-01 5.56565E+00-4.21984E+00-2.50672E+01



 n o d a l   p r i n t   o u t   f o r   t i m e  s t e p   45205                              ( at time 2.2599738E+01 )

 nodal point  x-rot      y-rot       z-rot       x-rot vel   y-rot vel   z-rot vel   x-rot acc   y-rot acc   z-rot acc
    22626 -2.31595E-01 7.76570E-03 1.30826E-03-1.86251E-02 8.12387E-04-2.74074E-05 1.02716E-04 2.78595E-04 5.69647E-05



 n o d a l   p r i n t   o u t   f o r   t i m e  s t e p   45405                              ( at time 2.2699728E+01 )

 nodal point  x-disp     y-disp      z-disp      x-vel       y-vel       z-vel      x-accl      y-accl      z-accl      x-coor      y-coor      z-coor
    22626  9.12617E-01 2.41637E+01 2.00298E+01 6.29935E-02 1.92859E+00 1.14788E+00 2.87065E-03 2.82998E-02-1.07633E-01 5.57199E+00-4.02710E+00-2.49519E+01



 n o d a l   p r i n t   o u t   f o r   t i m e  s t e p   45405                              ( at time 2.2699728E+01 )

 nodal point  x-rot      y-rot       z-rot       x-rot vel   y-rot vel   z-rot vel   x-rot acc   y-rot acc   z-rot acc
    22626 -2.33456E-01 7.84990E-03 1.30903E-03-1.86072E-02 8.46241E-04 1.26936E-05 1.79281E-04 3.38575E-04 4.01054E-04



 n o d a l   p r i n t   o u t   f o r   t i m e  s t e p   45605                              ( at time 2.2799718E+01 )

 nodal point  x-disp     y-disp      z-disp      x-vel       y-vel       z-vel      x-accl      y-accl      z-accl      x-coor      y-coor      z-coor
    22626  9.18819E-01 2.43568E+01 2.01439E+01 6.11045E-02 1.93334E+00 1.13477E+00-1.88915E-02 4.75188E-02-1.31036E-01 5.57819E+00-3.83404E+00-2.48378E+01



 n o d a l   p r i n t   o u t   f o r   t i m e  s t e p   45605                              ( at time 2.2799718E+01 )

 nodal point  x-rot      y-rot       z-rot       x-rot vel   y-rot vel   z-rot vel   x-rot acc   y-rot acc   z-rot acc
    22626 -2.35317E-01 7.93346E-03 1.30794E-03-1.86141E-02 8.14484E-04-2.67115E-05-6.89801E-05-3.17590E-04-3.94087E-04



 n o d a l   p r i n t   o u t   f o r   t i m e  s t e p   45805                              ( at time 2.2899708E+01 )

 nodal point  x-disp     y-disp      z-disp      x-vel       y-vel       z-vel      x-accl      y-accl      z-accl      x-coor      y-coor      z-coor
    22626  9.24903E-01 2.45502E+01 2.02569E+01 6.14866E-02 1.93545E+00 1.12572E+00 3.82160E-03 2.10523E-02-9.05268E-02 5.58428E+00-3.64063E+00-2.47248E+01



 n o d a l   p r i n t   o u t   f o r   t i m e  s t e p   45805                              ( at time 2.2899708E+01 )

 nodal point  x-rot      y-rot       z-rot       x-rot vel   y-rot vel   z-rot vel   x-rot acc   y-rot acc   z-rot acc
    22626 -2.37177E-01 8.01616E-03 1.30734E-03-1.85817E-02 8.48259E-04 1.46518E-05 3.24658E-04 3.37787E-04 4.13679E-04



 n o d a l   p r i n t   o u t   f o r   t i m e  s t e p   46005                              ( at time 2.2999698E+01 )

 nodal point  x-disp     y-disp      z-disp      x-vel       y-vel       z-vel      x-accl      y-accl      z-accl      x-coor      y-coor      z-coor
    22626  9.31049E-01 2.47439E+01 2.03690E+01 6.03319E-02 1.93799E+00 1.11619E+00-1.15480E-02 2.54118E-02-9.52903E-02 5.59042E+00-3.44697E+00-2.46127E+01



 n o d a l   p r i n t   o u t   f o r   t i m e  s t e p   46005                              ( at time 2.2999698E+01 )

 nodal point  x-rot      y-rot       z-rot       x-rot vel   y-rot vel   z-rot vel   x-rot acc   y-rot acc   z-rot acc
    22626 -2.39034E-01 8.10185E-03 1.30918E-03-1.85502E-02 8.61706E-04 1.02879E-05 3.14704E-04 1.34478E-04-4.36429E-05



 n o d a l   p r i n t   o u t   f o r   t i m e  s t e p   46205                              ( at time 2.3099688E+01 )

 nodal point  x-disp     y-disp      z-disp      x-vel       y-vel       z-vel      x-accl      y-accl      z-accl      x-coor      y-coor      z-coor
    22626  9.37055E-01 2.49378E+01 2.04800E+01 5.96697E-02 1.94014E+00 1.10402E+00-6.62322E-03 2.14744E-02-1.21777E-01 5.59643E+00-3.25308E+00-2.45017E+01



 n o d a l   p r i n t   o u t   f o r   t i m e  s t e p   46205                              ( at time 2.3099688E+01 )

 nodal point  x-rot      y-rot       z-rot       x-rot vel   y-rot vel   z-rot vel   x-rot acc   y-rot acc   z-rot acc
    22626 -2.40890E-01 8.18856E-03 1.30890E-03-1.85506E-02 8.61520E-04 1.86359E-06-3.68845E-06-1.85587E-06-8.42526E-05



 n o d a l   p r i n t   o u t   f o r   t i m e  s t e p   46405                              ( at time 2.3199678E+01 )

 nodal point  x-disp     y-disp      z-disp      x-vel       y-vel       z-vel      x-accl      y-accl      z-accl      x-coor      y-coor      z-coor
    22626  9.43034E-01 2.51319E+01 2.05900E+01 6.05555E-02 1.94274E+00 1.09644E+00 8.85951E-03 2.60150E-02-7.58109E-02 5.60241E+00-3.05896E+00-2.43917E+01



 n o d a l   p r i n t   o u t   f o r   t i m e  s t e p   46405                              ( at time 2.3199678E+01 )

 nodal point  x-rot      y-rot       z-rot       x-rot vel   y-rot vel   z-rot vel   x-rot acc   y-rot acc   z-rot acc
    22626 -2.42745E-01 8.27414E-03 1.31045E-03-1.85459E-02 8.57223E-04 7.17236E-06 4.68126E-05-4.29798E-05 5.30926E-05



 n o d a l   p r i n t   o u t   f o r   t i m e  s t e p   46605                              ( at time 2.3299668E+01 )

 nodal point  x-disp     y-disp      z-disp      x-vel       y-vel       z-vel      x-accl      y-accl      z-accl      x-coor      y-coor      z-coor
    22626  9.48962E-01 2.53262E+01 2.06991E+01 5.85262E-02 1.94448E+00 1.08695E+00-2.02957E-02 1.74601E-02-9.48904E-02 5.60834E+00-2.86462E+00-2.42826E+01



 n o d a l   p r i n t   o u t   f o r   t i m e  s t e p   46605                              ( at time 2.3299668E+01 )

 nodal point  x-rot      y-rot       z-rot       x-rot vel   y-rot vel   z-rot vel   x-rot acc   y-rot acc   z-rot acc
    22626 -2.44600E-01 8.35995E-03 1.30963E-03-1.85367E-02 8.75199E-04-1.73590E-05 9.18758E-05 1.79783E-04-2.45341E-04



 n o d a l   p r i n t   o u t   f o r   t i m e  s t e p   46805                              ( at time 2.3399658E+01 )

 nodal point  x-disp     y-disp      z-disp      x-vel       y-vel       z-vel      x-accl      y-accl      z-accl      x-coor      y-coor      z-coor
    22626  9.54893E-01 2.55206E+01 2.08073E+01 5.99065E-02 1.94502E+00 1.07809E+00 1.38048E-02 5.31245E-03-8.85806E-02 5.61427E+00-2.67021E+00-2.41744E+01



 n o d a l   p r i n t   o u t   f o r   t i m e  s t e p   46805                              ( at time 2.3399658E+01 )

 nodal point  x-rot      y-rot       z-rot       x-rot vel   y-rot vel   z-rot vel   x-rot acc   y-rot acc   z-rot acc
    22626 -2.46453E-01 8.44675E-03 1.30602E-03-1.85422E-02 8.67847E-04-1.86138E-05-5.50089E-05-7.35259E-05-1.25488E-05



 n o d a l   p r i n t   o u t   f o r   t i m e  s t e p   47005                              ( at time 2.3499648E+01 )

 nodal point  x-disp     y-disp      z-disp      x-vel       y-vel       z-vel      x-accl      y-accl      z-accl      x-coor      y-coor      z-coor
    22626  9.60832E-01 2.57152E+01 2.09147E+01 5.87090E-02 1.94617E+00 1.07052E+00-1.19763E-02 1.15620E-02-7.56929E-02 5.62021E+00-2.47566E+00-2.40670E+01



 n o d a l   p r i n t   o u t   f o r   t i m e  s t e p   47005                              ( at time 2.3499648E+01 )

 nodal point  x-rot      y-rot       z-rot       x-rot vel   y-rot vel   z-rot vel   x-rot acc   y-rot acc   z-rot acc
    22626 -2.48306E-01 8.53215E-03 1.30373E-03-1.85284E-02 8.45185E-04-3.50675E-05 1.37848E-04-2.26641E-04-1.64552E-04



 n o d a l   p r i n t   o u t   f o r   t i m e  s t e p   47205                              ( at time 2.3599638E+01 )

 nodal point  x-disp     y-disp      z-disp      x-vel       y-vel       z-vel      x-accl      y-accl      z-accl      x-coor      y-coor      z-coor
    22626  9.66691E-01 2.59098E+01 2.10214E+01 5.80555E-02 1.94779E+00 1.06289E+00-6.53548E-03 1.61678E-02-7.63119E-02 5.62607E+00-2.28099E+00-2.39603E+01



 n o d a l   p r i n t   o u t   f o r   t i m e  s t e p   47205                              ( at time 2.3599638E+01 )

 nodal point  x-rot      y-rot       z-rot       x-rot vel   y-rot vel   z-rot vel   x-rot acc   y-rot acc   z-rot acc
    22626 -2.50158E-01 8.61645E-03 1.29762E-03-1.85202E-02 8.37542E-04-7.53172E-05 8.18351E-05-7.64374E-05-4.02541E-04



 n o d a l   p r i n t   o u t   f o r   t i m e  s t e p   47405                              ( at time 2.3699628E+01 )

 nodal point  x-disp     y-disp      z-disp      x-vel       y-vel       z-vel      x-accl      y-accl      z-accl      x-coor      y-coor      z-coor
    22626  9.72508E-01 2.61046E+01 2.11272E+01 5.86869E-02 1.94709E+00 1.05507E+00 6.31468E-03-7.03042E-03-7.82442E-02 5.63188E+00-2.08626E+00-2.38545E+01



 n o d a l   p r i n t   o u t   f o r   t i m e  s t e p   47405                              ( at time 2.3699628E+01 )

 nodal point  x-rot      y-rot       z-rot       x-rot vel   y-rot vel   z-rot vel   x-rot acc   y-rot acc   z-rot acc
    22626 -2.52010E-01 8.70129E-03 1.29109E-03-1.85118E-02 8.48118E-04-5.39239E-05 8.37894E-05 1.05762E-04 2.13953E-04



 n o d a l   p r i n t   o u t   f o r   t i m e  s t e p   47605                              ( at time 2.3799618E+01 )

 nodal point  x-disp     y-disp      z-disp      x-vel       y-vel       z-vel      x-accl      y-accl      z-accl      x-coor      y-coor      z-coor
    22626  9.78314E-01 2.62993E+01 2.12324E+01 5.77636E-02 1.94900E+00 1.04914E+00-9.23389E-03 1.91865E-02-5.93156E-02 5.63769E+00-1.89149E+00-2.37493E+01



 n o d a l   p r i n t   o u t   f o r   t i m e  s t e p   47605                              ( at time 2.3799618E+01 )

 nodal point  x-rot      y-rot       z-rot       x-rot vel   y-rot vel   z-rot vel   x-rot acc   y-rot acc   z-rot acc
    22626 -2.53861E-01 8.78558E-03 1.28501E-03-1.85097E-02 8.39060E-04-9.50220E-05 2.09943E-05-9.05858E-05-4.11027E-04



 n o d a l   p r i n t   o u t   f o r   t i m e  s t e p   47805                              ( at time 2.3899608E+01 )

 nodal point  x-disp     y-disp      z-disp      x-vel       y-vel       z-vel      x-accl      y-accl      z-accl      x-coor      y-coor      z-coor
    22626  9.83993E-01 2.64942E+01 2.13371E+01 5.60114E-02 1.94758E+00 1.04311E+00-1.75244E-02-1.42850E-02-6.02813E-02 5.64337E+00-1.69663E+00-2.36446E+01



 n o d a l   p r i n t   o u t   f o r   t i m e  s t e p   47805                              ( at time 2.3899608E+01 )

 nodal point  x-rot      y-rot       z-rot       x-rot vel   y-rot vel   z-rot vel   x-rot acc   y-rot acc   z-rot acc
    22626 -2.55712E-01 8.86858E-03 1.27520E-03-1.85042E-02 8.27763E-04-8.60140E-05 5.52139E-05-1.12976E-04 9.00883E-05



 n o d a l   p r i n t   o u t   f o r   t i m e  s t e p   48005                              ( at time 2.3999598E+01 )

 nodal point  x-disp     y-disp      z-disp      x-vel       y-vel       z-vel      x-accl      y-accl      z-accl      x-coor      y-coor      z-coor
    22626  9.89701E-01 2.66890E+01 2.14410E+01 5.76650E-02 1.94797E+00 1.03568E+00 1.65379E-02 3.90811E-03-7.43066E-02 5.64908E+00-1.50187E+00-2.35408E+01



 n o d a l   p r i n t   o u t   f o r   t i m e  s t e p   48005                              ( at time 2.3999598E+01 )

 nodal point  x-rot      y-rot       z-rot       x-rot vel   y-rot vel   z-rot vel   x-rot acc   y-rot acc   z-rot acc
    22626 -2.57564E-01 8.95347E-03 1.26642E-03-1.85138E-02 8.57343E-04-9.19833E-05-9.57692E-05 2.95833E-04-5.96999E-05



 n o d a l   p r i n t   o u t   f o r   t i m e  s t e p   48205                              ( at time 2.4099588E+01 )

 nodal point  x-disp     y-disp      z-disp      x-vel       y-vel       z-vel      x-accl      y-accl      z-accl      x-coor      y-coor      z-coor
    22626  9.95438E-01 2.68837E+01 2.15444E+01 5.72208E-02 1.94707E+00 1.03203E+00-4.44170E-03-8.92006E-03-3.65171E-02 5.65481E+00-1.30712E+00-2.34374E+01



 n o d a l   p r i n t   o u t   f o r   t i m e  s t e p   48205                              ( at time 2.4099588E+01 )

 nodal point  x-rot      y-rot       z-rot       x-rot vel   y-rot vel   z-rot vel   x-rot acc   y-rot acc   z-rot acc
    22626 -2.59416E-01 9.03868E-03 1.25713E-03-1.85222E-02 8.43181E-04-1.05576E-04-8.37894E-05-1.41642E-04-1.35941E-04



 n o d a l   p r i n t   o u t   f o r   t i m e  s t e p   48405                              ( at time 2.4199578E+01 )

 nodal point  x-disp     y-disp      z-disp      x-vel       y-vel       z-vel      x-accl      y-accl      z-accl      x-coor      y-coor      z-coor
    22626  1.00108E+00 2.70784E+01 2.16473E+01 5.56298E-02 1.94655E+00 1.02614E+00-1.59120E-02-5.27202E-03-5.88518E-02 5.66046E+00-1.11243E+00-2.33344E+01



 n o d a l   p r i n t   o u t   f o r   t i m e  s t e p   48405                              ( at time 2.4199578E+01 )

 nodal point  x-rot      y-rot       z-rot       x-rot vel   y-rot vel   z-rot vel   x-rot acc   y-rot acc   z-rot acc
    22626 -2.61267E-01 9.12220E-03 1.24707E-03-1.85183E-02 8.32746E-04-9.38454E-05 3.83188E-05-1.04353E-04 1.17321E-04



 n o d a l   p r i n t   o u t   f o r   t i m e  s t e p   48605                              ( at time 2.4299568E+01 )

 nodal point  x-disp     y-disp      z-disp      x-vel       y-vel       z-vel      x-accl      y-accl      z-accl      x-coor      y-coor      z-coor
    22626  1.00675E+00 2.72730E+01 2.17497E+01 5.69318E-02 1.94558E+00 1.02117E+00 1.30207E-02-9.65564E-03-4.97184E-02 5.66612E+00-9.17836E-01-2.32321E+01



 n o d a l   p r i n t   o u t   f o r   t i m e  s t e p   48605                              ( at time 2.4299568E+01 )

 nodal point  x-rot      y-rot       z-rot       x-rot vel   y-rot vel   z-rot vel   x-rot acc   y-rot acc   z-rot acc
    22626 -2.63119E-01 9.20581E-03 1.23619E-03-1.85315E-02 8.41367E-04-1.19424E-04-1.31422E-04 8.62105E-05-2.55805E-04



 n o d a l   p r i n t   o u t   f o r   t i m e  s t e p   48805                              ( at time 2.4399558E+01 )

 nodal point  x-disp     y-disp      z-disp      x-vel       y-vel       z-vel      x-accl      y-accl      z-accl      x-coor      y-coor      z-coor
    22626  1.01239E+00 2.74675E+01 2.18516E+01 5.66554E-02 1.94396E+00 1.01809E+00-2.76397E-03-1.61961E-02-3.08113E-02 5.67177E+00-7.23330E-01-2.31301E+01



 n o d a l   p r i n t   o u t   f o r   t i m e  s t e p   48805                              ( at time 2.4399558E+01 )

 nodal point  x-rot      y-rot       z-rot       x-rot vel   y-rot vel   z-rot vel   x-rot acc   y-rot acc   z-rot acc
    22626 -2.64970E-01 9.28900E-03 1.22494E-03-1.85034E-02 8.25981E-04-1.14659E-04 2.80968E-04-1.53866E-04 4.76452E-05



 n o d a l   p r i n t   o u t   f o r   t i m e  s t e p   49006                              ( at time 2.4500048E+01 )

 nodal point  x-disp     y-disp      z-disp      x-vel       y-vel       z-vel      x-accl      y-accl      z-accl      x-coor      y-coor      z-coor
    22626  1.01811E+00 2.76628E+01 2.19537E+01 5.69630E-02 1.94341E+00 1.01432E+00 3.06109E-03-5.47238E-03-3.75771E-02 5.67748E+00-5.27982E-01-2.30280E+01



 n o d a l   p r i n t   o u t   f o r   t i m e  s t e p   49006                              ( at time 2.4500048E+01 )

 nodal point  x-rot      y-rot       z-rot       x-rot vel   y-rot vel   z-rot vel   x-rot acc   y-rot acc   z-rot acc
    22626 -2.66830E-01 9.37051E-03 1.21291E-03-1.85026E-02 8.02984E-04-1.33260E-04 7.41435E-06-2.28861E-04-1.85097E-04



 n o d a l   p r i n t   o u t   f o r   t i m e  s t e p   49206                              ( at time 2.4600038E+01 )

 nodal point  x-disp     y-disp      z-disp      x-vel       y-vel       z-vel      x-accl      y-accl      z-accl      x-coor      y-coor      z-coor
    22626  1.02374E+00 2.78570E+01 2.20550E+01 5.51130E-02 1.94189E+00 1.01067E+00-1.85017E-02-1.52399E-02-3.64766E-02 5.68311E+00-3.33783E-01-2.29268E+01



 n o d a l   p r i n t   o u t   f o r   t i m e  s t e p   49206                              ( at time 2.4600038E+01 )

 nodal point  x-rot      y-rot       z-rot       x-rot vel   y-rot vel   z-rot vel   x-rot acc   y-rot acc   z-rot acc
    22626 -2.68681E-01 9.45137E-03 1.19792E-03-1.85150E-02 8.04591E-04-1.52800E-04-1.23225E-04 1.60732E-05-1.95426E-04



 n o d a l   p r i n t   o u t   f o r   t i m e  s t e p   49406                              ( at time 2.4700028E+01 )

 nodal point  x-disp     y-disp      z-disp      x-vel       y-vel       z-vel      x-accl      y-accl      z-accl      x-coor      y-coor      z-coor
    22626  1.02934E+00 2.80511E+01 2.21559E+01 5.71737E-02 1.93972E+00 1.00881E+00 2.06089E-02-2.16818E-02-1.85522E-02 5.68871E+00-1.39739E-01-2.28258E+01



 n o d a l   p r i n t   o u t   f o r   t i m e  s t e p   49406                              ( at time 2.4700028E+01 )

 nodal point  x-rot      y-rot       z-rot       x-rot vel   y-rot vel   z-rot vel   x-rot acc   y-rot acc   z-rot acc
    22626 -2.70532E-01 9.53146E-03 1.18349E-03-1.85070E-02 8.01879E-04-1.47861E-04 7.96555E-05-2.71214E-05 4.94000E-05



 n o d a l   p r i n t   o u t   f o r   t i m e  s t e p   49606                              ( at time 2.4800018E+01 )

 nodal point  x-disp     y-disp      z-disp      x-vel       y-vel       z-vel      x-accl      y-accl      z-accl      x-coor      y-coor      z-coor
    22626  1.03498E+00 2.82449E+01 2.22567E+01 5.55631E-02 1.93775E+00 1.00592E+00-1.61068E-02-1.96940E-02-2.89240E-02 5.69436E+00 5.41099E-02-2.27250E+01



 n o d a l   p r i n t   o u t   f o r   t i m e  s t e p   49606                              ( at time 2.4800018E+01 )

 nodal point  x-rot      y-rot       z-rot       x-rot vel   y-rot vel   z-rot vel   x-rot acc   y-rot acc   z-rot acc
    22626 -2.72383E-01 9.61217E-03 1.16798E-03-1.85055E-02 8.03471E-04-1.64432E-04 1.53496E-05 1.59195E-05-1.65721E-04



 n o d a l   p r i n t   o u t   f o r   t i m e  s t e p   49806                              ( at time 2.4900008E+01 )

 nodal point  x-disp     y-disp      z-disp      x-vel       y-vel       z-vel      x-accl      y-accl      z-accl      x-coor      y-coor      z-coor
    22626  1.04047E+00 2.84386E+01 2.23571E+01 5.45329E-02 1.93550E+00 1.00414E+00-1.03032E-02-2.24913E-02-1.78679E-02 5.69985E+00 2.47762E-01-2.26246E+01



 n o d a l   p r i n t   o u t   f o r   t i m e  s t e p   49806                              ( at time 2.4900008E+01 )

 nodal point  x-rot      y-rot       z-rot       x-rot vel   y-rot vel   z-rot vel   x-rot acc   y-rot acc   z-rot acc
    22626 -2.74233E-01 9.69166E-03 1.15017E-03-1.84937E-02 7.90005E-04-1.83466E-04 1.18012E-04-1.34675E-04-1.90367E-04



 n o d a l   p r i n t   o u t   f o r   t i m e  s t e p   50006                              ( at time 2.4999998E+01 )

 nodal point  x-disp     y-disp      z-disp      x-vel       y-vel       z-vel      x-accl      y-accl      z-accl      x-coor      y-coor      z-coor
    22626  1.04601E+00 2.86320E+01 2.24575E+01 5.55814E-02 1.93308E+00 1.00392E+00 1.04853E-02-2.42065E-02-2.18411E-03 5.70538E+00 4.41177E-01-2.25242E+01



 n o d a l   p r i n t   o u t   f o r   t i m e  s t e p   50006                              ( at time 2.4999998E+01 )

 nodal point  x-rot      y-rot       z-rot       x-rot vel   y-rot vel   z-rot vel   x-rot acc   y-rot acc   z-rot acc
    22626 -2.76081E-01 9.77097E-03 1.13206E-03-1.84842E-02 7.99856E-04-1.86999E-04 9.44634E-05 9.85255E-05-3.53330E-05
