 LSTC 50th% Full_FE H-III Dummy (Beta Version, February 17, 2019)        
                    ls-dyna smp s R16 R16.0_619_d222963 date 03/18/2025

{BEGIN LEGEND}
 Entity #        Title
        1     Upper_Neck_Force_INJURY                                              
{END LEGEND}



 line#1  section#     time        x-force     y-force     z-force    magnitude
 line#2  resultant  moments       x-moment    y-moment    z-moment   magnitude
 line#3  centroids                x           y           z            area  
           1    0.00000E+00     0.0000E+00  0.0000E+00  0.0000E+00  0.0000E+00
ac ID =   33377                 0.0000E+00  0.0000E+00  0.0000E+00  0.0000E+00
                               -3.7437E-01  1.0501E+01 -4.6940E+01  0.0000E+00

           1    1.00490E-01     1.3589E-04 -4.9878E-03  2.5982E-01  2.5987E-01
ac ID =   33377                 4.2550E-01 -1.2522E+00 -2.7107E-02  1.3228E+00
                               -3.7387E-01  1.0590E+01 -4.6886E+01  2.5147E+03

           1    2.00480E-01    -4.4305E-02  5.5283E-04  4.4129E-01  4.4351E-01
ac ID =   33377                 3.0998E-01 -1.5961E+00  2.0197E-02  1.6260E+00
                               -3.7386E-01  1.0591E+01 -4.6888E+01  2.5147E+03

           1    3.00470E-01     1.4631E-02 -3.1658E-03  2.1788E-01  2.1839E-01
ac ID =   33377                 2.1816E-02 -3.4348E-01  6.4735E-02  3.5021E-01
                               -3.7382E-01  1.0591E+01 -4.6889E+01  2.5147E+03

           1    4.00460E-01     2.5040E-03  1.0466E-02  8.8271E-02  8.8924E-02
ac ID =   33377                -4.9650E-01 -9.5225E-01  1.6415E-03  1.0739E+00
                               -3.7383E-01  1.0592E+01 -4.6890E+01  2.5147E+03

           1    5.00450E-01    -4.0139E-02  4.1640E-03  1.6367E-01  1.6857E-01
ac ID =   33377                -3.9780E-01 -1.4889E+00 -1.0314E-01  1.5445E+00
                               -3.7385E-01  1.0594E+01 -4.6893E+01  2.5147E+03

           1    6.00440E-01    -1.0306E-02  3.7901E-03  3.4754E-01  3.4772E-01
ac ID =   33377                 9.4367E-02 -1.2902E+00 -3.7892E-02  1.2942E+00
                               -3.7386E-01  1.0595E+01 -4.6897E+01  2.5147E+03

           1    7.00430E-01     2.2031E-03 -5.0060E-03  2.9509E-01  2.9514E-01
ac ID =   33377                 1.2582E-01 -4.9179E-01  8.9192E-02  5.1541E-01
                               -3.7389E-01  1.0597E+01 -4.6901E+01  2.5147E+03

           1    8.00420E-01    -2.9074E-02 -5.4386E-04  1.0223E-01  1.0629E-01
ac ID =   33377                 6.6216E-02 -9.8323E-01  4.5348E-02  9.8650E-01
                               -3.7394E-01  1.0599E+01 -4.6904E+01  2.5147E+03

           1    9.00410E-01    -3.7848E-02  2.1545E-04  6.7655E-02  7.7523E-02
ac ID =   33377                 1.0055E-01 -1.0185E+00 -1.2018E-02  1.0235E+00
                               -3.7399E-01  1.0601E+01 -4.6909E+01  2.5147E+03

           1    1.00040E+00     1.6712E-02 -3.5073E-03  2.3124E-01  2.3187E-01
ac ID =   33377                 3.5869E-01 -2.3800E-01 -5.6495E-02  4.3416E-01
                               -3.7400E-01  1.0604E+01 -4.6915E+01  2.5147E+03

           1    1.10039E+00     1.8913E-03 -2.5316E-03  2.7592E-01  2.7594E-01
ac ID =   33377                 3.2651E-01 -7.9774E-01 -4.8112E-02  8.6331E-01
                               -3.7400E-01  1.0606E+01 -4.6920E+01  2.5147E+03

           1    1.20038E+00    -3.0550E-02 -1.6390E-04  1.3004E-01  1.3358E-01
ac ID =   33377                -1.6493E-01 -1.0751E+00  4.0012E-03  1.0877E+00
                               -3.7402E-01  1.0609E+01 -4.6926E+01  2.5147E+03

           1    1.30037E+00    -7.2325E-03  5.2445E-03  8.3450E-02  8.3927E-02
ac ID =   33377                -3.0585E-01 -7.6703E-01  1.5083E-02  8.2590E-01
                               -3.7406E-01  1.0612E+01 -4.6932E+01  2.5147E+03

           1    1.40036E+00     8.4719E-03  3.6609E-03  1.8941E-01  1.8964E-01
ac ID =   33377                -3.1381E-01 -7.4209E-01  3.1249E-02  8.0632E-01
                               -3.7407E-01  1.0615E+01 -4.6939E+01  2.5147E+03

           1    1.50035E+00    -2.3261E-02  1.2842E-03  3.3535E-01  3.3616E-01
ac ID =   33377                -1.8992E-02 -1.4370E+00 -2.2959E-02  1.4373E+00
                               -3.7410E-01  1.0619E+01 -4.6947E+01  2.5147E+03

           1    1.60034E+00    -1.5239E-02 -1.1269E-03  2.2265E-01  2.2317E-01
ac ID =   33377                -6.3400E-02 -1.1785E+00 -2.2360E-02  1.1804E+00
                               -3.7416E-01  1.0622E+01 -4.6954E+01  2.5147E+03

           1    1.70033E+00     1.7006E-03 -4.7076E-05  6.8277E-02  6.8298E-02
ac ID =   33377                -5.5466E-02 -4.7362E-01  9.2469E-02  4.8574E-01
                               -3.7423E-01  1.0626E+01 -4.6962E+01  2.5147E+03

           1    1.80032E+00    -1.9242E-02  1.0005E-03  9.5393E-02  9.7319E-02
ac ID =   33377                 7.7192E-02 -9.8111E-01  1.1743E-01  9.9112E-01
                               -3.7428E-01  1.0630E+01 -4.6970E+01  2.5147E+03

           1    1.90031E+00    -2.9612E-03 -1.0450E-03  2.0267E-01  2.0269E-01
ac ID =   33377                 1.9416E-01 -5.9720E-01 -5.9055E-02  6.3074E-01
                               -3.7431E-01  1.0634E+01 -4.6980E+01  2.5147E+03

           1    2.00030E+00     3.1751E-03 -4.2782E-03  1.5761E-01  1.5770E-01
ac ID =   33377                 1.8084E-01 -1.9561E-01 -1.3655E-01  2.9936E-01
                               -3.7434E-01  1.0638E+01 -4.6989E+01  2.5147E+03

           1    2.10029E+00    -2.1800E-02  2.0222E-03  8.4573E-03  2.3470E-02
ac ID =   33377                -1.1369E-01 -4.7458E-01  4.1541E-02  4.8977E-01
                               -3.7438E-01  1.0642E+01 -4.6997E+01  2.5147E+03

           1    2.20028E+00    -9.4770E-03  6.1822E-03  1.6929E-02  2.0363E-02
ac ID =   33377                -2.5610E-01 -4.5367E-01  3.9507E-02  5.2245E-01
                               -3.7442E-01  1.0647E+01 -4.7007E+01  2.5147E+03

           1    2.30027E+00     9.0449E-03  5.3263E-03  1.6520E-01  1.6554E-01
ac ID =   33377                -2.1772E-01 -5.3127E-01 -5.3096E-02  5.7660E-01
                               -3.7445E-01  1.0652E+01 -4.7017E+01  2.5147E+03

           1    2.40026E+00    -8.3003E-03 -2.5772E-04  1.9167E-01  1.9185E-01
ac ID =   33377                -1.5375E-01 -8.7743E-01  1.1270E-01  8.9790E-01
                               -3.7449E-01  1.0657E+01 -4.7027E+01  2.5147E+03

           1    2.50025E+00    -7.1583E-03  1.6309E-03  1.3928E-03  7.4727E-03
ac ID =   33377                -2.5695E-01 -4.6540E-01  1.5405E-01  5.5349E-01
                               -3.7454E-01  1.0662E+01 -4.7037E+01  2.5147E+03

           1    2.60024E+00     9.2322E-03  6.1151E-03 -6.5044E-02  6.5980E-02
ac ID =   33377                -2.4816E-01  3.0999E-01  1.0446E-01  4.1060E-01
                               -3.7459E-01  1.0667E+01 -4.7047E+01  2.5147E+03

           1    2.70023E+00     6.8712E-03 -1.6352E-03  1.8549E-02  1.9849E-02
ac ID =   33377                 5.1218E-02  4.4503E-01  1.1156E-01  4.6165E-01
                               -3.7462E-01  1.0673E+01 -4.7058E+01  2.5147E+03

           1    2.80022E+00     1.7524E-02 -2.3625E-03  4.9289E-02  5.2365E-02
ac ID =   33377                 3.1804E-01  6.3490E-01 -6.4871E-02  7.1306E-01
                               -3.7463E-01  1.0679E+01 -4.7068E+01  2.5147E+03

           1    2.90021E+00     3.7003E-02 -2.9851E-03 -3.1774E-02  4.8865E-02
ac ID =   33377                 1.5767E-01  1.2638E+00 -1.5894E-02  1.2737E+00
                               -3.7462E-01  1.0685E+01 -4.7079E+01  2.5147E+03

           1    3.00020E+00     2.8884E-02 -2.9089E-04 -1.0761E-01  1.1142E-01
ac ID =   33377                 2.9970E-02  1.1410E+00 -5.8629E-02  1.1429E+00
                               -3.7461E-01  1.0691E+01 -4.7089E+01  2.5147E+03

           1    3.10019E+00     3.5043E-02 -2.1451E-03 -3.6743E-02  5.0820E-02
ac ID =   33377                 6.6598E-02  9.8982E-01  8.7254E-02  9.9589E-01
                               -3.7456E-01  1.0699E+01 -4.7101E+01  2.5147E+03

           1    3.20018E+00     4.2243E-02 -1.4920E-04  3.1150E-02  5.2486E-02
ac ID =   33377                 2.6507E-02  9.0700E-01  2.7078E-01  9.4693E-01
                               -3.7451E-01  1.0707E+01 -4.7112E+01  2.5147E+03

           1    3.30017E+00     5.1890E-02 -9.0785E-04 -4.3497E-02  6.7715E-02
ac ID =   33377                -1.1590E-01  1.0945E+00  3.1692E-01  1.1454E+00
                               -3.7448E-01  1.0715E+01 -4.7123E+01  2.5147E+03

           1    3.40016E+00     4.8165E-02 -8.4241E-03 -1.7768E-01  1.8429E-01
ac ID =   33377                 9.3538E-02  1.5009E+00  2.2759E-01  1.5210E+00
                               -3.7450E-01  1.0725E+01 -4.7135E+01  2.5147E+03

           1    3.50015E+00     4.1375E-02 -7.7762E-04 -2.0220E-01  2.0639E-01
ac ID =   33377                 8.0064E-02  1.6367E+00  1.6883E-01  1.6473E+00
                               -3.7462E-01  1.0735E+01 -4.7147E+01  2.5147E+03

           1    3.60014E+00     5.9098E-02 -1.6855E-02 -1.4551E-01  1.5796E-01
ac ID =   33377                 4.6740E-01  2.5153E+00  2.0593E-01  2.5666E+00
                               -3.7475E-01  1.0747E+01 -4.7160E+01  2.5147E+03

           1    3.70013E+00     8.9987E-02 -2.6146E-02 -1.5088E-01  1.7761E-01
ac ID =   33377                 9.4387E-01  2.8870E+00 -1.8605E-01  3.0431E+00
                               -3.7495E-01  1.0759E+01 -4.7173E+01  2.5147E+03

           1    3.80012E+00     7.1504E-02 -1.8111E-02 -2.5829E-01  2.6861E-01
ac ID =   33377                 7.9941E-01  3.0252E+00  3.5170E-01  3.1488E+00
                               -3.7524E-01  1.0773E+01 -4.7185E+01  2.5147E+03

           1    3.90011E+00     6.9487E-02  6.8957E-03 -3.0917E-01  3.1696E-01
ac ID =   33377                 6.5393E-01  3.1408E+00  4.4368E-02  3.2085E+00
                               -3.7556E-01  1.0787E+01 -4.7198E+01  2.5147E+03

           1    4.00010E+00     6.8744E-02 -1.3259E-02 -2.5647E-01  2.6585E-01
ac ID =   33377                 3.0954E-01  2.7057E+00 -4.5093E-01  2.7604E+00
                               -3.7589E-01  1.0803E+01 -4.7212E+01  2.5147E+03

           1    4.10009E+00     8.9806E-02 -1.8724E-02 -2.8007E-01  2.9471E-01
ac ID =   33377                 6.7753E-01  2.8370E+00  3.6438E-01  2.9395E+00
                               -3.7617E-01  1.0821E+01 -4.7226E+01  2.5147E+03

           1    4.20008E+00     6.7170E-02  1.0021E-02 -3.2542E-01  3.3243E-01
ac ID =   33377                -1.5294E-02  2.3711E+00 -2.2772E-01  2.3820E+00
                               -3.7647E-01  1.0839E+01 -4.7240E+01  2.5147E+03

           1    4.30007E+00     7.8509E-02 -5.3926E-03 -4.5054E-01  4.5736E-01
ac ID =   33377                 2.2660E-01  2.8342E+00  3.7920E-01  2.8685E+00
                               -3.7678E-01  1.0859E+01 -4.7253E+01  2.5147E+03

           1    4.40006E+00     1.1733E-01 -1.1845E-02 -3.8461E-01  4.0228E-01
ac ID =   33377                 4.6593E-01  3.6454E+00  6.0104E-01  3.7239E+00
                               -3.7708E-01  1.0881E+01 -4.7268E+01  2.5147E+03

           1    4.50005E+00     8.4593E-02  6.0603E-03 -3.5065E-01  3.6076E-01
ac ID =   33377                 5.3441E-01  3.5239E+00 -2.5106E-01  3.5731E+00
                               -3.7737E-01  1.0904E+01 -4.7283E+01  2.5147E+03

           1    4.60004E+00     9.4990E-02 -2.9258E-02 -4.1888E-01  4.3051E-01
ac ID =   33377                 1.3585E+00  4.1724E+00 -2.2834E-01  4.3940E+00
                               -3.7760E-01  1.0929E+01 -4.7297E+01  2.5147E+03

           1    4.70003E+00     1.1232E-01 -3.4173E-03 -5.1405E-01  5.2618E-01
ac ID =   33377                 3.8606E-01  3.4557E+00 -5.7109E-01  3.5238E+00
                               -3.7780E-01  1.0955E+01 -4.7311E+01  2.5147E+03

           1    4.80002E+00     1.0655E-01 -6.2705E-03 -5.5268E-01  5.6289E-01
ac ID =   33377                 9.8972E-01  3.6374E+00  4.1435E-02  3.7699E+00
                               -3.7803E-01  1.0983E+01 -4.7326E+01  2.5147E+03

           1    4.90001E+00     1.0219E-01 -4.3670E-02 -4.7553E-01  4.8834E-01
ac ID =   33377                 8.7642E-01  2.8903E+00  2.3808E+00  3.8458E+00
                               -3.7803E-01  1.1013E+01 -4.7341E+01  2.5147E+03

           1    5.00000E+00     7.1987E-02 -1.6523E-03 -5.2007E-01  5.2503E-01
ac ID =   33377                 3.6116E-01  3.4050E+00  1.9378E-01  3.4296E+00
                               -3.7810E-01  1.1045E+01 -4.7356E+01  2.5147E+03

           1    5.10049E+00     1.1011E-01  3.7462E-02 -6.2278E-01  6.3354E-01
ac ID =   33377                -2.4356E-01  3.2736E+00 -4.4032E-01  3.3121E+00
                               -3.7813E-01  1.1078E+01 -4.7371E+01  2.5147E+03

           1    5.20048E+00     1.3666E-01 -2.2118E-02 -6.5319E-01  6.6770E-01
ac ID =   33377                 1.1485E+00  4.3261E+00 -2.5330E-01  4.4832E+00
                               -3.7806E-01  1.1113E+01 -4.7385E+01  2.5147E+03

           1    5.30047E+00     9.6764E-02 -2.6018E-03 -6.3347E-01  6.4083E-01
ac ID =   33377                 1.2228E-01  4.0800E+00  4.2685E-02  4.0820E+00
                               -3.7789E-01  1.1150E+01 -4.7400E+01  2.5147E+03

           1    5.40046E+00     8.5456E-02  8.3369E-03 -6.6553E-01  6.7105E-01
ac ID =   33377                 6.8628E-01  3.3450E+00  2.1473E+00  4.0337E+00
                               -3.7769E-01  1.1188E+01 -4.7415E+01  2.5147E+03

           1    5.50045E+00     1.6285E-01  4.1405E-03 -7.4683E-01  7.6439E-01
ac ID =   33377                 1.1086E+00  4.2650E+00  2.2388E-01  4.4124E+00
                               -3.7738E-01  1.1228E+01 -4.7429E+01  2.5147E+03

           1    5.60044E+00     9.3608E-02  2.9174E-02 -8.6260E-01  8.6815E-01
ac ID =   33377                 2.4283E-01  3.2821E+00 -8.8397E-01  3.4077E+00
                               -3.7688E-01  1.1270E+01 -4.7443E+01  2.5147E+03

           1    5.70043E+00     9.6206E-02 -3.2948E-02 -7.9480E-01  8.0128E-01
ac ID =   33377                 5.4643E-01  3.0924E+00 -1.0621E+00  3.3151E+00
                               -3.7613E-01  1.1313E+01 -4.7457E+01  2.5147E+03

           1    5.80042E+00     1.0416E-01  2.8850E-03 -8.6293E-01  8.6920E-01
ac ID =   33377                 8.8190E-01  4.1373E+00 -5.1651E-01  4.2617E+00
                               -3.7547E-01  1.1357E+01 -4.7470E+01  2.5147E+03

           1    5.90041E+00     1.1156E-01  4.5202E-02 -9.3085E-01  9.3860E-01
ac ID =   33377                 1.7592E-01  3.7742E+00  7.9605E-01  3.8613E+00
                               -3.7460E-01  1.1403E+01 -4.7483E+01  2.5147E+03

           1    6.00040E+00     1.0213E-01 -1.5910E-02 -9.0046E-01  9.0637E-01
ac ID =   33377                -4.6266E-02  3.1651E+00  2.5266E+00  4.0502E+00
                               -3.7354E-01  1.1451E+01 -4.7495E+01  2.5147E+03

           1    6.10039E+00     1.5280E-01  3.0873E-02 -9.9139E-01  1.0036E+00
ac ID =   33377                -3.0687E-01  4.7209E+00  2.9768E-02  4.7309E+00
                               -3.7238E-01  1.1500E+01 -4.7507E+01  2.5147E+03

           1    6.20038E+00     1.4027E-01 -1.9656E-02 -9.0654E-01  9.1753E-01
ac ID =   33377                 3.6647E-01  3.4777E+00 -2.0746E+00  4.0660E+00
                               -3.7118E-01  1.1551E+01 -4.7519E+01  2.5147E+03

           1    6.30037E+00     9.2551E-02  3.2250E-02 -9.7857E-01  9.8347E-01
ac ID =   33377                 5.3646E-01  3.2596E+00  1.1348E-01  3.3054E+00
                               -3.6971E-01  1.1603E+01 -4.7529E+01  2.5147E+03

           1    6.40036E+00     1.4703E-01 -5.9220E-03 -1.1548E+00  1.1641E+00
ac ID =   33377                -3.4853E-01  4.7341E+00  1.2983E+00  4.9212E+00
                               -3.6821E-01  1.1656E+01 -4.7539E+01  2.5147E+03

           1    6.50035E+00     1.4640E-01 -1.4045E-02 -1.0969E+00  1.1068E+00
ac ID =   33377                 1.4382E+00  4.0718E+00  1.0431E+00  4.4425E+00
                               -3.6666E-01  1.1711E+01 -4.7549E+01  2.5147E+03

           1    6.60034E+00     1.3179E-01  1.9074E-02 -1.0897E+00  1.0978E+00
ac ID =   33377                 8.9165E-02  4.2270E+00 -1.4124E-01  4.2303E+00
                               -3.6502E-01  1.1768E+01 -4.7558E+01  2.5147E+03

           1    6.70033E+00     1.3420E-01  1.0163E-02 -1.2071E+00  1.2146E+00
ac ID =   33377                 1.5644E-01  4.3942E+00 -2.7682E-01  4.4057E+00
                               -3.6313E-01  1.1826E+01 -4.7566E+01  2.5147E+03

           1    6.80032E+00     1.9947E-01 -2.4689E-02 -1.2004E+00  1.2171E+00
ac ID =   33377                 1.1361E+00  5.2484E+00  1.3251E-01  5.3716E+00
                               -3.6127E-01  1.1886E+01 -4.7574E+01  2.5147E+03

           1    6.90031E+00     1.4055E-01  2.3785E-02 -1.2847E+00  1.2926E+00
ac ID =   33377                 1.8569E-01  4.4778E+00  3.1817E-01  4.4930E+00
                               -3.5941E-01  1.1947E+01 -4.7580E+01  2.5147E+03

           1    7.00030E+00     9.5336E-02  3.5833E-02 -1.2755E+00  1.2795E+00
ac ID =   33377                -4.2921E-01  4.8637E+00  1.8814E+00  5.2325E+00
                               -3.5730E-01  1.2010E+01 -4.7586E+01  2.5147E+03

           1    7.10029E+00     2.2465E-01  8.9487E-03 -1.2580E+00  1.2779E+00
ac ID =   33377                 5.0118E-01  5.1571E+00 -3.3786E-01  5.1924E+00
                               -3.5535E-01  1.2074E+01 -4.7591E+01  2.5147E+03

           1    7.20028E+00     1.3830E-01 -9.0335E-03 -1.4398E+00  1.4464E+00
ac ID =   33377                 6.4073E-01  3.5890E+00 -2.0112E+00  4.1637E+00
                               -3.5331E-01  1.2140E+01 -4.7595E+01  2.5147E+03

           1    7.30027E+00     1.6963E-01 -6.8197E-03 -1.4824E+00  1.4921E+00
ac ID =   33377                 2.2873E-01  4.8781E+00 -7.6606E-01  4.9432E+00
                               -3.5124E-01  1.2207E+01 -4.7598E+01  2.5147E+03

           1    7.40026E+00     1.8292E-01 -1.1246E-02 -1.4588E+00  1.4703E+00
ac ID =   33377                 7.7168E-01  5.5930E+00  1.3676E+00  5.8093E+00
                               -3.4897E-01  1.2276E+01 -4.7600E+01  2.5147E+03

           1    7.50025E+00     2.1125E-01  1.3205E-03 -1.5051E+00  1.5198E+00
ac ID =   33377                 1.4990E+00  5.6961E+00  9.8607E-01  5.9720E+00
                               -3.4689E-01  1.2347E+01 -4.7600E+01  2.5147E+03

           1    7.60024E+00     1.8342E-01  3.8573E-02 -1.4742E+00  1.4860E+00
ac ID =   33377                 6.9520E-01  6.7087E+00 -4.1396E-01  6.7573E+00
                               -3.4485E-01  1.2419E+01 -4.7600E+01  2.5147E+03

           1    7.70023E+00     2.0443E-01  4.8734E-03 -1.5990E+00  1.6121E+00
ac ID =   33377                 2.1886E-01  6.3793E+00 -6.2201E-01  6.4133E+00
                               -3.4256E-01  1.2492E+01 -4.7598E+01  2.5147E+03

           1    7.80022E+00     1.8251E-01 -4.6445E-02 -1.6254E+00  1.6363E+00
ac ID =   33377                 1.5026E+00  5.7716E+00 -1.1720E+00  6.0781E+00
                               -3.4037E-01  1.2567E+01 -4.7595E+01  2.5147E+03

           1    7.90021E+00     2.0179E-01 -2.1881E-02 -1.5545E+00  1.5677E+00
ac ID =   33377                 8.3931E-01  5.6594E+00  1.0254E+00  5.8125E+00
                               -3.3820E-01  1.2644E+01 -4.7592E+01  2.5147E+03

           1    8.00020E+00     2.1299E-01  1.7683E-02 -1.6313E+00  1.6452E+00
ac ID =   33377                -5.5440E-02  6.8904E+00  1.4153E+00  7.0344E+00
                               -3.3625E-01  1.2722E+01 -4.7586E+01  2.5147E+03

           1    8.10019E+00     2.0981E-01 -8.9730E-03 -1.7479E+00  1.7605E+00
ac ID =   33377                 1.3221E+00  7.1884E+00  1.2790E+00  7.4201E+00
                               -3.3416E-01  1.2801E+01 -4.7580E+01  2.5147E+03

           1    8.20018E+00     2.9156E-01 -1.3635E-02 -1.7118E+00  1.7365E+00
ac ID =   33377                 1.1700E+00  8.5208E+00 -4.2955E-01  8.6115E+00
                               -3.3214E-01  1.2882E+01 -4.7573E+01  2.5147E+03

           1    8.30017E+00     2.2750E-01  1.1549E-02 -1.7954E+00  1.8098E+00
ac ID =   33377                 1.5500E+00  7.5312E+00 -1.6408E+00  7.8622E+00
                               -3.3032E-01  1.2965E+01 -4.7564E+01  2.5147E+03

           1    8.40016E+00     2.3857E-01  2.1025E-02 -1.7705E+00  1.7867E+00
ac ID =   33377                 4.8299E-01  8.4381E+00 -5.4062E-01  8.4692E+00
                               -3.2824E-01  1.3050E+01 -4.7555E+01  2.5147E+03

           1    8.50015E+00     3.1239E-01 -6.8763E-02 -1.8617E+00  1.8890E+00
ac ID =   33377                 2.8191E+00  8.5246E+00  5.3917E-01  8.9948E+00
                               -3.2602E-01  1.3135E+01 -4.7543E+01  2.5147E+03

           1    8.60014E+00     1.7606E-01 -1.0455E-02 -1.9084E+00  1.9165E+00
ac ID =   33377                 1.1747E+00  8.4307E+00  1.1627E+00  8.5912E+00
                               -3.2391E-01  1.3222E+01 -4.7531E+01  2.5147E+03

           1    8.70013E+00     2.5752E-01  5.5333E-02 -1.8063E+00  1.8254E+00
ac ID =   33377                 6.6135E-01  8.8129E+00  9.4451E-02  8.8382E+00
                               -3.2182E-01  1.3311E+01 -4.7517E+01  2.5147E+03

           1    8.80012E+00     2.2363E-01 -2.1928E-02 -1.8538E+00  1.8673E+00
ac ID =   33377                 8.0814E-01  8.3024E+00  3.2650E-01  8.3481E+00
                               -3.1953E-01  1.3401E+01 -4.7502E+01  2.5147E+03

           1    8.90011E+00     3.1389E-01 -5.9978E-02 -1.9200E+00  1.9465E+00
ac ID =   33377                 2.0819E+00  9.7554E+00 -6.3945E-01  9.9956E+00
                               -3.1731E-01  1.3491E+01 -4.7485E+01  2.5147E+03

           1    9.00010E+00     2.1380E-01  3.7841E-02 -1.9869E+00  1.9988E+00
ac ID =   33377                 9.7030E-01  8.6296E+00 -2.0410E-01  8.6863E+00
                               -3.1503E-01  1.3583E+01 -4.7466E+01  2.5147E+03

           1    9.10009E+00     2.5469E-01  2.3754E-02 -2.0790E+00  2.0946E+00
ac ID =   33377                 1.1003E+00  8.6912E+00  1.8836E-01  8.7626E+00
                               -3.1253E-01  1.3675E+01 -4.7446E+01  2.5147E+03

           1    9.20008E+00     3.1241E-01 -6.3759E-02 -1.9631E+00  1.9889E+00
ac ID =   33377                 3.2247E+00  9.9516E+00  5.7645E-01  1.0477E+01
                               -3.1006E-01  1.3770E+01 -4.7424E+01  2.5147E+03

           1    9.30007E+00     2.7247E-01  4.0389E-02 -1.9289E+00  1.9484E+00
ac ID =   33377                 7.4925E-01  8.1437E+00  2.0742E-01  8.1807E+00
                               -3.0749E-01  1.3865E+01 -4.7400E+01  2.5147E+03

           1    9.40006E+00     2.8515E-01 -5.8395E-03 -2.1035E+00  2.1227E+00
ac ID =   33377                 1.2907E+00  9.0539E+00 -1.7519E+00  9.3117E+00
                               -3.0468E-01  1.3961E+01 -4.7375E+01  2.5147E+03

           1    9.50005E+00     2.5459E-01 -1.6648E-02 -2.0948E+00  2.1103E+00
ac ID =   33377                 1.4543E+00  8.3934E+00  3.7460E-01  8.5267E+00
                               -3.0183E-01  1.4058E+01 -4.7348E+01  2.5147E+03

           1    9.60004E+00     3.9696E-01  2.4646E-02 -2.0892E+00  2.1267E+00
ac ID =   33377                 6.6772E-01  1.1252E+01  5.9799E-01  1.1288E+01
                               -2.9885E-01  1.4157E+01 -4.7319E+01  2.5147E+03

           1    9.70003E+00     2.2207E-01  4.5247E-02 -2.0369E+00  2.0494E+00
ac ID =   33377                -3.1032E-01  8.5384E+00 -5.6507E-01  8.5627E+00
                               -2.9576E-01  1.4258E+01 -4.7289E+01  2.5147E+03

           1    9.80002E+00     3.0400E-01 -4.4816E-02 -2.1308E+00  2.1529E+00
ac ID =   33377                 2.0043E+00  9.2713E+00 -6.5509E-02  9.4857E+00
                               -2.9218E-01  1.4359E+01 -4.7257E+01  2.5147E+03

           1    9.90001E+00     2.9766E-01 -2.5779E-02 -2.1987E+00  2.2189E+00
ac ID =   33377                 1.0944E+00  1.0239E+01  1.2096E+00  1.0368E+01
                               -2.8888E-01  1.4462E+01 -4.7224E+01  2.5147E+03

           1    1.00005E+01     3.0503E-01  7.5170E-02 -2.0780E+00  2.1016E+00
ac ID =   33377                 6.3061E-02  9.4619E+00  1.3904E+00  9.5637E+00
                               -2.8541E-01  1.4566E+01 -4.7188E+01  2.5147E+03

           1    1.01005E+01     2.8768E-01 -1.8529E-04 -2.1350E+00  2.1543E+00
ac ID =   33377                 1.4115E+00  9.8846E+00  3.1532E-02  9.9849E+00
                               -2.8154E-01  1.4671E+01 -4.7151E+01  2.5147E+03

           1    1.02005E+01     3.1143E-01 -2.1584E-02 -2.2558E+00  2.2773E+00
ac ID =   33377                 2.0630E+00  1.0270E+01 -4.4974E-01  1.0485E+01
                               -2.7754E-01  1.4778E+01 -4.7111E+01  2.5147E+03

           1    1.03005E+01     3.5337E-01 -1.6668E-02 -2.1834E+00  2.2118E+00
ac ID =   33377                -1.7488E-01  1.0422E+01  4.4975E-01  1.0434E+01
                               -2.7353E-01  1.4885E+01 -4.7070E+01  2.5147E+03

           1    1.04005E+01     2.9601E-01  8.1607E-02 -2.2186E+00  2.2398E+00
ac ID =   33377                -2.2925E-02  9.5216E+00  3.0510E-01  9.5265E+00
                               -2.6957E-01  1.4994E+01 -4.7027E+01  2.5147E+03

           1    1.05004E+01     2.7023E-01 -5.2232E-02 -2.1744E+00  2.1917E+00
ac ID =   33377                 1.3667E+00  8.9154E+00  2.0792E-01  9.0220E+00
                               -2.6519E-01  1.5104E+01 -4.6982E+01  2.5147E+03

           1    1.06004E+01     2.9988E-01 -2.3317E-03 -2.1707E+00  2.1913E+00
ac ID =   33377                 8.7194E-01  9.4006E+00  1.7033E+00  9.5933E+00
                               -2.6108E-01  1.5215E+01 -4.6935E+01  2.5147E+03

           1    1.07004E+01     3.8069E-01  6.2044E-02 -2.2251E+00  2.2583E+00
ac ID =   33377                -8.2121E-01  1.0388E+01  1.1892E+00  1.0488E+01
                               -2.5690E-01  1.5328E+01 -4.6886E+01  2.5147E+03

           1    1.08004E+01     2.7704E-01 -2.1526E-02 -2.1613E+00  2.1791E+00
ac ID =   33377                 1.5737E+00  8.8810E+00 -6.6246E-01  9.0437E+00
                               -2.5249E-01  1.5442E+01 -4.6836E+01  2.5147E+03

           1    1.09004E+01     2.6400E-01 -2.2999E-02 -2.1501E+00  2.1664E+00
ac ID =   33377                 1.6606E+00  8.1358E+00 -1.7790E-01  8.3055E+00
                               -2.4810E-01  1.5556E+01 -4.6783E+01  2.5147E+03

           1    1.10004E+01     3.5743E-01  6.2631E-02 -2.2341E+00  2.2634E+00
ac ID =   33377                -1.3755E+00  1.0419E+01  5.6776E-01  1.0524E+01
                               -2.4388E-01  1.5673E+01 -4.6729E+01  2.5147E+03

           1    1.11004E+01     3.3118E-01  7.9619E-03 -2.1271E+00  2.1527E+00
ac ID =   33377                 1.0292E+00  9.2839E+00  2.1902E-02  9.3408E+00
                               -2.3935E-01  1.5790E+01 -4.6672E+01  2.5147E+03

           1    1.12004E+01     2.7203E-01 -7.1735E-02 -2.1857E+00  2.2037E+00
ac ID =   33377                 1.4812E+00  8.5261E+00 -1.2243E+00  8.7400E+00
                               -2.3469E-01  1.5909E+01 -4.6613E+01  2.5147E+03

           1    1.13004E+01     3.1132E-01  5.5033E-02 -2.2254E+00  2.2478E+00
ac ID =   33377                -1.0782E-01  9.9658E+00  5.5245E-01  9.9817E+00
                               -2.3071E-01  1.6029E+01 -4.6553E+01  2.5147E+03

           1    1.14004E+01     3.4080E-01  4.0713E-03 -2.0317E+00  2.0601E+00
ac ID =   33377                -7.2787E-01  8.7691E+00  8.7981E-01  8.8432E+00
                               -2.2632E-01  1.6149E+01 -4.6490E+01  2.5147E+03

           1    1.15003E+01     2.5332E-01  1.7404E-02 -2.1177E+00  2.1329E+00
ac ID =   33377                 1.2663E+00  7.7214E+00 -6.7567E-01  7.8537E+00
                               -2.2204E-01  1.6271E+01 -4.6425E+01  2.5147E+03

           1    1.16003E+01     2.9214E-01 -5.0899E-02 -2.1964E+00  2.2163E+00
ac ID =   33377                 1.2462E+00  8.6177E+00  1.1900E+00  8.7883E+00
                               -2.1757E-01  1.6393E+01 -4.6358E+01  2.5147E+03

           1    1.17003E+01     3.2232E-01  5.3765E-02 -2.0788E+00  2.1043E+00
ac ID =   33377                -4.7020E-01  8.0415E+00  7.2335E-01  8.0876E+00
                               -2.1361E-01  1.6517E+01 -4.6290E+01  2.5147E+03

           1    1.18003E+01     3.1561E-01  3.8919E-02 -2.0796E+00  2.1038E+00
ac ID =   33377                -4.3229E-01  7.9518E+00  6.5314E-01  7.9903E+00
                               -2.0910E-01  1.6641E+01 -4.6219E+01  2.5147E+03

           1    1.19003E+01     2.8642E-01 -3.9631E-02 -2.0339E+00  2.0544E+00
ac ID =   33377                 1.8907E+00  7.4765E+00 -8.9466E-01  7.7636E+00
                               -2.0457E-01  1.6767E+01 -4.6146E+01  2.5147E+03

           1    1.20003E+01     3.3059E-01 -7.1073E-03 -2.1211E+00  2.1467E+00
ac ID =   33377                 3.0807E-01  8.6239E+00 -1.9259E+00  8.8417E+00
                               -2.0015E-01  1.6893E+01 -4.6070E+01  2.5147E+03

           1    1.21003E+01     3.0551E-01  4.4987E-02 -2.1447E+00  2.1668E+00
ac ID =   33377                -6.7702E-01  8.9151E+00 -9.2774E-01  8.9888E+00
                               -1.9582E-01  1.7020E+01 -4.5994E+01  2.5147E+03

           1    1.22003E+01     2.7106E-01 -3.2310E-02 -1.8814E+00  1.9011E+00
ac ID =   33377                 1.4688E+00  6.8732E+00  1.7321E-01  7.0305E+00
                               -1.9148E-01  1.7148E+01 -4.5915E+01  2.5147E+03

           1    1.23003E+01     3.4309E-01 -3.1179E-03 -1.9277E+00  1.9580E+00
ac ID =   33377                 1.4296E+00  8.1679E+00  1.4646E+00  8.4204E+00
                               -1.8713E-01  1.7276E+01 -4.5834E+01  2.5147E+03

           1    1.24003E+01     2.7840E-01  6.4868E-02 -2.0301E+00  2.0502E+00
ac ID =   33377                -1.0380E-01  6.5198E+00  7.0466E-01  6.5585E+00
                               -1.8259E-01  1.7406E+01 -4.5751E+01  2.5147E+03

           1    1.25002E+01     3.4574E-01  2.9162E-02 -1.9123E+00  1.9436E+00
ac ID =   33377                -2.5264E-01  7.8374E+00 -1.0270E+00  7.9085E+00
                               -1.7785E-01  1.7536E+01 -4.5667E+01  2.5147E+03

           1    1.26002E+01     2.9083E-01 -5.4076E-02 -1.8557E+00  1.8791E+00
ac ID =   33377                 1.8991E+00  7.6100E+00 -1.7962E+00  8.0464E+00
                               -1.7308E-01  1.7668E+01 -4.5581E+01  2.5147E+03

           1    1.27002E+01     2.9438E-01  1.1816E-02 -1.8421E+00  1.8655E+00
ac ID =   33377                 2.3310E-01  7.4101E+00  3.4797E-01  7.4220E+00
                               -1.6830E-01  1.7800E+01 -4.5493E+01  2.5147E+03

           1    1.28002E+01     2.9518E-01  8.2849E-02 -1.8473E+00  1.8726E+00
ac ID =   33377                -1.4200E+00  7.6384E+00  1.1031E+00  7.8471E+00
                               -1.6323E-01  1.7933E+01 -4.5404E+01  2.5147E+03

           1    1.29002E+01     3.3069E-01 -9.7556E-02 -1.8617E+00  1.8933E+00
ac ID =   33377                 2.7085E+00  8.1324E+00 -1.8599E+00  8.7710E+00
                               -1.5803E-01  1.8067E+01 -4.5312E+01  2.5147E+03

           1    1.30002E+01     2.7982E-01  1.2729E-02 -1.7078E+00  1.7307E+00
ac ID =   33377                 9.5022E-01  6.5225E+00  2.8655E-01  6.5976E+00
                               -1.5298E-01  1.8202E+01 -4.5220E+01  2.5147E+03

           1    1.31002E+01     2.9272E-01  4.0442E-02 -1.6730E+00  1.6989E+00
ac ID =   33377                -1.0205E-01  6.8301E+00  7.6924E-01  6.8741E+00
                               -1.4775E-01  1.8337E+01 -4.5126E+01  2.5147E+03

           1    1.32002E+01     3.0822E-01  2.5881E-02 -1.7285E+00  1.7559E+00
ac ID =   33377                 7.4167E-01  7.6004E+00  2.7862E-01  7.6416E+00
                               -1.4225E-01  1.8473E+01 -4.5030E+01  2.5147E+03

           1    1.33002E+01     3.3398E-01 -3.4190E-02 -1.6627E+00  1.6962E+00
ac ID =   33377                 1.5349E+00  7.1141E+00  6.4508E-01  7.3063E+00
                               -1.3638E-01  1.8609E+01 -4.4932E+01  2.5147E+03

           1    1.34002E+01     2.9883E-01  1.8332E-02 -1.6507E+00  1.6776E+00
ac ID =   33377                -1.1761E-01  7.1651E+00 -4.4853E-01  7.1801E+00
                               -1.3071E-01  1.8746E+01 -4.4834E+01  2.5147E+03

           1    1.35001E+01     2.9675E-01  9.2373E-02 -1.6272E+00  1.6566E+00
ac ID =   33377                -1.2997E+00  6.7987E+00 -7.8986E-01  6.9667E+00
                               -1.2471E-01  1.8884E+01 -4.4734E+01  2.5147E+03

           1    1.36001E+01     3.3323E-01 -3.1648E-02 -1.4784E+00  1.5158E+00
ac ID =   33377                 1.1216E+00  6.8151E+00 -3.1435E-01  6.9139E+00
                               -1.1841E-01  1.9023E+01 -4.4632E+01  2.5147E+03

           1    1.37001E+01     2.4939E-01  1.7122E-02 -1.5010E+00  1.5217E+00
ac ID =   33377                 7.2026E-01  5.7900E+00  5.7336E-01  5.8628E+00
                               -1.1223E-01  1.9162E+01 -4.4529E+01  2.5147E+03

           1    1.38001E+01     2.6352E-01  2.9636E-02 -1.5553E+00  1.5777E+00
ac ID =   33377                -1.2247E+00  5.7997E+00  8.0154E-01  5.9815E+00
                               -1.0590E-01  1.9302E+01 -4.4424E+01  2.5147E+03

           1    1.39001E+01     3.3376E-01  9.9253E-03 -1.4252E+00  1.4638E+00
ac ID =   33377                 1.7683E+00  5.5183E+00 -7.8340E-01  5.8475E+00
                               -9.9407E-02  1.9442E+01 -4.4319E+01  2.5147E+03

           1    1.40001E+01     2.6022E-01 -7.4100E-02 -1.3183E+00  1.3457E+00
ac ID =   33377                 1.9219E+00  4.2678E+00 -1.1763E+00  4.8261E+00
                               -9.2782E-02  1.9583E+01 -4.4212E+01  2.5147E+03

           1    1.41001E+01     2.7016E-01  5.0744E-02 -1.2441E+00  1.2741E+00
ac ID =   33377                 2.6627E-01  4.5231E+00 -9.8115E-01  4.6359E+00
                               -8.6327E-02  1.9725E+01 -4.4103E+01  2.5147E+03

           1    1.42001E+01     2.7888E-01  1.4169E-02 -1.3448E+00  1.3735E+00
ac ID =   33377                 3.8622E-01  4.5813E+00 -8.1248E-01  4.6688E+00
                               -7.9535E-02  1.9866E+01 -4.3993E+01  2.5147E+03

           1    1.43001E+01     2.5768E-01 -1.2778E-02 -1.3244E+00  1.3493E+00
ac ID =   33377                 4.0780E-01  4.6496E+00  8.1947E-01  4.7389E+00
                               -7.2768E-02  2.0008E+01 -4.3882E+01  2.5147E+03

           1    1.44001E+01     2.8782E-01 -1.2430E-02 -1.0593E+00  1.0978E+00
ac ID =   33377                 1.1268E+00  4.8431E+00  8.7376E-01  5.0486E+00
                               -6.6145E-02  2.0151E+01 -4.3770E+01  2.5147E+03

           1    1.45000E+01     2.1527E-01  6.0363E-02 -1.1136E+00  1.1358E+00
ac ID =   33377                -1.2472E+00  2.9027E+00  8.6634E-01  3.2759E+00
                               -5.9589E-02  2.0295E+01 -4.3657E+01  2.5147E+03

           1    1.46000E+01     2.5315E-01  2.2739E-02 -1.1380E+00  1.1660E+00
ac ID =   33377                -1.9450E-02  3.1053E+00  2.4065E-01  3.1146E+00
                               -5.3074E-02  2.0438E+01 -4.3542E+01  2.5147E+03

           1    1.47000E+01     2.1342E-01 -1.6691E-02 -1.1269E+00  1.1471E+00
ac ID =   33377                 8.5973E-01  2.9705E+00  1.8762E-01  3.0981E+00
                               -4.6367E-02  2.0582E+01 -4.3426E+01  2.5147E+03

           1    1.48005E+01     2.6507E-01  1.1678E-03 -1.0546E+00  1.0874E+00
ac ID =   33377                 4.3540E-01  2.8381E+00  1.4390E+00  3.2117E+00
                               -3.9802E-02  2.0727E+01 -4.3309E+01  2.5147E+03

           1    1.49005E+01     2.6572E-01 -1.8722E-02 -8.6293E-01  9.0311E-01
ac ID =   33377                 9.5705E-01  3.2940E+00  6.9558E-01  3.5001E+00
                               -3.3499E-02  2.0873E+01 -4.3192E+01  2.5147E+03

           1    1.50005E+01     1.7822E-01 -6.6043E-03 -9.9610E-01  1.0119E+00
ac ID =   33377                 9.1184E-01  1.8130E+00 -5.9008E-01  2.1135E+00
                               -2.6991E-02  2.1019E+01 -4.3074E+01  2.5147E+03

           1    1.51005E+01     2.8099E-01 -2.4029E-02 -1.0245E+00  1.0626E+00
ac ID =   33377                 6.6177E-01  4.4033E+00 -7.7745E-01  4.5201E+00
                               -2.0661E-02  2.1165E+01 -4.2955E+01  2.5147E+03

           1    1.52005E+01     2.3940E-01  6.3403E-03 -7.5831E-01  7.9523E-01
ac ID =   33377                 1.1598E-01  2.9157E+00 -6.6914E-01  2.9938E+00
                               -1.4403E-02  2.1313E+01 -4.2836E+01  2.5147E+03

           1    1.53005E+01     2.1401E-01 -2.1191E-03 -7.5157E-01  7.8145E-01
ac ID =   33377                 2.9866E-01  2.9001E+00  1.0913E-02  2.9155E+00
                               -8.1866E-03  2.1461E+01 -4.2717E+01  2.5147E+03

           1    1.54005E+01     1.6587E-01  1.4492E-02 -7.4078E-01  7.5926E-01
ac ID =   33377                -1.5905E-01  2.4172E+00  1.8047E+00  3.0208E+00
                               -2.1047E-03  2.1609E+01 -4.2596E+01  2.5147E+03

           1    1.55004E+01     2.2868E-01  1.3651E-02 -7.6853E-01  8.0195E-01
ac ID =   33377                -4.8734E-01  3.4157E+00  1.1140E+00  3.6257E+00
                                3.9771E-03  2.1758E+01 -4.2476E+01  2.5147E+03

           1    1.56004E+01     1.9859E-01  2.4959E-02 -6.8274E-01  7.1147E-01
ac ID =   33377                 8.4770E-02  4.1880E+00 -7.8109E-01  4.2611E+00
                                9.9414E-03  2.1907E+01 -4.2355E+01  2.5147E+03

           1    1.57004E+01     1.8162E-01 -3.1460E-02 -5.3205E-01  5.6307E-01
ac ID =   33377                 5.2505E-01  3.1753E+00 -7.7703E-01  3.3109E+00
                                1.5796E-02  2.2056E+01 -4.2234E+01  2.5147E+03

           1    1.58004E+01     2.2979E-01 -1.7756E-03 -5.8913E-01  6.3236E-01
ac ID =   33377                 7.6886E-01  4.2886E+00 -2.7687E-02  4.3571E+00
                                2.1697E-02  2.2206E+01 -4.2112E+01  2.5147E+03

           1    1.59004E+01     2.2313E-01  4.4268E-02 -5.1776E-01  5.6552E-01
ac ID =   33377                -1.5497E-01  4.1359E+00 -4.2125E-01  4.1602E+00
                                2.7556E-02  2.2355E+01 -4.1990E+01  2.5147E+03

           1    1.60004E+01     2.0723E-01 -3.7682E-02 -4.7002E-01  5.1505E-01
ac ID =   33377                 9.8621E-01  3.3539E+00 -6.7699E-01  3.5608E+00
                                3.3457E-02  2.2505E+01 -4.1868E+01  2.5147E+03

           1    1.61004E+01     1.5550E-01 -3.6742E-03 -4.2444E-01  4.5204E-01
ac ID =   33377                 7.3388E-01  3.1644E+00 -1.1507E-01  3.2504E+00
                                3.9181E-02  2.2656E+01 -4.1747E+01  2.5147E+03

           1    1.62004E+01     1.9694E-01  2.4427E-02 -3.4421E-01  3.9732E-01
ac ID =   33377                -1.1114E+00  3.6892E+00  2.9221E-01  3.8641E+00
                                4.5086E-02  2.2806E+01 -4.1625E+01  2.5147E+03

           1    1.63004E+01     1.5819E-01  4.9951E-02 -3.0686E-01  3.4883E-01
ac ID =   33377                -4.5596E-01  3.3008E+00  5.3518E-01  3.3749E+00
                                5.0909E-02  2.2956E+01 -4.1503E+01  2.5147E+03

           1    1.64004E+01     1.7588E-01  1.0887E-02 -2.9205E-01  3.4110E-01
ac ID =   33377                -1.9080E-01  2.8201E+00  8.4088E-01  2.9490E+00
                                5.7132E-02  2.3107E+01 -4.1381E+01  2.5147E+03

           1    1.65003E+01     1.5818E-01  2.8564E-02 -3.3419E-01  3.7083E-01
ac ID =   33377                -7.4568E-01  2.4792E+00  7.9628E-01  2.7086E+00
                                6.3229E-02  2.3257E+01 -4.1259E+01  2.5147E+03

           1    1.66003E+01     2.2848E-01  2.3472E-02 -2.0749E-01  3.0952E-01
ac ID =   33377                -1.1136E+00  2.8285E+00 -8.2948E-01  3.1510E+00
                                6.9351E-02  2.3408E+01 -4.1138E+01  2.5147E+03

           1    1.67003E+01     1.2343E-01  9.2527E-03 -6.7122E-02  1.4081E-01
ac ID =   33377                 1.1139E+00  8.9163E-01 -1.6108E+00  2.1519E+00
                                7.5449E-02  2.3559E+01 -4.1017E+01  2.5147E+03

           1    1.68003E+01     1.8795E-01  2.3984E-02 -1.3754E-01  2.3413E-01
ac ID =   33377                -4.8019E-01  2.8727E+00 -6.6338E-01  2.9872E+00
                                8.1830E-02  2.3711E+01 -4.0896E+01  2.5147E+03

           1    1.69003E+01     1.8397E-01  7.3494E-03 -1.4521E-01  2.3449E-01
ac ID =   33377                 8.7814E-01  2.1664E+00 -8.4931E-01  2.4871E+00
                                8.8222E-02  2.3862E+01 -4.0776E+01  2.5147E+03

           1    1.70003E+01     1.3120E-01  1.7971E-02 -6.4928E-02  1.4749E-01
ac ID =   33377                -5.2784E-01  1.3592E+00 -9.3866E-01  1.7341E+00
                                9.4816E-02  2.4014E+01 -4.0656E+01  2.5147E+03

           1    1.71003E+01     1.8221E-01 -8.6222E-03  9.9812E-02  2.0794E-01
ac ID =   33377                -8.4878E-02  2.3350E+00 -7.4794E-01  2.4533E+00
                                1.0154E-01  2.4166E+01 -4.0537E+01  2.5147E+03

           1    1.72003E+01     1.0645E-01  9.9679E-03  4.6017E-02  1.1640E-01
ac ID =   33377                -1.7941E-01 -2.7528E-01 -1.2575E+00  1.2997E+00
                                1.0837E-01  2.4317E+01 -4.0417E+01  2.5147E+03

           1    1.73003E+01     1.7042E-01  6.0823E-02  6.2792E-03  1.8105E-01
ac ID =   33377                -1.3425E+00  1.4064E+00 -2.6488E-01  1.9622E+00
                                1.1511E-01  2.4470E+01 -4.0299E+01  2.5147E+03

           1    1.74003E+01     1.4258E-01 -4.6019E-03  1.1157E-01  1.8110E-01
ac ID =   33377                -9.4213E-02  1.1596E+00  1.9038E-01  1.1789E+00
                                1.2193E-01  2.4622E+01 -4.0181E+01  2.5147E+03

           1    1.75002E+01     9.4835E-02  1.9385E-02  2.2779E-01  2.4750E-01
ac ID =   33377                -4.2813E-01 -2.7911E-01  4.5560E-01  6.8467E-01
                                1.2871E-01  2.4775E+01 -4.0064E+01  2.5147E+03

           1    1.76002E+01     1.3667E-01  1.8595E-02  1.4076E-01  1.9707E-01
ac ID =   33377                 2.4412E-01  1.1889E-01 -5.1036E-01  5.7809E-01
                                1.3536E-01  2.4927E+01 -3.9947E+01  2.5147E+03

           1    1.77002E+01     1.5321E-01 -3.1111E-02  1.7240E-01  2.3273E-01
ac ID =   33377                 1.0097E+00  1.0510E+00 -1.1365E+00  1.8482E+00
                                1.4205E-01  2.5081E+01 -3.9830E+01  2.5147E+03

           1    1.78002E+01     9.3115E-02  1.8509E-02  2.8904E-01  3.0423E-01
ac ID =   33377                 8.5333E-01 -8.1903E-01 -3.7459E-01  1.2407E+00
                                1.4858E-01  2.5234E+01 -3.9715E+01  2.5147E+03

           1    1.79002E+01     1.0683E-01 -5.9273E-03  3.5217E-01  3.6806E-01
ac ID =   33377                 1.7853E-01 -5.0367E-01 -3.7563E-03  5.3439E-01
                                1.5528E-01  2.5388E+01 -3.9601E+01  2.5147E+03

           1    1.80002E+01     1.4977E-01 -2.9414E-03  2.9474E-01  3.3062E-01
ac ID =   33377                 5.5001E-01  4.8780E-01  3.2977E-02  7.3590E-01
                                1.6196E-01  2.5542E+01 -3.9487E+01  2.5147E+03

           1    1.81002E+01     8.4232E-02  1.5661E-02  3.3380E-01  3.4462E-01
ac ID =   33377                -7.3820E-01 -7.8117E-01  3.1804E-02  1.0753E+00
                                1.6862E-01  2.5696E+01 -3.9374E+01  2.5147E+03

           1    1.82002E+01     1.3761E-01  4.0793E-03  3.7058E-01  3.9533E-01
ac ID =   33377                -6.8909E-01 -1.2218E+00 -2.3993E-01  1.4231E+00
                                1.7519E-01  2.5850E+01 -3.9262E+01  2.5147E+03

           1    1.83002E+01     1.2140E-01  4.1479E-02  4.7727E-01  4.9421E-01
ac ID =   33377                -1.1000E+00 -1.2821E-01 -5.5469E-01  1.2386E+00
                                1.8156E-01  2.6006E+01 -3.9152E+01  2.5147E+03

           1    1.84002E+01     1.0780E-01 -2.0837E-02  4.4518E-01  4.5852E-01
ac ID =   33377                -3.0294E-02 -7.2824E-01  2.8366E-01  7.8213E-01
                                1.8814E-01  2.6161E+01 -3.9042E+01  2.5147E+03

           1    1.85001E+01     4.0872E-02  1.9114E-02  4.2991E-01  4.3227E-01
ac ID =   33377                -1.4375E-01 -1.5797E+00  1.2716E+00  2.0330E+00
                                1.9445E-01  2.6317E+01 -3.8934E+01  2.5147E+03

           1    1.86001E+01     1.5118E-01  5.5556E-03  4.4753E-01  4.7241E-01
ac ID =   33377                 8.5244E-01 -4.4833E-01 -1.9160E-01  9.8202E-01
                                2.0057E-01  2.6473E+01 -3.8827E+01  2.5147E+03

           1    1.87001E+01     1.1713E-01  8.5094E-03  5.3432E-01  5.4707E-01
ac ID =   33377                 2.1414E-01 -1.5388E+00 -1.0197E+00  1.8584E+00
                                2.0692E-01  2.6630E+01 -3.8721E+01  2.5147E+03

           1    1.88001E+01     5.8693E-02 -2.8602E-02  5.4026E-01  5.4419E-01
ac ID =   33377                 1.2178E+00 -3.0619E+00 -9.3142E-01  3.4243E+00
                                2.1315E-01  2.6787E+01 -3.8617E+01  2.5147E+03

           1    1.89001E+01     9.2164E-02  5.4987E-03  5.4177E-01  5.4958E-01
ac ID =   33377                 4.8163E-01 -2.1197E+00  4.7740E-01  2.2255E+00
                                2.1939E-01  2.6945E+01 -3.8514E+01  2.5147E+03

           1    1.90001E+01     1.2751E-01  1.0506E-02  5.8152E-01  5.9543E-01
ac ID =   33377                -1.0150E-01 -1.6012E+00  5.5104E-01  1.6964E+00
                                2.2554E-01  2.7103E+01 -3.8412E+01  2.5147E+03

           1    1.91001E+01     5.3433E-02  1.4940E-02  6.1520E-01  6.1770E-01
ac ID =   33377                -2.5697E-01 -2.7880E+00 -7.8189E-02  2.8010E+00
                                2.3155E-01  2.7261E+01 -3.8312E+01  2.5147E+03

           1    1.92001E+01     1.1580E-01  1.4723E-02  5.9674E-01  6.0805E-01
ac ID =   33377                -3.7225E-01 -1.4917E+00 -1.0861E+00  1.8824E+00
                                2.3744E-01  2.7420E+01 -3.8214E+01  2.5147E+03

           1    1.93001E+01     1.0741E-01 -1.8093E-03  6.5852E-01  6.6722E-01
ac ID =   33377                -9.3199E-02 -1.8269E+00 -1.1504E+00  2.1609E+00
                                2.4331E-01  2.7580E+01 -3.8116E+01  2.5147E+03

           1    1.94001E+01     5.8838E-02  2.6832E-02  6.5291E-01  6.5611E-01
ac ID =   33377                 2.3154E-01 -3.6271E+00  3.8443E-01  3.6547E+00
                                2.4898E-01  2.7739E+01 -3.8021E+01  2.5147E+03

           1    1.95000E+01     1.0886E-01 -3.2582E-02  6.3139E-01  6.4154E-01
ac ID =   33377                 1.5588E+00 -2.4237E+00  5.8055E-01  2.9396E+00
                                2.5464E-01  2.7900E+01 -3.7926E+01  2.5147E+03

           1    1.96000E+01     7.5604E-02  6.9096E-03  7.0297E-01  7.0706E-01
ac ID =   33377                 9.9599E-01 -3.3702E+00 -1.5027E-01  3.5175E+00
                                2.6016E-01  2.8061E+01 -3.7834E+01  2.5147E+03

           1    1.97005E+01     6.5441E-02  6.6099E-03  6.8806E-01  6.9119E-01
ac ID =   33377                 9.6924E-01 -3.9006E+00 -8.6047E-01  4.1103E+00
                                2.6582E-01  2.8223E+01 -3.7742E+01  2.5147E+03

           1    1.98005E+01     7.8702E-02 -1.8916E-02  6.6585E-01  6.7075E-01
ac ID =   33377                 1.2167E+00 -3.4105E+00 -7.1934E-01  3.6918E+00
                                2.7153E-01  2.8384E+01 -3.7652E+01  2.5147E+03

           1    1.99005E+01     8.1053E-02  8.1220E-03  7.0484E-01  7.0953E-01
ac ID =   33377                 4.1513E-01 -3.2991E+00  5.7848E-02  3.3256E+00
                                2.7722E-01  2.8547E+01 -3.7564E+01  2.5147E+03

           1    2.00005E+01     8.7712E-02  7.3179E-04  7.1650E-01  7.2185E-01
ac ID =   33377                 2.0833E-01 -3.3002E+00  9.3708E-01  3.4370E+00
                                2.8293E-01  2.8709E+01 -3.7478E+01  2.5147E+03

           1    2.01005E+01     4.8123E-02  1.3452E-02  7.5097E-01  7.5263E-01
ac ID =   33377                -2.1538E-02 -3.9816E+00  6.4809E-01  4.0341E+00
                                2.8855E-01  2.8873E+01 -3.7393E+01  2.5147E+03

           1    2.02005E+01     1.0053E-01  3.6372E-02  7.1749E-01  7.2542E-01
ac ID =   33377                -1.8102E-01 -3.5708E+00 -4.3162E-01  3.6013E+00
                                2.9413E-01  2.9036E+01 -3.7309E+01  2.5147E+03

           1    2.03005E+01     4.6454E-02 -2.1093E-02  7.1912E-01  7.2093E-01
ac ID =   33377                 8.7999E-01 -5.1112E+00 -1.2384E+00  5.3322E+00
                                2.9983E-01  2.9200E+01 -3.7227E+01  2.5147E+03

           1    2.04005E+01     7.1757E-02 -1.3774E-02  7.3509E-01  7.3871E-01
ac ID =   33377                 7.4957E-01 -4.8903E+00 -1.0886E+00  5.0657E+00
                                3.0547E-01  2.9365E+01 -3.7147E+01  2.5147E+03

           1    2.05004E+01     5.6634E-02  1.2427E-02  7.5554E-01  7.5776E-01
ac ID =   33377                 1.3744E+00 -4.6852E+00  2.7260E-01  4.8902E+00
                                3.1102E-01  2.9530E+01 -3.7068E+01  2.5147E+03

           1    2.06004E+01     4.6483E-02 -1.6052E-02  7.2358E-01  7.2525E-01
ac ID =   33377                 1.5489E+00 -5.3500E+00  7.9477E-01  5.6261E+00
                                3.1691E-01  2.9695E+01 -3.6991E+01  2.5147E+03

           1    2.07004E+01     7.4148E-02 -8.5120E-03  7.2429E-01  7.2813E-01
ac ID =   33377                 1.2816E+00 -4.7534E+00 -3.5586E-01  4.9360E+00
                                3.2273E-01  2.9861E+01 -3.6916E+01  2.5147E+03

           1    2.08004E+01     9.5224E-02  6.8048E-03  7.8030E-01  7.8612E-01
ac ID =   33377                 5.1486E-01 -4.9332E+00 -9.5503E-01  5.0511E+00
                                3.2853E-01  3.0028E+01 -3.6842E+01  2.5147E+03

           1    2.09004E+01     5.6719E-02  7.8127E-03  7.5519E-01  7.5736E-01
ac ID =   33377                 2.3196E-01 -5.4595E+00 -7.8782E-01  5.5209E+00
                                3.3436E-01  3.0195E+01 -3.6770E+01  2.5147E+03

           1    2.10004E+01     8.0467E-02 -3.4992E-03  7.2059E-01  7.2508E-01
ac ID =   33377                 2.9406E-01 -4.9079E+00 -2.0460E-01  4.9210E+00
                                3.4024E-01  3.0362E+01 -3.6700E+01  2.5147E+03

           1    2.11004E+01     6.3006E-02  3.6850E-04  7.2277E-01  7.2552E-01
ac ID =   33377                 1.7864E-01 -5.2972E+00  7.0924E-01  5.3475E+00
                                3.4602E-01  3.0530E+01 -3.6631E+01  2.5147E+03

           1    2.12004E+01     5.8422E-02  2.7604E-02  7.3645E-01  7.3928E-01
ac ID =   33377                 2.5936E-02 -5.8568E+00  1.4258E-01  5.8586E+00
                                3.5165E-01  3.0698E+01 -3.6564E+01  2.5147E+03

           1    2.13004E+01     7.7963E-02 -1.4473E-02  7.4060E-01  7.4483E-01
ac ID =   33377                 1.3344E+00 -5.7044E+00 -8.4144E-01  5.9185E+00
                                3.5745E-01  3.0866E+01 -3.6498E+01  2.5147E+03

           1    2.14004E+01     7.2459E-02 -1.4759E-02  6.8095E-01  6.8495E-01
ac ID =   33377                 1.5490E+00 -6.0152E+00 -6.5460E-01  6.2459E+00
                                3.6324E-01  3.1035E+01 -3.6434E+01  2.5147E+03

           1    2.15003E+01     6.3073E-02 -1.0015E-02  6.4831E-01  6.5145E-01
ac ID =   33377                 1.4331E+00 -6.0357E+00 -1.2127E-01  6.2047E+00
                                3.6885E-01  3.1205E+01 -3.6372E+01  2.5147E+03

           1    2.16003E+01     9.3579E-02  2.7424E-03  6.8748E-01  6.9383E-01
ac ID =   33377                 1.2919E+00 -5.7155E+00 -2.3478E-01  5.8644E+00
                                3.7454E-01  3.1374E+01 -3.6312E+01  2.5147E+03

           1    2.17003E+01     7.9988E-02 -2.4329E-02  6.5867E-01  6.6396E-01
ac ID =   33377                 1.2907E+00 -6.0204E+00 -3.5096E-01  6.1672E+00
                                3.8037E-01  3.1544E+01 -3.6252E+01  2.5147E+03

           1    2.18003E+01     7.9373E-02  1.9679E-02  6.3251E-01  6.3777E-01
ac ID =   33377                 5.2664E-02 -6.4201E+00 -3.2866E-01  6.4287E+00
                                3.8596E-01  3.1715E+01 -3.6195E+01  2.5147E+03

           1    2.19003E+01     5.8304E-02  2.7834E-02  6.2975E-01  6.3306E-01
ac ID =   33377                -2.4239E-01 -7.0467E+00  1.1619E-01  7.0518E+00
                                3.9160E-01  3.1885E+01 -3.6138E+01  2.5147E+03

           1    2.20003E+01     9.1757E-02  7.1289E-03  6.0743E-01  6.1436E-01
ac ID =   33377                -6.8427E-02 -6.9358E+00  3.6016E-01  6.9455E+00
                                3.9732E-01  3.2056E+01 -3.6083E+01  2.5147E+03

           1    2.21003E+01     7.2808E-02  1.5548E-03  6.0077E-01  6.0517E-01
ac ID =   33377                 4.5498E-01 -7.4504E+00  1.6713E-01  7.4661E+00
                                4.0281E-01  3.2227E+01 -3.6030E+01  2.5147E+03

           1    2.22003E+01     5.5765E-02  1.2435E-02  5.6568E-01  5.6856E-01
ac ID =   33377                 2.9773E-01 -7.5099E+00 -4.8433E-01  7.5314E+00
                                4.0826E-01  3.2399E+01 -3.5978E+01  2.5147E+03

           1    2.23003E+01     1.0037E-01 -5.1248E-03  5.5999E-01  5.6893E-01
ac ID =   33377                 7.6670E-01 -7.0639E+00 -6.3166E-01  7.1334E+00
                                4.1371E-01  3.2571E+01 -3.5927E+01  2.5147E+03

           1    2.24003E+01     8.7577E-02 -4.6279E-03  5.8592E-01  5.9244E-01
ac ID =   33377                 1.5535E+00 -7.3701E+00 -7.7094E-01  7.5714E+00
                                4.1909E-01  3.2743E+01 -3.5877E+01  2.5147E+03

           1    2.25002E+01     4.0802E-02 -1.9345E-02  5.3246E-01  5.3437E-01
ac ID =   33377                 1.5194E+00 -8.3366E+00 -2.5014E-01  8.4776E+00
                                4.2457E-01  3.2915E+01 -3.5828E+01  2.5147E+03

           1    2.26002E+01     8.6237E-02  2.1344E-02  5.0303E-01  5.1082E-01
ac ID =   33377                 5.2546E-01 -7.6377E+00  2.3089E-01  7.6592E+00
                                4.2988E-01  3.3088E+01 -3.5781E+01  2.5147E+03

           1    2.27002E+01     1.0380E-01 -1.2475E-02  5.0152E-01  5.1230E-01
ac ID =   33377                 8.4468E-01 -7.6528E+00 -4.8671E-01  7.7146E+00
                                4.3530E-01  3.3260E+01 -3.5735E+01  2.5147E+03

           1    2.28002E+01     3.0372E-02 -9.6549E-05  4.8621E-01  4.8716E-01
ac ID =   33377                 4.5008E-01 -9.1879E+00 -4.0980E-01  9.2081E+00
                                4.4067E-01  3.3434E+01 -3.5689E+01  2.5147E+03

           1    2.29002E+01     8.7910E-02  1.4103E-02  4.3916E-01  4.4809E-01
ac ID =   33377                -3.3593E-01 -8.3538E+00 -1.8900E-01  8.3627E+00
                                4.4585E-01  3.3607E+01 -3.5645E+01  2.5147E+03

           1    2.30002E+01     1.0505E-01  1.6825E-02  4.2567E-01  4.3876E-01
ac ID =   33377                 3.5920E-01 -8.1694E+00 -8.5025E-02  8.1777E+00
                                4.5092E-01  3.3780E+01 -3.5602E+01  2.5147E+03

           1    2.31002E+01     7.8624E-02 -1.1547E-02  4.1703E-01  4.2454E-01
ac ID =   33377                 9.3928E-01 -8.8325E+00  4.9115E-01  8.8958E+00
                                4.5610E-01  3.3953E+01 -3.5559E+01  2.5147E+03

           1    2.32002E+01     7.6058E-02  3.2829E-03  3.6076E-01  3.6871E-01
ac ID =   33377                 1.2834E+00 -8.4671E+00 -8.4688E-02  8.5642E+00
                                4.6103E-01  3.4127E+01 -3.5518E+01  2.5147E+03

           1    2.33002E+01     1.1726E-01  9.8207E-03  3.4169E-01  3.6138E-01
ac ID =   33377                 1.3256E+00 -8.0209E+00 -5.5324E-01  8.1485E+00
                                4.6599E-01  3.4300E+01 -3.5477E+01  2.5147E+03

           1    2.34002E+01     9.7216E-02 -1.6196E-02  3.3529E-01  3.4948E-01
ac ID =   33377                 1.5773E+00 -8.4495E+00 -4.3232E-01  8.6063E+00
                                4.7118E-01  3.4474E+01 -3.5437E+01  2.5147E+03

           1    2.35001E+01     6.9567E-02 -2.3173E-02  2.9700E-01  3.0591E-01
ac ID =   33377                 1.8395E+00 -9.2740E+00 -8.0079E-01  9.4885E+00
                                4.7620E-01  3.4648E+01 -3.5398E+01  2.5147E+03

           1    2.36001E+01     1.1905E-01  3.1208E-02  2.7587E-01  3.0208E-01
ac ID =   33377                 3.5386E-01 -8.1157E+00 -3.9648E-01  8.1331E+00
                                4.8124E-01  3.4821E+01 -3.5360E+01  2.5147E+03

           1    2.37001E+01     1.0785E-01  4.5309E-03  2.3677E-01  2.6022E-01
ac ID =   33377                 7.2681E-01 -8.5695E+00 -1.0109E-01  8.6009E+00
                                4.8639E-01  3.4995E+01 -3.5322E+01  2.5147E+03

           1    2.38001E+01     8.8353E-02 -9.7077E-03  2.1469E-01  2.3236E-01
ac ID =   33377                 8.0619E-01 -8.7162E+00 -4.1368E-01  8.7632E+00
                                4.9147E-01  3.5168E+01 -3.5285E+01  2.5147E+03

           1    2.39001E+01     1.1965E-01  3.6577E-02  2.1889E-01  2.5213E-01
ac ID =   33377                -8.6379E-02 -7.9163E+00 -1.1089E-01  7.9176E+00
                                4.9646E-01  3.5342E+01 -3.5249E+01  2.5147E+03

           1    2.40001E+01     1.2156E-01  6.3480E-03  1.6690E-01  2.0657E-01
ac ID =   33377                 8.9951E-01 -8.3234E+00 -2.7193E-01  8.3763E+00
                                5.0158E-01  3.5515E+01 -3.5213E+01  2.5147E+03

           1    2.41001E+01     1.1139E-01 -8.7795E-03  1.3478E-01  1.7507E-01
ac ID =   33377                 1.4279E+00 -8.3948E+00 -3.2242E-01  8.5214E+00
                                5.0669E-01  3.5688E+01 -3.5177E+01  2.5147E+03

           1    2.42001E+01     1.2353E-01 -6.4465E-03  1.4624E-01  1.9154E-01
ac ID =   33377                 1.9114E+00 -8.4333E+00 -2.2301E-01  8.6501E+00
                                5.1172E-01  3.5861E+01 -3.5143E+01  2.5147E+03

           1    2.43001E+01     1.1832E-01  7.0235E-03  1.0666E-01  1.5945E-01
ac ID =   33377                 1.8179E+00 -8.5416E+00 -2.6227E-01  8.7368E+00
                                5.1676E-01  3.6034E+01 -3.5108E+01  2.5147E+03

           1    2.44001E+01     1.2954E-01 -2.4087E-02  6.9200E-02  1.4883E-01
ac ID =   33377                 2.0516E+00 -8.2742E+00 -5.1678E-01  8.5404E+00
                                5.2191E-01  3.6206E+01 -3.5074E+01  2.5147E+03

           1    2.45005E+01     1.3453E-01 -3.0761E-03  4.7747E-02  1.4279E-01
ac ID =   33377                 1.5214E+00 -8.4342E+00 -2.8686E-01  8.5751E+00
                                5.2704E-01  3.6379E+01 -3.5040E+01  2.5147E+03

           1    2.46005E+01     1.3533E-01  6.1345E-03  1.8800E-02  1.3677E-01
ac ID =   33377                 1.0103E+00 -8.2004E+00 -1.9352E-02  8.2624E+00
                                5.3223E-01  3.6551E+01 -3.5007E+01  2.5147E+03

           1    2.47005E+01     1.3989E-01  1.7860E-02  1.0050E-02  1.4139E-01
ac ID =   33377                 6.1432E-01 -8.4261E+00 -1.2556E-01  8.4494E+00
                                5.3739E-01  3.6723E+01 -3.4974E+01  2.5147E+03

           1    2.48005E+01     1.3786E-01  5.2876E-03 -1.5042E-02  1.3877E-01
ac ID =   33377                 9.5160E-01 -8.4400E+00  2.7159E-02  8.4935E+00
                                5.4262E-01  3.6894E+01 -3.4941E+01  2.5147E+03

           1    2.49005E+01     1.4937E-01 -1.8161E-03 -4.1058E-02  1.5492E-01
ac ID =   33377                 8.8217E-01 -8.4307E+00 -1.4934E-01  8.4780E+00
                                5.4785E-01  3.7065E+01 -3.4908E+01  2.5147E+03

