 LSTC 50th% Full_FE H-III Dummy (Beta Version, February 17, 2019)        
                    ls-dyna smp s R16 R16.0_619_d222963 date 03/18/2025

{BEGIN LEGEND}
 Entity #        Title
    22626                                                                                     
{END LEGEND}




 n o d a l   p r i n t   o u t   f o r   t i m e  s t e p       1                              ( at time 0.0000000E+00 )

 nodal point  x-disp     y-disp      z-disp      x-vel       y-vel       z-vel      x-accl      y-accl      z-accl      x-coor      y-coor      z-coor
    22626  0.00000E+00 0.00000E+00 0.00000E+00 0.00000E+00 0.00000E+00-3.12000E+00 0.00000E+00 0.00000E+00 0.00000E+00 4.79642E+01-2.20298E+01 7.33850E+00



 n o d a l   p r i n t   o u t   f o r   t i m e  s t e p       1                              ( at time 0.0000000E+00 )

 nodal point  x-rot      y-rot       z-rot       x-rot vel   y-rot vel   z-rot vel   x-rot acc   y-rot acc   z-rot acc
    22626  0.00000E+00 0.00000E+00 0.00000E+00 0.00000E+00 0.00000E+00 0.00000E+00 0.00000E+00 0.00000E+00 0.00000E+00



 n o d a l   p r i n t   o u t   f o r   t i m e  s t e p     201                              ( at time 9.9989993E-02 )

 nodal point  x-disp     y-disp      z-disp      x-vel       y-vel       z-vel      x-accl      y-accl      z-accl      x-coor      y-coor      z-coor
    22626  8.34160E-07-4.04475E-06-3.12016E-01 4.76657E-05-4.96452E-04-3.12074E+00 4.76705E-04-4.96501E-03-7.42748E-03 4.79642E+01-2.20298E+01 7.02648E+00



 n o d a l   p r i n t   o u t   f o r   t i m e  s t e p     201                              ( at time 9.9989993E-02 )

 nodal point  x-rot      y-rot       z-rot       x-rot vel   y-rot vel   z-rot vel   x-rot acc   y-rot acc   z-rot acc
    22626  9.61002E-09 3.03960E-08 5.26957E-08 1.30652E-06 2.72172E-06 5.21183E-06 1.30665E-05 2.72199E-05 5.21236E-05



 n o d a l   p r i n t   o u t   f o r   t i m e  s t e p     401                              ( at time 1.9997999E-01 )

 nodal point  x-disp     y-disp      z-disp      x-vel       y-vel       z-vel      x-accl      y-accl      z-accl      x-coor      y-coor      z-coor
    22626 -5.12734E-05-5.21535E-04-6.23853E-01-1.09623E-03-1.11140E-02-3.11558E+00-1.14401E-02-1.06186E-01 5.16204E-02 4.79641E+01-2.20303E+01 6.71465E+00



 n o d a l   p r i n t   o u t   f o r   t i m e  s t e p     401                              ( at time 1.9997999E-01 )

 nodal point  x-rot      y-rot       z-rot       x-rot vel   y-rot vel   z-rot vel   x-rot acc   y-rot acc   z-rot acc
    22626  4.60578E-07 1.32963E-06 2.50203E-06 2.65848E-06 1.90742E-05 3.50032E-05 1.35210E-05 1.63541E-04 2.97944E-04



 n o d a l   p r i n t   o u t   f o r   t i m e  s t e p     601                              ( at time 2.9996998E-01 )

 nodal point  x-disp     y-disp      z-disp      x-vel       y-vel       z-vel      x-accl      y-accl      z-accl      x-coor      y-coor      z-coor
    22626 -2.45815E-05-1.97633E-03-9.35238E-01 1.66082E-03-1.60425E-02-3.11415E+00 2.75733E-02-4.92903E-02 1.43089E-02 4.79642E+01-2.20318E+01 6.40326E+00



 n o d a l   p r i n t   o u t   f o r   t i m e  s t e p     601                              ( at time 2.9996998E-01 )

 nodal point  x-rot      y-rot       z-rot       x-rot vel   y-rot vel   z-rot vel   x-rot acc   y-rot acc   z-rot acc
    22626  6.75318E-07 2.41173E-06 4.82783E-06 8.31855E-06 5.38030E-06 1.46259E-05 5.66064E-05-1.36953E-04-2.03794E-04



 n o d a l   p r i n t   o u t   f o r   t i m e  s t e p     801                              ( at time 3.9995997E-01 )

 nodal point  x-disp     y-disp      z-disp      x-vel       y-vel       z-vel      x-accl      y-accl      z-accl      x-coor      y-coor      z-coor
    22626  5.94576E-05-3.57404E-03-1.24663E+00 1.95289E-04-1.73899E-02-3.11353E+00-1.46568E-02-1.34746E-02 6.17089E-03 4.79642E+01-2.20334E+01 6.09187E+00



 n o d a l   p r i n t   o u t   f o r   t i m e  s t e p     801                              ( at time 3.9995997E-01 )

 nodal point  x-rot      y-rot       z-rot       x-rot vel   y-rot vel   z-rot vel   x-rot acc   y-rot acc   z-rot acc
    22626  1.58212E-06 3.68071E-06 6.68141E-06 6.29781E-06 2.41856E-05 3.82941E-05-2.02094E-05 1.88071E-04 2.36706E-04



 n o d a l   p r i n t   o u t   f o r   t i m e  s t e p    1001                              ( at time 4.9994997E-01 )

 nodal point  x-disp     y-disp      z-disp      x-vel       y-vel       z-vel      x-accl      y-accl      z-accl      x-coor      y-coor      z-coor
    22626  7.26885E-05-5.63136E-03-1.55782E+00 8.88189E-04-2.38439E-02-3.11085E+00 6.92969E-03-6.45468E-02 2.68415E-02 4.79643E+01-2.20354E+01 5.78068E+00



 n o d a l   p r i n t   o u t   f o r   t i m e  s t e p    1001                              ( at time 4.9994997E-01 )

 nodal point  x-rot      y-rot       z-rot       x-rot vel   y-rot vel   z-rot vel   x-rot acc   y-rot acc   z-rot acc
    22626  1.49473E-06 6.64783E-06 1.18362E-05-4.89093E-06 4.37377E-05 7.19133E-05-1.11899E-04 1.95541E-04 3.36226E-04



 n o d a l   p r i n t   o u t   f o r   t i m e  s t e p    1201                              ( at time 5.9993996E-01 )

 nodal point  x-disp     y-disp      z-disp      x-vel       y-vel       z-vel      x-accl      y-accl      z-accl      x-coor      y-coor      z-coor
    22626  5.29134E-05-8.13731E-03-1.86888E+00-5.67873E-04-2.61290E-02-3.11084E+00-1.45621E-02-2.28535E-02 1.23990E-04 4.79642E+01-2.20379E+01 5.46962E+00



 n o d a l   p r i n t   o u t   f o r   t i m e  s t e p    1201                              ( at time 5.9993996E-01 )

 nodal point  x-rot      y-rot       z-rot       x-rot vel   y-rot vel   z-rot vel   x-rot acc   y-rot acc   z-rot acc
    22626  1.26495E-06 9.87531E-06 1.77372E-05-2.16613E-06 2.63332E-05 5.29382E-05 2.72508E-05-1.74062E-04-1.89770E-04



 n o d a l   p r i n t   o u t   f o r   t i m e  s t e p    1401                              ( at time 6.9992995E-01 )

 nodal point  x-disp     y-disp      z-disp      x-vel       y-vel       z-vel      x-accl      y-accl      z-accl      x-coor      y-coor      z-coor
    22626  1.96872E-05-1.10206E-02-2.17976E+00 7.17879E-04-3.22422E-02-3.10770E+00 1.28588E-02-6.11378E-02 3.14005E-02 4.79642E+01-2.20408E+01 5.15874E+00



 n o d a l   p r i n t   o u t   f o r   t i m e  s t e p    1401                              ( at time 6.9992995E-01 )

 nodal point  x-rot      y-rot       z-rot       x-rot vel   y-rot vel   z-rot vel   x-rot acc   y-rot acc   z-rot acc
    22626  1.10156E-06 1.30693E-05 2.27051E-05-2.40441E-06 3.78488E-05 5.94549E-05-2.38308E-06 1.15167E-04 6.51741E-05



 n o d a l   p r i n t   o u t   f o r   t i m e  s t e p    1601                              ( at time 7.9991994E-01 )

 nodal point  x-disp     y-disp      z-disp      x-vel       y-vel       z-vel      x-accl      y-accl      z-accl      x-coor      y-coor      z-coor
    22626  1.33090E-04-1.45706E-02-2.49038E+00 1.36673E-03-3.68123E-02-3.10600E+00 6.48916E-03-4.57053E-02 1.69556E-02 4.79643E+01-2.20444E+01 4.84812E+00



 n o d a l   p r i n t   o u t   f o r   t i m e  s t e p    1601                              ( at time 7.9991994E-01 )

 nodal point  x-rot      y-rot       z-rot       x-rot vel   y-rot vel   z-rot vel   x-rot acc   y-rot acc   z-rot acc
    22626  1.00788E-06 1.72062E-05 2.96650E-05 3.01432E-06 4.87734E-05 7.63321E-05 5.41927E-05 1.09257E-04 1.68788E-04



 n o d a l   p r i n t   o u t   f o r   t i m e  s t e p    1801                              ( at time 8.9990994E-01 )

 nodal point  x-disp     y-disp      z-disp      x-vel       y-vel       z-vel      x-accl      y-accl      z-accl      x-coor      y-coor      z-coor
    22626  2.07441E-04-1.82137E-02-2.80104E+00-5.05990E-04-3.64323E-02-3.10742E+00-1.87291E-02 3.80048E-03-1.42064E-02 4.79644E+01-2.20480E+01 4.53746E+00



 n o d a l   p r i n t   o u t   f o r   t i m e  s t e p    1801                              ( at time 8.9990994E-01 )

 nodal point  x-rot      y-rot       z-rot       x-rot vel   y-rot vel   z-rot vel   x-rot acc   y-rot acc   z-rot acc
    22626  1.02378E-06 2.13217E-05 3.66590E-05-1.92695E-06 3.80247E-05 6.84444E-05-4.94177E-05-1.07498E-04-7.88843E-05



 n o d a l   p r i n t   o u t   f o r   t i m e  s t e p    2001                              ( at time 9.9989993E-01 )

 nodal point  x-disp     y-disp      z-disp      x-vel       y-vel       z-vel      x-accl      y-accl      z-accl      x-coor      y-coor      z-coor
    22626  1.09847E-04-2.19272E-02-3.11175E+00-8.15376E-04-3.83962E-02-3.10755E+00-3.09417E-03-1.96415E-02-1.29713E-03 4.79643E+01-2.20517E+01 4.22675E+00



 n o d a l   p r i n t   o u t   f o r   t i m e  s t e p    2001                              ( at time 9.9989993E-01 )

 nodal point  x-rot      y-rot       z-rot       x-rot vel   y-rot vel   z-rot vel   x-rot acc   y-rot acc   z-rot acc
    22626  8.55835E-07 2.55348E-05 4.38540E-05-9.63912E-07 4.62661E-05 8.60910E-05 9.63136E-06 8.24225E-05 1.76483E-04



 n o d a l   p r i n t   o u t   f o r   t i m e  s t e p    2201                              ( at time 1.0998899E+00 )

 nodal point  x-disp     y-disp      z-disp      x-vel       y-vel       z-vel      x-accl      y-accl      z-accl      x-coor      y-coor      z-coor
    22626  9.19536E-05-2.58755E-02-3.42246E+00-2.14388E-04-4.02524E-02-3.10712E+00 6.01048E-03-1.85640E-02 4.32058E-03 4.79643E+01-2.20557E+01 3.91605E+00



 n o d a l   p r i n t   o u t   f o r   t i m e  s t e p    2201                              ( at time 1.0998899E+00 )

 nodal point  x-rot      y-rot       z-rot       x-rot vel   y-rot vel   z-rot vel   x-rot acc   y-rot acc   z-rot acc
    22626  9.32389E-07 3.03138E-05 5.24822E-05 5.26783E-06 4.65461E-05 7.51998E-05 6.23237E-05 2.79974E-06-1.08923E-04



 n o d a l   p r i n t   o u t   f o r   t i m e  s t e p    2401                              ( at time 1.1998799E+00 )

 nodal point  x-disp     y-disp      z-disp      x-vel       y-vel       z-vel      x-accl      y-accl      z-accl      x-coor      y-coor      z-coor
    22626  1.34461E-04-2.98895E-02-3.73320E+00 7.36214E-04-3.98037E-02-3.10850E+00 9.50697E-03 4.48793E-03-1.37653E-02 4.79643E+01-2.20597E+01 3.60531E+00



 n o d a l   p r i n t   o u t   f o r   t i m e  s t e p    2401                              ( at time 1.1998799E+00 )

 nodal point  x-rot      y-rot       z-rot       x-rot vel   y-rot vel   z-rot vel   x-rot acc   y-rot acc   z-rot acc
    22626  1.33544E-06 3.44681E-05 5.93330E-05 5.02776E-06 3.99002E-05 6.55468E-05-2.40091E-06-6.64659E-05-9.65396E-05



 n o d a l   p r i n t   o u t   f o r   t i m e  s t e p    2601                              ( at time 1.2998699E+00 )

 nodal point  x-disp     y-disp      z-disp      x-vel       y-vel       z-vel      x-accl      y-accl      z-accl      x-coor      y-coor      z-coor
    22626  1.46287E-04-3.37297E-02-4.04413E+00-4.18870E-04-3.65898E-02-3.11133E+00-1.15520E-02 3.21415E-02-2.82960E-02 4.79643E+01-2.20635E+01 3.29437E+00



 n o d a l   p r i n t   o u t   f o r   t i m e  s t e p    2601                              ( at time 1.2998699E+00 )

 nodal point  x-rot      y-rot       z-rot       x-rot vel   y-rot vel   z-rot vel   x-rot acc   y-rot acc   z-rot acc
    22626  1.63802E-06 3.85468E-05 6.61386E-05-2.50953E-06 4.54408E-05 7.98645E-05-7.53804E-05 5.54121E-05 1.43192E-04



 n o d a l   p r i n t   o u t   f o r   t i m e  s t e p    2801                              ( at time 1.3998599E+00 )

 nodal point  x-disp     y-disp      z-disp      x-vel       y-vel       z-vel      x-accl      y-accl      z-accl      x-coor      y-coor      z-coor
    22626  3.22887E-05-3.71233E-02-4.35543E+00-1.30752E-03-3.14370E-02-3.11511E+00-8.88739E-03 5.15331E-02-3.78217E-02 4.79642E+01-2.20669E+01 2.98307E+00



 n o d a l   p r i n t   o u t   f o r   t i m e  s t e p    2801                              ( at time 1.3998599E+00 )

 nodal point  x-rot      y-rot       z-rot       x-rot vel   y-rot vel   z-rot vel   x-rot acc   y-rot acc   z-rot acc
    22626  1.20420E-06 4.29523E-05 7.39931E-05-4.50456E-06 4.44583E-05 7.32812E-05-1.99523E-05-9.82651E-06-6.58400E-05



 n o d a l   p r i n t   o u t   f o r   t i m e  s t e p    3001                              ( at time 1.4998499E+00 )

 nodal point  x-disp     y-disp      z-disp      x-vel       y-vel       z-vel      x-accl      y-accl      z-accl      x-coor      y-coor      z-coor
    22626 -7.75895E-05-4.01680E-02-4.66702E+00-4.94161E-04-2.97688E-02-3.11713E+00 8.13440E-03 1.66845E-02-2.02652E-02 4.79641E+01-2.20700E+01 2.67148E+00



 n o d a l   p r i n t   o u t   f o r   t i m e  s t e p    3001                              ( at time 1.4998499E+00 )

 nodal point  x-rot      y-rot       z-rot       x-rot vel   y-rot vel   z-rot vel   x-rot acc   y-rot acc   z-rot acc
    22626  8.26785E-07 4.68544E-05 8.05246E-05-1.59118E-06 3.19099E-05 5.70415E-05 2.91367E-05-1.25496E-04-1.62413E-04



 n o d a l   p r i n t   o u t   f o r   t i m e  s t e p    3201                              ( at time 1.5998399E+00 )

 nodal point  x-disp     y-disp      z-disp      x-vel       y-vel       z-vel      x-accl      y-accl      z-accl      x-coor      y-coor      z-coor
    22626 -1.24492E-04-4.30584E-02-4.97879E+00-7.01714E-04-2.75114E-02-3.11940E+00-2.07574E-03 2.25753E-02-2.26186E-02 4.79641E+01-2.20728E+01 2.35971E+00



 n o d a l   p r i n t   o u t   f o r   t i m e  s t e p    3201                              ( at time 1.5998399E+00 )

 nodal point  x-rot      y-rot       z-rot       x-rot vel   y-rot vel   z-rot vel   x-rot acc   y-rot acc   z-rot acc
    22626  5.15609E-07 4.99136E-05 8.53990E-05-1.48943E-06 3.26218E-05 4.79130E-05 1.01760E-06 7.12038E-06-9.12941E-05



 n o d a l   p r i n t   o u t   f o r   t i m e  s t e p    3401                              ( at time 1.6998299E+00 )

 nodal point  x-disp     y-disp      z-disp      x-vel       y-vel       z-vel      x-accl      y-accl      z-accl      x-coor      y-coor      z-coor
    22626 -2.10972E-04-4.55728E-02-5.29089E+00-1.12725E-03-2.24402E-02-3.12325E+00-4.25580E-03 5.07176E-02-3.85609E-02 4.79640E+01-2.20754E+01 2.04762E+00



 n o d a l   p r i n t   o u t   f o r   t i m e  s t e p    3401                              ( at time 1.6998299E+00 )

 nodal point  x-rot      y-rot       z-rot       x-rot vel   y-rot vel   z-rot vel   x-rot acc   y-rot acc   z-rot acc
    22626  3.01602E-07 5.29977E-05 9.04363E-05-3.74542E-06 2.97665E-05 4.78229E-05-2.25622E-05-2.85567E-05-9.01618E-07



 n o d a l   p r i n t   o u t   f o r   t i m e  s t e p    3601                              ( at time 1.7998199E+00 )

 nodal point  x-disp     y-disp      z-disp      x-vel       y-vel       z-vel      x-accl      y-accl      z-accl      x-coor      y-coor      z-coor
    22626 -3.12452E-04-4.75635E-02-5.60339E+00-1.33074E-03-1.77151E-02-3.12732E+00-2.03508E-03 4.72562E-02-4.06926E-02 4.79639E+01-2.20774E+01 1.73511E+00



 n o d a l   p r i n t   o u t   f o r   t i m e  s t e p    3601                              ( at time 1.7998199E+00 )

 nodal point  x-rot      y-rot       z-rot       x-rot vel   y-rot vel   z-rot vel   x-rot acc   y-rot acc   z-rot acc
    22626  1.54289E-07 5.57863E-05 9.51942E-05-4.59978E-07 2.14379E-05 4.21285E-05 3.28578E-05-8.32939E-05-5.69491E-05



 n o d a l   p r i n t   o u t   f o r   t i m e  s t e p    3801                              ( at time 1.8998099E+00 )

 nodal point  x-disp     y-disp      z-disp      x-vel       y-vel       z-vel      x-accl      y-accl      z-accl      x-coor      y-coor      z-coor
    22626 -5.00021E-04-4.92010E-02-5.91621E+00-2.16580E-03-1.51664E-02-3.12982E+00-8.35147E-03 2.54890E-02-2.49840E-02 4.79637E+01-2.20790E+01 1.42229E+00



 n o d a l   p r i n t   o u t   f o r   t i m e  s t e p    3801                              ( at time 1.8998099E+00 )

 nodal point  x-rot      y-rot       z-rot       x-rot vel   y-rot vel   z-rot vel   x-rot acc   y-rot acc   z-rot acc
    22626 -9.02799E-08 5.76849E-05 9.86103E-05 1.61875E-06 1.56108E-05 2.76358E-05 2.07894E-05-5.82769E-05-1.44942E-04



 n o d a l   p r i n t   o u t   f o r   t i m e  s t e p    4001                              ( at time 1.9997999E+00 )

 nodal point  x-disp     y-disp      z-disp      x-vel       y-vel       z-vel      x-accl      y-accl      z-accl      x-coor      y-coor      z-coor
    22626 -6.73369E-04-5.05915E-02-6.22929E+00-1.64349E-03-1.28087E-02-3.13210E+00 5.22360E-03 2.35791E-02-2.27999E-02 4.79635E+01-2.20804E+01 1.10921E+00



 n o d a l   p r i n t   o u t   f o r   t i m e  s t e p    4001                              ( at time 1.9997999E+00 )

 nodal point  x-rot      y-rot       z-rot       x-rot vel   y-rot vel   z-rot vel   x-rot acc   y-rot acc   z-rot acc
    22626  1.12119E-07 5.90228E-05 1.00926E-04 3.28884E-06 1.32253E-05 2.01938E-05 1.67026E-05-2.38575E-05-7.44277E-05



 n o d a l   p r i n t   o u t   f o r   t i m e  s t e p    4201                              ( at time 2.0997899E+00 )

 nodal point  x-disp     y-disp      z-disp      x-vel       y-vel       z-vel      x-accl      y-accl      z-accl      x-coor      y-coor      z-coor
    22626 -8.42426E-04-5.16825E-02-6.54262E+00-1.86122E-03-9.14986E-03-3.13519E+00-2.17743E-03 3.65923E-02-3.09188E-02 4.79633E+01-2.20815E+01 7.95876E-01



 n o d a l   p r i n t   o u t   f o r   t i m e  s t e p    4201                              ( at time 2.0997899E+00 )

 nodal point  x-rot      y-rot       z-rot       x-rot vel   y-rot vel   z-rot vel   x-rot acc   y-rot acc   z-rot acc
    22626  3.95966E-07 5.96677E-05 1.02016E-04-1.31039E-06 3.33736E-06 1.50587E-06-4.59969E-05-9.88892E-05-1.86898E-04



 n o d a l   p r i n t   o u t   f o r   t i m e  s t e p    4401                              ( at time 2.1997798E+00 )

 nodal point  x-disp     y-disp      z-disp      x-vel       y-vel       z-vel      x-accl      y-accl      z-accl      x-coor      y-coor      z-coor
    22626 -1.08448E-03-5.23691E-02-6.85629E+00-2.77592E-03-4.41688E-03-3.13894E+00-9.14797E-03 4.73346E-02-3.75213E-02 4.79631E+01-2.20822E+01 4.82212E-01



 n o d a l   p r i n t   o u t   f o r   t i m e  s t e p    4401                              ( at time 2.1997798E+00 )

 nodal point  x-rot      y-rot       z-rot       x-rot vel   y-rot vel   z-rot vel   x-rot acc   y-rot acc   z-rot acc
    22626  2.17685E-07 5.96603E-05 1.01947E-04-1.25531E-06-2.13539E-06-3.06249E-06 5.50920E-07-5.47331E-05-4.56883E-05



 n o d a l   p r i n t   o u t   f o r   t i m e  s t e p    4601                              ( at time 2.2997698E+00 )

 nodal point  x-disp     y-disp      z-disp      x-vel       y-vel       z-vel      x-accl      y-accl      z-accl      x-coor      y-coor      z-coor
    22626 -1.39338E-03-5.25645E-02-7.17034E+00-3.50886E-03-8.87343E-05-3.14228E+00-7.33009E-03 4.32857E-02-3.33533E-02 4.79628E+01-2.20824E+01 1.68162E-01



 n o d a l   p r i n t   o u t   f o r   t i m e  s t e p    4601                              ( at time 2.2997698E+00 )

 nodal point  x-rot      y-rot       z-rot       x-rot vel   y-rot vel   z-rot vel   x-rot acc   y-rot acc   z-rot acc
    22626 -1.73954E-07 5.93472E-05 1.01574E-04-4.54188E-06-9.71094E-06-1.29315E-05-3.28690E-05-7.57629E-05-9.87003E-05



 n o d a l   p r i n t   o u t   f o r   t i m e  s t e p    4801                              ( at time 2.3997598E+00 )

 nodal point  x-disp     y-disp      z-disp      x-vel       y-vel       z-vel      x-accl      y-accl      z-accl      x-coor      y-coor      z-coor
    22626 -1.76218E-03-5.24774E-02-7.48464E+00-3.60819E-03 1.86841E-03-3.14441E+00-9.93412E-04 1.95734E-02-2.13096E-02 4.79624E+01-2.20823E+01-1.46135E-01



 n o d a l   p r i n t   o u t   f o r   t i m e  s t e p    4801                              ( at time 2.3997598E+00 )

 nodal point  x-rot      y-rot       z-rot       x-rot vel   y-rot vel   z-rot vel   x-rot acc   y-rot acc   z-rot acc
    22626 -7.22577E-07 5.80836E-05 9.90914E-05-5.99166E-06-1.62523E-05-3.39431E-05-1.44992E-05-6.54207E-05-2.10137E-04



 n o d a l   p r i n t   o u t   f o r   t i m e  s t e p    5001                              ( at time 2.4997498E+00 )

 nodal point  x-disp     y-disp      z-disp      x-vel       y-vel       z-vel      x-accl      y-accl      z-accl      x-coor      y-coor      z-coor
    22626 -2.15545E-03-5.21704E-02-7.79916E+00-4.23981E-03 4.96361E-03-3.14710E+00-6.31684E-03 3.09551E-02-2.69750E-02 4.79620E+01-2.20820E+01-4.60662E-01



 n o d a l   p r i n t   o u t   f o r   t i m e  s t e p    5001                              ( at time 2.4997498E+00 )

 nodal point  x-rot      y-rot       z-rot       x-rot vel   y-rot vel   z-rot vel   x-rot acc   y-rot acc   z-rot acc
    22626 -1.17107E-06 5.58507E-05 9.51243E-05-4.07800E-06-2.63475E-05-4.86979E-05 1.91384E-05-1.00961E-04-1.47563E-04



 n o d a l   p r i n t   o u t   f o r   t i m e  s t e p    5201                              ( at time 2.5997398E+00 )

 nodal point  x-disp     y-disp      z-disp      x-vel       y-vel       z-vel      x-accl      y-accl      z-accl      x-coor      y-coor      z-coor
    22626 -2.62963E-03-5.14565E-02-8.11403E+00-5.26068E-03 9.26736E-03-3.15069E+00-1.02097E-02 4.30418E-02-3.59047E-02 4.79616E+01-2.20812E+01-7.75527E-01



 n o d a l   p r i n t   o u t   f o r   t i m e  s t e p    5201                              ( at time 2.5997398E+00 )

 nodal point  x-rot      y-rot       z-rot       x-rot vel   y-rot vel   z-rot vel   x-rot acc   y-rot acc   z-rot acc
    22626 -1.54173E-06 5.27445E-05 8.96846E-05-4.80192E-06-3.57810E-05-6.22647E-05-7.23985E-06-9.43444E-05-1.35681E-04



 n o d a l   p r i n t   o u t   f o r   t i m e  s t e p    5401                              ( at time 2.6997298E+00 )

 nodal point  x-disp     y-disp      z-disp      x-vel       y-vel       z-vel      x-accl      y-accl      z-accl      x-coor      y-coor      z-coor
    22626 -3.19920E-03-5.03220E-02-8.42925E+00-6.43249E-03 1.29700E-02-3.15422E+00-1.17193E-02 3.70299E-02-3.52680E-02 4.79610E+01-2.20801E+01-1.09074E+00



 n o d a l   p r i n t   o u t   f o r   t i m e  s t e p    5401                              ( at time 2.6997298E+00 )

 nodal point  x-rot      y-rot       z-rot       x-rot vel   y-rot vel   z-rot vel   x-rot acc   y-rot acc   z-rot acc
    22626 -1.84022E-06 4.89959E-05 8.31807E-05-1.87797E-06-4.13334E-05-6.67313E-05 2.92423E-05-5.55298E-05-4.46709E-05



 n o d a l   p r i n t   o u t   f o r   t i m e  s t e p    5601                              ( at time 2.7997198E+00 )

 nodal point  x-disp     y-disp      z-disp      x-vel       y-vel       z-vel      x-accl      y-accl      z-accl      x-coor      y-coor      z-coor
    22626 -3.91311E-03-4.88978E-02-8.74475E+00-7.68876E-03 1.51517E-02-3.15635E+00-1.25639E-02 2.18195E-02-2.13072E-02 4.79603E+01-2.20787E+01-1.40625E+00



 n o d a l   p r i n t   o u t   f o r   t i m e  s t e p    5601                              ( at time 2.7997198E+00 )

 nodal point  x-rot      y-rot       z-rot       x-rot vel   y-rot vel   z-rot vel   x-rot acc   y-rot acc   z-rot acc
    22626 -1.97180E-06 4.40995E-05 7.50720E-05 4.26356E-07-5.75385E-05-9.88172E-05 2.30456E-05-1.62067E-04-3.20891E-04



 n o d a l   p r i n t   o u t   f o r   t i m e  s t e p    5801                              ( at time 2.8997098E+00 )

 nodal point  x-disp     y-disp      z-disp      x-vel       y-vel       z-vel      x-accl      y-accl      z-accl      x-coor      y-coor      z-coor
    22626 -4.68535E-03-4.73296E-02-9.06045E+00-7.81810E-03 1.61388E-02-3.15803E+00-1.29355E-03 9.87183E-03-1.68269E-02 4.79595E+01-2.20771E+01-1.72194E+00



 n o d a l   p r i n t   o u t   f o r   t i m e  s t e p    5801                              ( at time 2.8997098E+00 )

 nodal point  x-rot      y-rot       z-rot       x-rot vel   y-rot vel   z-rot vel   x-rot acc   y-rot acc   z-rot acc
    22626 -1.77350E-06 3.76562E-05 6.41595E-05 2.42018E-06-6.65034E-05-1.15412E-04 1.99403E-05-8.96586E-05-1.65961E-04



 n o d a l   p r i n t   o u t   f o r   t i m e  s t e p    6001                              ( at time 2.9996998E+00 )

 nodal point  x-disp     y-disp      z-disp      x-vel       y-vel       z-vel      x-accl      y-accl      z-accl      x-coor      y-coor      z-coor
    22626 -5.50575E-03-4.55980E-02-9.37632E+00-8.83581E-03 1.86296E-02-3.16041E+00-1.01782E-02 2.49107E-02-2.38061E-02 4.79587E+01-2.20754E+01-2.03782E+00



 n o d a l   p r i n t   o u t   f o r   t i m e  s t e p    6001                              ( at time 2.9996998E+00 )

 nodal point  x-rot      y-rot       z-rot       x-rot vel   y-rot vel   z-rot vel   x-rot acc   y-rot acc   z-rot acc
    22626 -1.54228E-06 3.07934E-05 5.25918E-05 5.60430E-07-7.09057E-05-1.21019E-04-1.85994E-05-4.40273E-05-5.60835E-05



 n o d a l   p r i n t   o u t   f o r   t i m e  s t e p    6201                              ( at time 3.0996898E+00 )

 nodal point  x-disp     y-disp      z-disp      x-vel       y-vel       z-vel      x-accl      y-accl      z-accl      x-coor      y-coor      z-coor
    22626 -6.47079E-03-4.36170E-02-9.69245E+00-1.04217E-02 2.05604E-02-3.16240E+00-1.58602E-02 1.93093E-02-1.99052E-02 4.79577E+01-2.20734E+01-2.35395E+00



 n o d a l   p r i n t   o u t   f o r   t i m e  s t e p    6201                              ( at time 3.0996898E+00 )

 nodal point  x-rot      y-rot       z-rot       x-rot vel   y-rot vel   z-rot vel   x-rot acc   y-rot acc   z-rot acc
    22626 -1.58589E-06 2.34348E-05 3.99644E-05-2.01807E-06-7.58980E-05-1.33601E-04-2.57876E-05-4.99280E-05-1.25825E-04



 n o d a l   p r i n t   o u t   f o r   t i m e  s t e p    6401                              ( at time 3.1996798E+00 )

 nodal point  x-disp     y-disp      z-disp      x-vel       y-vel       z-vel      x-accl      y-accl      z-accl      x-coor      y-coor      z-coor
    22626 -7.54205E-03-4.15867E-02-1.00087E+01-1.09304E-02 1.97554E-02-3.16298E+00-5.08799E-03-8.05018E-03-5.71069E-03 4.79566E+01-2.20714E+01-2.67020E+00



 n o d a l   p r i n t   o u t   f o r   t i m e  s t e p    6401                              ( at time 3.1996798E+00 )

 nodal point  x-rot      y-rot       z-rot       x-rot vel   y-rot vel   z-rot vel   x-rot acc   y-rot acc   z-rot acc
    22626 -1.71719E-06 1.53618E-05 2.63682E-05-1.55540E-06-8.51849E-05-1.43777E-04 4.62719E-06-9.28777E-05-1.01769E-04



 n o d a l   p r i n t   o u t   f o r   t i m e  s t e p    6601                              ( at time 3.2996698E+00 )

 nodal point  x-disp     y-disp      z-disp      x-vel       y-vel       z-vel      x-accl      y-accl      z-accl      x-coor      y-coor      z-coor
    22626 -8.64798E-03-3.97071E-02-1.03249E+01-1.11849E-02 1.78257E-02-3.16270E+00-2.54458E-03-1.92992E-02 2.77786E-03 4.79555E+01-2.20695E+01-2.98645E+00



 n o d a l   p r i n t   o u t   f o r   t i m e  s t e p    6601                              ( at time 3.2996698E+00 )

 nodal point  x-rot      y-rot       z-rot       x-rot vel   y-rot vel   z-rot vel   x-rot acc   y-rot acc   z-rot acc
    22626 -1.98350E-06 6.66732E-06 1.16039E-05-2.35802E-06-8.94483E-05-1.51422E-04-8.02701E-06-4.26388E-05-7.64607E-05



 n o d a l   p r i n t   o u t   f o r   t i m e  s t e p    6801                              ( at time 3.3996598E+00 )

 nodal point  x-disp     y-disp      z-disp      x-vel       y-vel       z-vel      x-accl      y-accl      z-accl      x-coor      y-coor      z-coor
    22626 -9.79839E-03-3.80159E-02-1.06412E+01-1.16996E-02 1.60375E-02-3.16262E+00-5.14824E-03-1.78842E-02 7.48708E-04 4.79544E+01-2.20678E+01-3.30268E+00



 n o d a l   p r i n t   o u t   f o r   t i m e  s t e p    6801                              ( at time 3.3996598E+00 )

 nodal point  x-rot      y-rot       z-rot       x-rot vel   y-rot vel   z-rot vel   x-rot acc   y-rot acc   z-rot acc
    22626 -2.03073E-06-2.22598E-06-3.68988E-06-2.57179E-06-8.80649E-05-1.53207E-04-2.13795E-06 1.38361E-05-1.78565E-05



 n o d a l   p r i n t   o u t   f o r   t i m e  s t e p    7001                              ( at time 3.4996498E+00 )

 nodal point  x-disp     y-disp      z-disp      x-vel       y-vel       z-vel      x-accl      y-accl      z-accl      x-coor      y-coor      z-coor
    22626 -1.09962E-02-3.64864E-02-1.09574E+01-1.23244E-02 1.44963E-02-3.16282E+00-6.24831E-03-1.54130E-02-1.98146E-03 4.79532E+01-2.20663E+01-3.61893E+00



 n o d a l   p r i n t   o u t   f o r   t i m e  s t e p    7001                              ( at time 3.4996498E+00 )

 nodal point  x-rot      y-rot       z-rot       x-rot vel   y-rot vel   z-rot vel   x-rot acc   y-rot acc   z-rot acc
    22626 -2.02026E-06-1.08885E-05-1.85210E-05 6.00608E-07-8.71880E-05-1.47508E-04 3.17272E-05 8.76973E-06 5.69996E-05



 n o d a l   p r i n t   o u t   f o r   t i m e  s t e p    7201                              ( at time 3.5996397E+00 )

 nodal point  x-disp     y-disp      z-disp      x-vel       y-vel       z-vel      x-accl      y-accl      z-accl      x-coor      y-coor      z-coor
    22626 -1.22510E-02-3.51436E-02-1.12737E+01-1.24059E-02 1.20876E-02-3.16260E+00-8.14720E-04-2.40896E-02 2.17698E-03 4.79519E+01-2.20649E+01-3.93517E+00



 n o d a l   p r i n t   o u t   f o r   t i m e  s t e p    7201                              ( at time 3.5996397E+00 )

 nodal point  x-rot      y-rot       z-rot       x-rot vel   y-rot vel   z-rot vel   x-rot acc   y-rot acc   z-rot acc
    22626 -2.02813E-06-1.95152E-05-3.30098E-05 2.06234E-06-8.47847E-05-1.38629E-04 1.46188E-05 2.40356E-05 8.87937E-05



 n o d a l   p r i n t   o u t   f o r   t i m e  s t e p    7401                              ( at time 3.6996297E+00 )

 nodal point  x-disp     y-disp      z-disp      x-vel       y-vel       z-vel      x-accl      y-accl      z-accl      x-coor      y-coor      z-coor
    22626 -1.34809E-02-3.41000E-02-1.15899E+01-1.21476E-02 8.70175E-03-3.16159E+00 2.58258E-03-3.38618E-02 1.01386E-02 4.79507E+01-2.20639E+01-4.25135E+00



 n o d a l   p r i n t   o u t   f o r   t i m e  s t e p    7401                              ( at time 3.6996297E+00 )

 nodal point  x-rot      y-rot       z-rot       x-rot vel   y-rot vel   z-rot vel   x-rot acc   y-rot acc   z-rot acc
    22626 -1.77244E-06-2.78047E-05-4.68047E-05 3.77510E-06-8.13032E-05-1.36459E-04 1.71294E-05 3.48180E-05 2.17082E-05



 n o d a l   p r i n t   o u t   f o r   t i m e  s t e p    7601                              ( at time 3.7996197E+00 )

 nodal point  x-disp     y-disp      z-disp      x-vel       y-vel       z-vel      x-accl      y-accl      z-accl      x-coor      y-coor      z-coor
    22626 -1.46659E-02-3.33675E-02-1.19059E+01-1.15891E-02 6.00513E-03-3.16089E+00 5.58540E-03-2.69690E-02 7.00306E-03 4.79495E+01-2.20632E+01-4.56744E+00



 n o d a l   p r i n t   o u t   f o r   t i m e  s t e p    7601                              ( at time 3.7996197E+00 )

 nodal point  x-rot      y-rot       z-rot       x-rot vel   y-rot vel   z-rot vel   x-rot acc   y-rot acc   z-rot acc
    22626 -1.30932E-06-3.56221E-05-6.00760E-05 5.29365E-06-7.25051E-05-1.22011E-04 1.51870E-05 8.79898E-05 1.44494E-04



 n o d a l   p r i n t   o u t   f o r   t i m e  s t e p    7801                              ( at time 3.8996097E+00 )

 nodal point  x-disp     y-disp      z-disp      x-vel       y-vel       z-vel      x-accl      y-accl      z-accl      x-coor      y-coor      z-coor
    22626 -1.57932E-02-3.28667E-02-1.22220E+01-1.09464E-02 4.21720E-03-3.16080E+00 6.42843E-03-1.78811E-02 8.48854E-04 4.79484E+01-2.20627E+01-4.88349E+00



 n o d a l   p r i n t   o u t   f o r   t i m e  s t e p    7801                              ( at time 3.8996097E+00 )

 nodal point  x-rot      y-rot       z-rot       x-rot vel   y-rot vel   z-rot vel   x-rot acc   y-rot acc   z-rot acc
    22626 -9.45368E-07-4.22236E-05-7.12001E-05 6.16696E-07-5.76867E-05-9.62837E-05-4.67741E-05 1.48199E-04 2.57298E-04



 n o d a l   p r i n t   o u t   f o r   t i m e  s t e p    8001                              ( at time 3.9995997E+00 )

 nodal point  x-disp     y-disp      z-disp      x-vel       y-vel       z-vel      x-accl      y-accl      z-accl      x-coor      y-coor      z-coor
    22626 -1.68607E-02-3.24967E-02-1.25381E+01-1.03919E-02 3.14359E-03-3.16113E+00 5.54481E-03-1.07372E-02-3.28097E-03 4.79473E+01-2.20623E+01-5.19956E+00



 n o d a l   p r i n t   o u t   f o r   t i m e  s t e p    8001                              ( at time 3.9995997E+00 )

 nodal point  x-rot      y-rot       z-rot       x-rot vel   y-rot vel   z-rot vel   x-rot acc   y-rot acc   z-rot acc
    22626 -8.18878E-07-4.74724E-05-7.98850E-05-1.91316E-07-4.66347E-05-7.98722E-05-8.08093E-06 1.10532E-04 1.64132E-04



 n o d a l   p r i n t   o u t   f o r   t i m e  s t e p    8201                              ( at time 4.0995897E+00 )

 nodal point  x-disp     y-disp      z-disp      x-vel       y-vel       z-vel      x-accl      y-accl      z-accl      x-coor      y-coor      z-coor
    22626 -1.78171E-02-3.22973E-02-1.28541E+01-8.59754E-03 6.33913E-04-3.16065E+00 1.79457E-02-2.50992E-02 4.86899E-03 4.79464E+01-2.20621E+01-5.51562E+00



 n o d a l   p r i n t   o u t   f o r   t i m e  s t e p    8201                              ( at time 4.0995897E+00 )

 nodal point  x-rot      y-rot       z-rot       x-rot vel   y-rot vel   z-rot vel   x-rot acc   y-rot acc   z-rot acc
    22626 -8.26002E-07-5.16017E-05-8.68563E-05-9.76844E-08-3.22520E-05-5.64228E-05 9.36404E-07 1.43841E-04 2.34517E-04



 n o d a l   p r i n t   o u t   f o r   t i m e  s t e p    8401                              ( at time 4.1995797E+00 )

 nodal point  x-disp     y-disp      z-disp      x-vel       y-vel       z-vel      x-accl      y-accl      z-accl      x-coor      y-coor      z-coor
    22626 -1.85985E-02-3.23595E-02-1.31701E+01-6.96590E-03-1.79497E-03-3.16005E+00 1.63181E-02-2.42912E-02 6.00399E-03 4.79456E+01-2.20621E+01-5.83162E+00



 n o d a l   p r i n t   o u t   f o r   t i m e  s t e p    8401                              ( at time 4.1995797E+00 )

 nodal point  x-rot      y-rot       z-rot       x-rot vel   y-rot vel   z-rot vel   x-rot acc   y-rot acc   z-rot acc
    22626 -8.09661E-07-5.39804E-05-9.08148E-05-2.85930E-07-1.40408E-05-2.28788E-05-1.88264E-06 1.82130E-04 3.35474E-04



 n o d a l   p r i n t   o u t   f o r   t i m e  s t e p    8601                              ( at time 4.2995697E+00 )

 nodal point  x-disp     y-disp      z-disp      x-vel       y-vel       z-vel      x-accl      y-accl      z-accl      x-coor      y-coor      z-coor
    22626 -1.92318E-02-3.26582E-02-1.34861E+01-5.55661E-03-3.88006E-03-3.15987E+00 1.40943E-02-2.08531E-02 1.78355E-03 4.79450E+01-2.20624E+01-6.14757E+00



 n o d a l   p r i n t   o u t   f o r   t i m e  s t e p    8601                              ( at time 4.2995697E+00 )

 nodal point  x-rot      y-rot       z-rot       x-rot vel   y-rot vel   z-rot vel   x-rot acc   y-rot acc   z-rot acc
    22626 -8.34297E-07-5.44208E-05-9.16726E-05-5.07962E-07 2.98204E-06 4.64686E-06-2.22055E-06 1.70246E-04 2.75284E-04



 n o d a l   p r i n t   o u t   f o r   t i m e  s t e p    8801                              ( at time 4.3995597E+00 )

 nodal point  x-disp     y-disp      z-disp      x-vel       y-vel       z-vel      x-accl      y-accl      z-accl      x-coor      y-coor      z-coor
    22626 -1.96981E-02-3.30868E-02-1.38021E+01-3.80165E-03-4.73576E-03-3.16048E+00 1.75514E-02-8.55785E-03-6.14228E-03 4.79445E+01-2.20629E+01-6.46355E+00



 n o d a l   p r i n t   o u t   f o r   t i m e  s t e p    8801                              ( at time 4.3995597E+00 )

 nodal point  x-rot      y-rot       z-rot       x-rot vel   y-rot vel   z-rot vel   x-rot acc   y-rot acc   z-rot acc
    22626 -8.09128E-07-5.31462E-05-8.93529E-05 7.49504E-07 2.23521E-05 4.01982E-05 1.25759E-05 1.93720E-04 3.55550E-04



 n o d a l   p r i n t   o u t   f o r   t i m e  s t e p    9001                              ( at time 4.4995497E+00 )

 nodal point  x-disp     y-disp      z-disp      x-vel       y-vel       z-vel      x-accl      y-accl      z-accl      x-coor      y-coor      z-coor
    22626 -1.99957E-02-3.36560E-02-1.41181E+01-2.04565E-03-6.99633E-03-3.16010E+00 1.75617E-02-2.26079E-02 3.81506E-03 4.79442E+01-2.20634E+01-6.77956E+00



 n o d a l   p r i n t   o u t   f o r   t i m e  s t e p    9001                              ( at time 4.4995497E+00 )

 nodal point  x-rot      y-rot       z-rot       x-rot vel   y-rot vel   z-rot vel   x-rot acc   y-rot acc   z-rot acc
    22626 -6.73362E-07-4.96833E-05-8.32513E-05 3.50829E-06 4.39588E-05 7.66658E-05 2.75905E-05 2.16088E-04 3.64710E-04



 n o d a l   p r i n t   o u t   f o r   t i m e  s t e p    9201                              ( at time 4.5995397E+00 )

 nodal point  x-disp     y-disp      z-disp      x-vel       y-vel       z-vel      x-accl      y-accl      z-accl      x-coor      y-coor      z-coor
    22626 -2.01067E-02-3.45096E-02-1.44340E+01-1.20963E-04-9.88643E-03-3.15951E+00 1.92488E-02-2.89039E-02 5.91815E-03 4.79441E+01-2.20643E+01-7.09551E+00



 n o d a l   p r i n t   o u t   f o r   t i m e  s t e p    9201                              ( at time 4.5995397E+00 )

 nodal point  x-rot      y-rot       z-rot       x-rot vel   y-rot vel   z-rot vel   x-rot acc   y-rot acc   z-rot acc
    22626 -3.65490E-07-4.44616E-05-7.41411E-05 4.23764E-06 5.99643E-05 1.02953E-04 7.29430E-06 1.60070E-04 2.62897E-04



 n o d a l   p r i n t   o u t   f o r   t i m e  s t e p    9401                              ( at time 4.6995297E+00 )

 nodal point  x-disp     y-disp      z-disp      x-vel       y-vel       z-vel      x-accl      y-accl      z-accl      x-coor      y-coor      z-coor
    22626 -2.00021E-02-3.55795E-02-1.47499E+01 2.12015E-03-1.14982E-02-3.15936E+00 2.24134E-02-1.61196E-02 1.44019E-03 4.79442E+01-2.20654E+01-7.41142E+00



 n o d a l   p r i n t   o u t   f o r   t i m e  s t e p    9401                              ( at time 4.6995297E+00 )

 nodal point  x-rot      y-rot       z-rot       x-rot vel   y-rot vel   z-rot vel   x-rot acc   y-rot acc   z-rot acc
    22626  6.21801E-09-3.73119E-05-6.17081E-05 2.66199E-06 8.46496E-05 1.45519E-04-1.57581E-05 2.46878E-04 4.25700E-04



 n o d a l   p r i n t   o u t   f o r   t i m e  s t e p    9601                              ( at time 4.7995197E+00 )

 nodal point  x-disp     y-disp      z-disp      x-vel       y-vel       z-vel      x-accl      y-accl      z-accl      x-coor      y-coor      z-coor
    22626 -1.96884E-02-3.68031E-02-1.50658E+01 4.16649E-03-1.29188E-02-3.15941E+00 2.04654E-02-1.42072E-02-5.07883E-04 4.79445E+01-2.20666E+01-7.72733E+00



 n o d a l   p r i n t   o u t   f o r   t i m e  s t e p    9601                              ( at time 4.7995197E+00 )

 nodal point  x-rot      y-rot       z-rot       x-rot vel   y-rot vel   z-rot vel   x-rot acc   y-rot acc   z-rot acc
    22626  2.50125E-07-2.75760E-05-4.49878E-05-3.91518E-06 1.11527E-04 1.92574E-04-6.57783E-05 2.68802E-04 4.70605E-04



 n o d a l   p r i n t   o u t   f o r   t i m e  s t e p    9801                              ( at time 4.8995097E+00 )

 nodal point  x-disp     y-disp      z-disp      x-vel       y-vel       z-vel      x-accl      y-accl      z-accl      x-coor      y-coor      z-coor
    22626 -1.91770E-02-3.81549E-02-1.53817E+01 5.91509E-03-1.37875E-02-3.15755E+00 1.74878E-02-8.68801E-03 1.86653E-02 4.79450E+01-2.20679E+01-8.04316E+00



 n o d a l   p r i n t   o u t   f o r   t i m e  s t e p    9801                              ( at time 4.8995097E+00 )

 nodal point  x-rot      y-rot       z-rot       x-rot vel   y-rot vel   z-rot vel   x-rot acc   y-rot acc   z-rot acc
    22626 -1.60421E-07-1.46558E-05-2.42393E-05 6.75178E-07 1.46316E-04 2.16274E-04 4.59082E-05 3.47921E-04 2.37024E-04



 n o d a l   p r i n t   o u t   f o r   t i m e  s t e p   10001                              ( at time 4.9994997E+00 )

 nodal point  x-disp     y-disp      z-disp      x-vel       y-vel       z-vel      x-accl      y-accl      z-accl      x-coor      y-coor      z-coor
    22626 -1.84635E-02-3.96058E-02-1.56972E+01 8.20692E-03-1.52197E-02-3.15301E+00 2.29205E-02-1.43236E-02 4.53707E-02 4.79457E+01-2.20694E+01-8.35871E+00



 n o d a l   p r i n t   o u t   f o r   t i m e  s t e p   10001                              ( at time 4.9994997E+00 )

 nodal point  x-rot      y-rot       z-rot       x-rot vel   y-rot vel   z-rot vel   x-rot acc   y-rot acc   z-rot acc
    22626  6.55015E-07 2.92226E-06-1.12801E-06 1.17530E-05 2.12348E-04 2.47373E-04 1.10789E-04 6.60385E-04 3.11020E-04



 n o d a l   p r i n t   o u t   f o r   t i m e  s t e p   10202                              ( at time 5.0999896E+00 )

 nodal point  x-disp     y-disp      z-disp      x-vel       y-vel       z-vel      x-accl      y-accl      z-accl      x-coor      y-coor      z-coor
    22626 -1.74892E-02-4.12109E-02-1.60136E+01 1.06566E-02-1.54095E-02-3.14335E+00 2.43772E-02-1.88838E-03 9.61863E-02 4.79467E+01-2.20710E+01-8.67510E+00



 n o d a l   p r i n t   o u t   f o r   t i m e  s t e p   10202                              ( at time 5.0999896E+00 )

 nodal point  x-rot      y-rot       z-rot       x-rot vel   y-rot vel   z-rot vel   x-rot acc   y-rot acc   z-rot acc
    22626  2.39898E-06 2.93405E-05 2.50209E-05 4.47891E-05 3.15727E-04 2.58154E-04 3.28751E-04 1.02876E-03 1.07277E-04



 n o d a l   p r i n t   o u t   f o r   t i m e  s t e p   10402                              ( at time 5.1999796E+00 )

 nodal point  x-disp     y-disp      z-disp      x-vel       y-vel       z-vel      x-accl      y-accl      z-accl      x-coor      y-coor      z-coor
    22626 -1.63056E-02-4.26857E-02-1.63273E+01 1.28279E-02-1.37373E-02-3.12916E+00 2.17157E-02 1.67240E-02 1.41908E-01 4.79479E+01-2.20725E+01-8.98876E+00



 n o d a l   p r i n t   o u t   f o r   t i m e  s t e p   10402                              ( at time 5.1999796E+00 )

 nodal point  x-rot      y-rot       z-rot       x-rot vel   y-rot vel   z-rot vel   x-rot acc   y-rot acc   z-rot acc
    22626  1.00287E-05 6.87990E-05 5.18311E-05 1.00666E-04 4.75888E-04 2.70204E-04 5.58826E-04 1.60176E-03 1.20520E-04



 n o d a l   p r i n t   o u t   f o r   t i m e  s t e p   10602                              ( at time 5.2999696E+00 )

 nodal point  x-disp     y-disp      z-disp      x-vel       y-vel       z-vel      x-accl      y-accl      z-accl      x-coor      y-coor      z-coor
    22626 -1.49014E-02-4.38537E-02-1.66392E+01 1.57132E-02-1.05122E-02-3.10991E+00 2.88553E-02 3.22542E-02 1.92464E-01 4.79493E+01-2.20736E+01-9.30071E+00



 n o d a l   p r i n t   o u t   f o r   t i m e  s t e p   10602                              ( at time 5.2999696E+00 )

 nodal point  x-rot      y-rot       z-rot       x-rot vel   y-rot vel   z-rot vel   x-rot acc   y-rot acc   z-rot acc
    22626  2.47121E-05 1.24938E-04 7.71613E-05 1.90083E-04 6.60794E-04 2.48102E-04 8.94262E-04 1.84924E-03-2.21041E-04



 n o d a l   p r i n t   o u t   f o r   t i m e  s t e p   10802                              ( at time 5.3999596E+00 )

 nodal point  x-disp     y-disp      z-disp      x-vel       y-vel       z-vel      x-accl      y-accl      z-accl      x-coor      y-coor      z-coor
    22626 -1.32271E-02-4.46556E-02-1.69489E+01 1.80422E-02-6.20070E-03-3.08504E+00 2.32928E-02 4.31189E-02 2.48748E-01 4.79510E+01-2.20744E+01-9.61045E+00



 n o d a l   p r i n t   o u t   f o r   t i m e  s t e p   10802                              ( at time 5.3999596E+00 )

 nodal point  x-rot      y-rot       z-rot       x-rot vel   y-rot vel   z-rot vel   x-rot acc   y-rot acc   z-rot acc
    22626  5.04281E-05 2.02776E-04 9.98706E-05 3.13278E-04 8.95854E-04 2.07466E-04 1.23207E-03 2.35084E-03-4.06405E-04



 n o d a l   p r i n t   o u t   f o r   t i m e  s t e p   11002                              ( at time 5.4999496E+00 )

 nodal point  x-disp     y-disp      z-disp      x-vel       y-vel       z-vel      x-accl      y-accl      z-accl      x-coor      y-coor      z-coor
    22626 -1.11958E-02-4.50000E-02-1.72560E+01 2.20629E-02-6.86825E-04-3.05683E+00 4.02113E-02 5.51443E-02 2.82135E-01 4.79530E+01-2.20748E+01-9.91753E+00



 n o d a l   p r i n t   o u t   f o r   t i m e  s t e p   11002                              ( at time 5.4999496E+00 )

 nodal point  x-rot      y-rot       z-rot       x-rot vel   y-rot vel   z-rot vel   x-rot acc   y-rot acc   z-rot acc
    22626  8.83572E-05 3.03995E-04 1.18618E-04 4.52054E-04 1.15522E-03 1.58815E-04 1.38790E-03 2.59388E-03-4.86564E-04



 n o d a l   p r i n t   o u t   f o r   t i m e  s t e p   11202                              ( at time 5.5999396E+00 )

 nodal point  x-disp     y-disp      z-disp      x-vel       y-vel       z-vel      x-accl      y-accl      z-accl      x-coor      y-coor      z-coor
    22626 -8.83542E-03-4.47524E-02-1.75601E+01 2.52618E-02 5.72899E-03-3.02584E+00 3.19922E-02 6.41646E-02 3.09894E-01 4.79553E+01-2.20745E+01-1.02216E+01



 n o d a l   p r i n t   o u t   f o r   t i m e  s t e p   11202                              ( at time 5.5999396E+00 )

 nodal point  x-rot      y-rot       z-rot       x-rot vel   y-rot vel   z-rot vel   x-rot acc   y-rot acc   z-rot acc
    22626  1.40913E-04 4.33172E-04 1.32512E-04 5.98106E-04 1.43626E-03 1.14852E-04 1.46066E-03 2.81073E-03-4.39670E-04



 n o d a l   p r i n t   o u t   f o r   t i m e  s t e p   11402                              ( at time 5.6999296E+00 )

 nodal point  x-disp     y-disp      z-disp      x-vel       y-vel       z-vel      x-accl      y-accl      z-accl      x-coor      y-coor      z-coor
    22626 -6.19574E-03-4.38274E-02-1.78610E+01 2.79965E-02 1.34640E-02-2.99215E+00 2.73492E-02 7.73579E-02 3.36939E-01 4.79580E+01-2.20736E+01-1.05225E+01



 n o d a l   p r i n t   o u t   f o r   t i m e  s t e p   11402                              ( at time 5.6999296E+00 )

 nodal point  x-rot      y-rot       z-rot       x-rot vel   y-rot vel   z-rot vel   x-rot acc   y-rot acc   z-rot acc
    22626  2.08319E-04 5.93515E-04 1.40645E-04 7.62937E-04 1.75562E-03 3.67046E-05 1.64847E-03 3.19395E-03-7.81550E-04



 n o d a l   p r i n t   o u t   f o r   t i m e  s t e p   11602                              ( at time 5.7999195E+00 )

 nodal point  x-disp     y-disp      z-disp      x-vel       y-vel       z-vel      x-accl      y-accl      z-accl      x-coor      y-coor      z-coor
    22626 -3.24208E-03-4.20852E-02-1.81583E+01 3.08902E-02 2.10326E-02-2.95454E+00 2.89399E-02 7.56935E-02 3.76203E-01 4.79609E+01-2.20719E+01-1.08198E+01



 n o d a l   p r i n t   o u t   f o r   t i m e  s t e p   11602                              ( at time 5.7999195E+00 )

 nodal point  x-rot      y-rot       z-rot       x-rot vel   y-rot vel   z-rot vel   x-rot acc   y-rot acc   z-rot acc
    22626  2.93196E-04 7.86747E-04 1.41462E-04 9.23722E-04 2.10624E-03-3.20536E-05 1.60802E-03 3.50650E-03-6.87652E-04



 n o d a l   p r i n t   o u t   f o r   t i m e  s t e p   11802                              ( at time 5.8999095E+00 )

 nodal point  x-disp     y-disp      z-disp      x-vel       y-vel       z-vel      x-accl      y-accl      z-accl      x-coor      y-coor      z-coor
    22626  7.05412E-05-3.96462E-02-1.84519E+01 3.52792E-02 2.77418E-02-2.91644E+00 4.38950E-02 6.70986E-02 3.81043E-01 4.79642E+01-2.20694E+01-1.11134E+01



 n o d a l   p r i n t   o u t   f o r   t i m e  s t e p   11802                              ( at time 5.8999095E+00 )

 nodal point  x-rot      y-rot       z-rot       x-rot vel   y-rot vel   z-rot vel   x-rot acc   y-rot acc   z-rot acc
    22626  3.95987E-04 1.01328E-03 1.33636E-04 1.12724E-03 2.44405E-03-1.16204E-04 2.03538E-03 3.37842E-03-8.41592E-04



 n o d a l   p r i n t   o u t   f o r   t i m e  s t e p   12002                              ( at time 5.9998995E+00 )

 nodal point  x-disp     y-disp      z-disp      x-vel       y-vel       z-vel      x-accl      y-accl      z-accl      x-coor      y-coor      z-coor
    22626  3.78104E-03-3.64675E-02-1.87415E+01 3.94296E-02 3.53160E-02-2.87587E+00 4.15073E-02 7.57500E-02 4.05665E-01 4.79680E+01-2.20663E+01-1.14030E+01



 n o d a l   p r i n t   o u t   f o r   t i m e  s t e p   12002                              ( at time 5.9998995E+00 )

 nodal point  x-rot      y-rot       z-rot       x-rot vel   y-rot vel   z-rot vel   x-rot acc   y-rot acc   z-rot acc
    22626  5.16431E-04 1.27623E-03 1.16563E-04 1.29791E-03 2.79460E-03-2.16477E-04 1.70690E-03 3.50587E-03-1.00283E-03



 n o d a l   p r i n t   o u t   f o r   t i m e  s t e p   12202                              ( at time 6.0998895E+00 )

 nodal point  x-disp     y-disp      z-disp      x-vel       y-vel       z-vel      x-accl      y-accl      z-accl      x-coor      y-coor      z-coor
    22626  7.97905E-03-3.25549E-02-1.90269E+01 4.49723E-02 4.29719E-02-2.83310E+00 5.54323E-02 7.65656E-02 4.27786E-01 4.79722E+01-2.20623E+01-1.16884E+01



 n o d a l   p r i n t   o u t   f o r   t i m e  s t e p   12202                              ( at time 6.0998895E+00 )

 nodal point  x-rot      y-rot       z-rot       x-rot vel   y-rot vel   z-rot vel   x-rot acc   y-rot acc   z-rot acc
    22626  6.55633E-04 1.57297E-03 8.96472E-05 1.50441E-03 3.13843E-03-3.26551E-04 2.06519E-03 3.43859E-03-1.10084E-03



 n o d a l   p r i n t   o u t   f o r   t i m e  s t e p   12402                              ( at time 6.1998795E+00 )

 nodal point  x-disp     y-disp      z-disp      x-vel       y-vel       z-vel      x-accl      y-accl      z-accl      x-coor      y-coor      z-coor
    22626  1.27336E-02-2.78165E-02-1.93079E+01 5.03636E-02 5.11908E-02-2.78812E+00 5.39193E-02 8.21982E-02 4.49794E-01 4.79769E+01-2.20576E+01-1.19694E+01



 n o d a l   p r i n t   o u t   f o r   t i m e  s t e p   12402                              ( at time 6.1998795E+00 )

 nodal point  x-rot      y-rot       z-rot       x-rot vel   y-rot vel   z-rot vel   x-rot acc   y-rot acc   z-rot acc
    22626  8.14186E-04 1.90385E-03 5.16827E-05 1.66570E-03 3.47199E-03-4.32396E-04 1.61305E-03 3.33599E-03-1.05856E-03



 n o d a l   p r i n t   o u t   f o r   t i m e  s t e p   12602                              ( at time 6.2998695E+00 )

 nodal point  x-disp     y-disp      z-disp      x-vel       y-vel       z-vel      x-accl      y-accl      z-accl      x-coor      y-coor      z-coor
    22626  1.81244E-02-2.23843E-02-1.95844E+01 5.71135E-02 5.74826E-02-2.74215E+00 6.75058E-02 6.29235E-02 4.59756E-01 4.79823E+01-2.20522E+01-1.22459E+01



 n o d a l   p r i n t   o u t   f o r   t i m e  s t e p   12602                              ( at time 6.2998695E+00 )

 nodal point  x-rot      y-rot       z-rot       x-rot vel   y-rot vel   z-rot vel   x-rot acc   y-rot acc   z-rot acc
    22626  9.91786E-04 2.26964E-03 3.00799E-06 1.87516E-03 3.83412E-03-5.45197E-04 2.09482E-03 3.62166E-03-1.12812E-03



 n o d a l   p r i n t   o u t   f o r   t i m e  s t e p   12802                              ( at time 6.3998595E+00 )

 nodal point  x-disp     y-disp      z-disp      x-vel       y-vel       z-vel      x-accl      y-accl      z-accl      x-coor      y-coor      z-coor
    22626  2.42572E-02-1.62533E-02-1.98563E+01 6.51976E-02 6.55657E-02-2.69484E+00 8.08486E-02 8.08397E-02 4.73132E-01 4.79884E+01-2.20460E+01-1.25178E+01



 n o d a l   p r i n t   o u t   f o r   t i m e  s t e p   12802                              ( at time 6.3998595E+00 )

 nodal point  x-rot      y-rot       z-rot       x-rot vel   y-rot vel   z-rot vel   x-rot acc   y-rot acc   z-rot acc
    22626  1.19051E-03 2.66760E-03-5.76843E-05 2.09490E-03 4.14765E-03-6.63245E-04 2.19757E-03 3.13564E-03-1.18060E-03



 n o d a l   p r i n t   o u t   f o r   t i m e  s t e p   13002                              ( at time 6.4998495E+00 )

 nodal point  x-disp     y-disp      z-disp      x-vel       y-vel       z-vel      x-accl      y-accl      z-accl      x-coor      y-coor      z-coor
    22626  3.12097E-02-9.30575E-03-2.01233E+01 7.36141E-02 7.31839E-02-2.64739E+00 8.41738E-02 7.61893E-02 4.74549E-01 4.79954E+01-2.20391E+01-1.27848E+01



 n o d a l   p r i n t   o u t   f o r   t i m e  s t e p   13002                              ( at time 6.4998495E+00 )

 nodal point  x-rot      y-rot       z-rot       x-rot vel   y-rot vel   z-rot vel   x-rot acc   y-rot acc   z-rot acc
    22626  1.41111E-03 3.09901E-03-1.29793E-04 2.32285E-03 4.46032E-03-7.73859E-04 2.27975E-03 3.12699E-03-1.10625E-03



 n o d a l   p r i n t   o u t   f o r   t i m e  s t e p   13202                              ( at time 6.5998395E+00 )

 nodal point  x-disp     y-disp      z-disp      x-vel       y-vel       z-vel      x-accl      y-accl      z-accl      x-coor      y-coor      z-coor
    22626  3.89974E-02-1.61134E-03-2.03856E+01 8.15668E-02 8.11775E-02-2.59848E+00 7.95343E-02 7.99444E-02 4.89187E-01 4.80032E+01-2.20314E+01-1.30471E+01



 n o d a l   p r i n t   o u t   f o r   t i m e  s t e p   13202                              ( at time 6.5998395E+00 )

 nodal point  x-rot      y-rot       z-rot       x-rot vel   y-rot vel   z-rot vel   x-rot acc   y-rot acc   z-rot acc
    22626  1.65219E-03 3.56157E-03-2.12551E-04 2.52072E-03 4.77667E-03-8.95351E-04 1.97891E-03 3.16386E-03-1.21504E-03



 n o d a l   p r i n t   o u t   f o r   t i m e  s t e p   13402                              ( at time 6.6998295E+00 )

 nodal point  x-disp     y-disp      z-disp      x-vel       y-vel       z-vel      x-accl      y-accl      z-accl      x-coor      y-coor      z-coor
    22626  4.76341E-02 6.84177E-03-2.06429E+01 9.09002E-02 8.92069E-02-2.54779E+00 9.33440E-02 8.03013E-02 5.06965E-01 4.80118E+01-2.20229E+01-1.33044E+01



 n o d a l   p r i n t   o u t   f o r   t i m e  s t e p   13402                              ( at time 6.6998295E+00 )

 nodal point  x-rot      y-rot       z-rot       x-rot vel   y-rot vel   z-rot vel   x-rot acc   y-rot acc   z-rot acc
    22626  1.91563E-03 4.05403E-03-3.07492E-04 2.74041E-03 5.06842E-03-1.02767E-03 2.19707E-03 2.91779E-03-1.32332E-03



 n o d a l   p r i n t   o u t   f o r   t i m e  s t e p   13602                              ( at time 6.7998195E+00 )

 nodal point  x-disp     y-disp      z-disp      x-vel       y-vel       z-vel      x-accl      y-accl      z-accl      x-coor      y-coor      z-coor
    22626  5.72935E-02 1.60928E-02-2.08951E+01 1.01457E-01 9.58139E-02-2.49614E+00 1.05581E-01 6.60775E-02 5.16548E-01 4.80215E+01-2.20137E+01-1.35566E+01



 n o d a l   p r i n t   o u t   f o r   t i m e  s t e p   13602                              ( at time 6.7998195E+00 )

 nodal point  x-rot      y-rot       z-rot       x-rot vel   y-rot vel   z-rot vel   x-rot acc   y-rot acc   z-rot acc
    22626  2.20172E-03 4.57512E-03-4.15479E-04 2.97061E-03 5.35377E-03-1.13190E-03 2.30225E-03 2.85372E-03-1.04236E-03



 n o d a l   p r i n t   o u t   f o r   t i m e  s t e p   13802                              ( at time 6.8998095E+00 )

 nodal point  x-disp     y-disp      z-disp      x-vel       y-vel       z-vel      x-accl      y-accl      z-accl      x-coor      y-coor      z-coor
    22626  6.79042E-02 2.60371E-02-2.11420E+01 1.10870E-01 1.03515E-01-2.44372E+00 9.41364E-02 7.70177E-02 5.24202E-01 4.80321E+01-2.20038E+01-1.38035E+01



 n o d a l   p r i n t   o u t   f o r   t i m e  s t e p   13802                              ( at time 6.8998095E+00 )

 nodal point  x-rot      y-rot       z-rot       x-rot vel   y-rot vel   z-rot vel   x-rot acc   y-rot acc   z-rot acc
    22626  2.51003E-03 5.12496E-03-5.34946E-04 3.20585E-03 5.64170E-03-1.26059E-03 2.35270E-03 2.87964E-03-1.28709E-03



 n o d a l   p r i n t   o u t   f o r   t i m e  s t e p   14002                              ( at time 6.9997995E+00 )

 nodal point  x-disp     y-disp      z-disp      x-vel       y-vel       z-vel      x-accl      y-accl      z-accl      x-coor      y-coor      z-coor
    22626  7.94381E-02 3.68292E-02-2.13837E+01 1.20547E-01 1.11551E-01-2.39039E+00 9.67755E-02 8.03708E-02 5.33423E-01 4.80436E+01-2.19930E+01-1.40452E+01



 n o d a l   p r i n t   o u t   f o r   t i m e  s t e p   14002                              ( at time 6.9997995E+00 )

 nodal point  x-rot      y-rot       z-rot       x-rot vel   y-rot vel   z-rot vel   x-rot acc   y-rot acc   z-rot acc
    22626  2.84208E-03 5.70268E-03-6.67209E-04 3.44558E-03 5.92191E-03-1.38252E-03 2.39750E-03 2.80240E-03-1.21942E-03



 n o d a l   p r i n t   o u t   f o r   t i m e  s t e p   14202                              ( at time 7.0997895E+00 )

 nodal point  x-disp     y-disp      z-disp      x-vel       y-vel       z-vel      x-accl      y-accl      z-accl      x-coor      y-coor      z-coor
    22626  9.19014E-02 4.83194E-02-2.16200E+01 1.29261E-01 1.18399E-01-2.33531E+00 8.71546E-02 6.84867E-02 5.50867E-01 4.80561E+01-2.19815E+01-1.42815E+01



 n o d a l   p r i n t   o u t   f o r   t i m e  s t e p   14202                              ( at time 7.0997895E+00 )

 nodal point  x-rot      y-rot       z-rot       x-rot vel   y-rot vel   z-rot vel   x-rot acc   y-rot acc   z-rot acc
    22626  3.19792E-03 6.30837E-03-8.11515E-04 3.68279E-03 6.19778E-03-1.50791E-03 2.37239E-03 2.75892E-03-1.25396E-03



 n o d a l   p r i n t   o u t   f o r   t i m e  s t e p   14402                              ( at time 7.1997794E+00 )

 nodal point  x-disp     y-disp      z-disp      x-vel       y-vel       z-vel      x-accl      y-accl      z-accl      x-coor      y-coor      z-coor
    22626  1.05246E-01 6.04890E-02-2.18508E+01 1.37812E-01 1.24748E-01-2.28110E+00 8.55216E-02 6.34902E-02 5.42099E-01 4.80694E+01-2.19693E+01-1.45123E+01



 n o d a l   p r i n t   o u t   f o r   t i m e  s t e p   14402                              ( at time 7.1997794E+00 )

 nodal point  x-rot      y-rot       z-rot       x-rot vel   y-rot vel   z-rot vel   x-rot acc   y-rot acc   z-rot acc
    22626  3.57970E-03 6.94244E-03-9.67744E-04 3.92881E-03 6.47044E-03-1.62323E-03 2.46039E-03 2.72688E-03-1.15336E-03



 n o d a l   p r i n t   o u t   f o r   t i m e  s t e p   14602                              ( at time 7.2997694E+00 )

 nodal point  x-disp     y-disp      z-disp      x-vel       y-vel       z-vel      x-accl      y-accl      z-accl      x-coor      y-coor      z-coor
    22626  1.19497E-01 7.32048E-02-2.20760E+01 1.46077E-01 1.29839E-01-2.22400E+00 8.26569E-02 5.09225E-02 5.71065E-01 4.80837E+01-2.19566E+01-1.47375E+01



 n o d a l   p r i n t   o u t   f o r   t i m e  s t e p   14602                              ( at time 7.2997694E+00 )

 nodal point  x-rot      y-rot       z-rot       x-rot vel   y-rot vel   z-rot vel   x-rot acc   y-rot acc   z-rot acc
    22626  3.98526E-03 7.60423E-03-1.13470E-03 4.19166E-03 6.76004E-03-1.72572E-03 2.62876E-03 2.89634E-03-1.02499E-03



 n o d a l   p r i n t   o u t   f o r   t i m e  s t e p   14802                              ( at time 7.3997594E+00 )

 nodal point  x-disp     y-disp      z-disp      x-vel       y-vel       z-vel      x-accl      y-accl      z-accl      x-coor      y-coor      z-coor
    22626  1.34520E-01 8.64822E-02-2.22954E+01 1.53949E-01 1.36767E-01-2.16526E+00 7.87213E-02 6.92816E-02 5.87506E-01 4.80987E+01-2.19433E+01-1.49569E+01



 n o d a l   p r i n t   o u t   f o r   t i m e  s t e p   14802                              ( at time 7.3997594E+00 )

 nodal point  x-rot      y-rot       z-rot       x-rot vel   y-rot vel   z-rot vel   x-rot acc   y-rot acc   z-rot acc
    22626  4.41829E-03 8.29541E-03-1.31294E-03 4.47474E-03 7.04760E-03-1.84577E-03 2.83108E-03 2.87583E-03-1.20066E-03



 n o d a l   p r i n t   o u t   f o r   t i m e  s t e p   15002                              ( at time 7.4997494E+00 )

 nodal point  x-disp     y-disp      z-disp      x-vel       y-vel       z-vel      x-accl      y-accl      z-accl      x-coor      y-coor      z-coor
    22626  1.50333E-01 1.00240E-01-2.25090E+01 1.61814E-01 1.38999E-01-2.10572E+00 7.86595E-02 2.23233E-02 5.95429E-01 4.81145E+01-2.19296E+01-1.51705E+01



 n o d a l   p r i n t   o u t   f o r   t i m e  s t e p   15002                              ( at time 7.4997494E+00 )

 nodal point  x-rot      y-rot       z-rot       x-rot vel   y-rot vel   z-rot vel   x-rot acc   y-rot acc   z-rot acc
    22626  4.87760E-03 9.01552E-03-1.50087E-03 4.72600E-03 7.35267E-03-1.92979E-03 2.51285E-03 3.05103E-03-8.40283E-04



 n o d a l   p r i n t   o u t   f o r   t i m e  s t e p   15202                              ( at time 7.5997394E+00 )

 nodal point  x-disp     y-disp      z-disp      x-vel       y-vel       z-vel      x-accl      y-accl      z-accl      x-coor      y-coor      z-coor
    22626  1.66760E-01 1.14247E-01-2.27163E+01 1.66515E-01 1.42029E-01-2.04159E+00 4.70126E-02 3.03059E-02 6.41339E-01 4.81309E+01-2.19155E+01-1.53778E+01



 n o d a l   p r i n t   o u t   f o r   t i m e  s t e p   15202                              ( at time 7.5997394E+00 )

 nodal point  x-rot      y-rot       z-rot       x-rot vel   y-rot vel   z-rot vel   x-rot acc   y-rot acc   z-rot acc
    22626  5.36399E-03 9.76705E-03-1.69891E-03 5.01321E-03 7.65829E-03-2.02543E-03 2.87240E-03 3.05651E-03-9.56487E-04



 n o d a l   p r i n t   o u t   f o r   t i m e  s t e p   15402                              ( at time 7.6997294E+00 )

 nodal point  x-disp     y-disp      z-disp      x-vel       y-vel       z-vel      x-accl      y-accl      z-accl      x-coor      y-coor      z-coor
    22626  1.83716E-01 1.28507E-01-2.29172E+01 1.73257E-01 1.44242E-01-1.97531E+00 6.74331E-02 2.21339E-02 6.62879E-01 4.81479E+01-2.19013E+01-1.55787E+01



 n o d a l   p r i n t   o u t   f o r   t i m e  s t e p   15402                              ( at time 7.6997294E+00 )

 nodal point  x-rot      y-rot       z-rot       x-rot vel   y-rot vel   z-rot vel   x-rot acc   y-rot acc   z-rot acc
    22626  5.88140E-03 1.05490E-02-1.90546E-03 5.33616E-03 7.96243E-03-2.11898E-03 3.22987E-03 3.04169E-03-9.35617E-04



 n o d a l   p r i n t   o u t   f o r   t i m e  s t e p   15602                              ( at time 7.7997194E+00 )

 nodal point  x-disp     y-disp      z-disp      x-vel       y-vel       z-vel      x-accl      y-accl      z-accl      x-coor      y-coor      z-coor
    22626  2.01400E-01 1.42914E-01-2.31113E+01 1.80104E-01 1.43542E-01-1.90852E+00 6.84706E-02-7.00515E-03 6.67975E-01 4.81656E+01-2.18869E+01-1.57728E+01



 n o d a l   p r i n t   o u t   f o r   t i m e  s t e p   15602                              ( at time 7.7997194E+00 )

 nodal point  x-rot      y-rot       z-rot       x-rot vel   y-rot vel   z-rot vel   x-rot acc   y-rot acc   z-rot acc
    22626  6.42892E-03 1.13598E-02-2.12201E-03 5.61779E-03 8.24558E-03-2.20306E-03 2.81651E-03 2.83182E-03-8.40836E-04



 n o d a l   p r i n t   o u t   f o r   t i m e  s t e p   15802                              ( at time 7.8997094E+00 )

 nodal point  x-disp     y-disp      z-disp      x-vel       y-vel       z-vel      x-accl      y-accl      z-accl      x-coor      y-coor      z-coor
    22626  2.19725E-01 1.57289E-01-2.32987E+01 1.87196E-01 1.44403E-01-1.84094E+00 7.09330E-02 8.61568E-03 6.75903E-01 4.81839E+01-2.18725E+01-1.59602E+01



 n o d a l   p r i n t   o u t   f o r   t i m e  s t e p   15802                              ( at time 7.8997094E+00 )

 nodal point  x-rot      y-rot       z-rot       x-rot vel   y-rot vel   z-rot vel   x-rot acc   y-rot acc   z-rot acc
    22626  7.00572E-03 1.21955E-02-2.34547E-03 5.94312E-03 8.47626E-03-2.27804E-03 3.25370E-03 2.30701E-03-7.49835E-04



 n o d a l   p r i n t   o u t   f o r   t i m e  s t e p   16002                              ( at time 7.9996994E+00 )

 nodal point  x-disp     y-disp      z-disp      x-vel       y-vel       z-vel      x-accl      y-accl      z-accl      x-coor      y-coor      z-coor
    22626  2.38688E-01 1.71750E-01-2.34792E+01 1.92502E-01 1.43917E-01-1.76909E+00 5.30601E-02-4.86242E-03 7.18536E-01 4.82029E+01-2.18580E+01-1.61407E+01



 n o d a l   p r i n t   o u t   f o r   t i m e  s t e p   16002                              ( at time 7.9996994E+00 )

 nodal point  x-rot      y-rot       z-rot       x-rot vel   y-rot vel   z-rot vel   x-rot acc   y-rot acc   z-rot acc
    22626  7.61616E-03 1.30562E-02-2.57687E-03 6.28035E-03 8.75182E-03-2.35005E-03 3.37257E-03 2.75586E-03-7.20187E-04



 n o d a l   p r i n t   o u t   f o r   t i m e  s t e p   16202                              ( at time 8.0996894E+00 )

 nodal point  x-disp     y-disp      z-disp      x-vel       y-vel       z-vel      x-accl      y-accl      z-accl      x-coor      y-coor      z-coor
    22626  2.58285E-01 1.86014E-01-2.36526E+01 1.99663E-01 1.41457E-01-1.69939E+00 7.16163E-02-2.46055E-02 6.97024E-01 4.82225E+01-2.18438E+01-1.63141E+01



 n o d a l   p r i n t   o u t   f o r   t i m e  s t e p   16202                              ( at time 8.0996894E+00 )

 nodal point  x-rot      y-rot       z-rot       x-rot vel   y-rot vel   z-rot vel   x-rot acc   y-rot acc   z-rot acc
    22626  8.26057E-03 1.39399E-02-2.81604E-03 6.58741E-03 8.94788E-03-2.40597E-03 3.07096E-03 1.96075E-03-5.59295E-04



 n o d a l   p r i n t   o u t   f o r   t i m e  s t e p   16402                              ( at time 8.1996794E+00 )

 nodal point  x-disp     y-disp      z-disp      x-vel       y-vel       z-vel      x-accl      y-accl      z-accl      x-coor      y-coor      z-coor
    22626  2.78575E-01 2.00099E-01-2.38189E+01 2.04633E-01 1.40331E-01-1.62742E+00 4.97077E-02-1.12611E-02 7.19836E-01 4.82428E+01-2.18297E+01-1.64804E+01



 n o d a l   p r i n t   o u t   f o r   t i m e  s t e p   16402                              ( at time 8.1996794E+00 )

 nodal point  x-rot      y-rot       z-rot       x-rot vel   y-rot vel   z-rot vel   x-rot acc   y-rot acc   z-rot acc
    22626  8.93710E-03 1.48450E-02-3.06141E-03 6.94608E-03 9.15596E-03-2.48337E-03 3.58701E-03 2.08099E-03-7.74045E-04



 n o d a l   p r i n t   o u t   f o r   t i m e  s t e p   16602                              ( at time 8.2996694E+00 )

 nodal point  x-disp     y-disp      z-disp      x-vel       y-vel       z-vel      x-accl      y-accl      z-accl      x-coor      y-coor      z-coor
    22626  2.99390E-01 2.13964E-01-2.39781E+01 2.11155E-01 1.37541E-01-1.55596E+00 6.52241E-02-2.78987E-02 7.14643E-01 4.82636E+01-2.18158E+01-1.66396E+01



 n o d a l   p r i n t   o u t   f o r   t i m e  s t e p   16602                              ( at time 8.2996694E+00 )

 nodal point  x-rot      y-rot       z-rot       x-rot vel   y-rot vel   z-rot vel   x-rot acc   y-rot acc   z-rot acc
    22626  9.64978E-03 1.57701E-02-3.31318E-03 7.30052E-03 9.33571E-03-2.55054E-03 3.54479E-03 1.79776E-03-6.71756E-04



 n o d a l   p r i n t   o u t   f o r   t i m e  s t e p   16802                              ( at time 8.3996594E+00 )

 nodal point  x-disp     y-disp      z-disp      x-vel       y-vel       z-vel      x-accl      y-accl      z-accl      x-coor      y-coor      z-coor
    22626  3.20830E-01 2.27497E-01-2.41300E+01 2.17310E-01 1.32002E-01-1.48231E+00 6.15604E-02-5.53940E-02 7.36547E-01 4.82850E+01-2.18023E+01-1.67915E+01



 n o d a l   p r i n t   o u t   f o r   t i m e  s t e p   16802                              ( at time 8.3996594E+00 )

 nodal point  x-rot      y-rot       z-rot       x-rot vel   y-rot vel   z-rot vel   x-rot acc   y-rot acc   z-rot acc
    22626  1.03972E-02 1.67114E-02-3.57154E-03 7.64016E-03 9.50657E-03-2.61107E-03 3.39677E-03 1.70871E-03-6.05395E-04



 n o d a l   p r i n t   o u t   f o r   t i m e  s t e p   17002                              ( at time 8.4996494E+00 )

 nodal point  x-disp     y-disp      z-disp      x-vel       y-vel       z-vel      x-accl      y-accl      z-accl      x-coor      y-coor      z-coor
    22626  3.42916E-01 2.40414E-01-2.42743E+01 2.23888E-01 1.26134E-01-1.40654E+00 6.57819E-02-5.86946E-02 7.57863E-01 4.83071E+01-2.17894E+01-1.69358E+01



 n o d a l   p r i n t   o u t   f o r   t i m e  s t e p   17002                              ( at time 8.4996494E+00 )

 nodal point  x-rot      y-rot       z-rot       x-rot vel   y-rot vel   z-rot vel   x-rot acc   y-rot acc   z-rot acc
    22626  1.11809E-02 1.76688E-02-3.83680E-03 8.02451E-03 9.64812E-03-2.67101E-03 3.84381E-03 1.41568E-03-5.99476E-04



 n o d a l   p r i n t   o u t   f o r   t i m e  s t e p   17202                              ( at time 8.5996394E+00 )

 nodal point  x-disp     y-disp      z-disp      x-vel       y-vel       z-vel      x-accl      y-accl      z-accl      x-coor      y-coor      z-coor
    22626  3.65637E-01 2.52765E-01-2.44113E+01 2.29719E-01 1.20662E-01-1.33100E+00 5.83229E-02-5.47224E-02 7.55433E-01 4.83298E+01-2.17770E+01-1.70728E+01



 n o d a l   p r i n t   o u t   f o r   t i m e  s t e p   17202                              ( at time 8.5996394E+00 )

 nodal point  x-rot      y-rot       z-rot       x-rot vel   y-rot vel   z-rot vel   x-rot acc   y-rot acc   z-rot acc
    22626  1.20026E-02 1.86386E-02-4.10746E-03 8.39925E-03 9.78297E-03-2.72632E-03 3.74787E-03 1.34864E-03-5.53136E-04



 n o d a l   p r i n t   o u t   f o r   t i m e  s t e p   17402                              ( at time 8.6996293E+00 )

 nodal point  x-disp     y-disp      z-disp      x-vel       y-vel       z-vel      x-accl      y-accl      z-accl      x-coor      y-coor      z-coor
    22626  3.88953E-01 2.64405E-01-2.45405E+01 2.36937E-01 1.12586E-01-1.25328E+00 7.21828E-02-8.07687E-02 7.77276E-01 4.83531E+01-2.17654E+01-1.72020E+01



 n o d a l   p r i n t   o u t   f o r   t i m e  s t e p   17402                              ( at time 8.6996293E+00 )

 nodal point  x-rot      y-rot       z-rot       x-rot vel   y-rot vel   z-rot vel   x-rot acc   y-rot acc   z-rot acc
    22626  1.28608E-02 1.96200E-02-4.38414E-03 8.78659E-03 9.85421E-03-2.78820E-03 3.87373E-03 7.12443E-04-6.18818E-04



 n o d a l   p r i n t   o u t   f o r   t i m e  s t e p   17602                              ( at time 8.7996193E+00 )

 nodal point  x-disp     y-disp      z-disp      x-vel       y-vel       z-vel      x-accl      y-accl      z-accl      x-coor      y-coor      z-coor
    22626  4.12951E-01 2.75397E-01-2.46619E+01 2.43610E-01 1.07153E-01-1.17833E+00 6.67391E-02-5.43296E-02 7.49561E-01 4.83771E+01-2.17544E+01-1.73234E+01



 n o d a l   p r i n t   o u t   f o r   t i m e  s t e p   17602                              ( at time 8.7996193E+00 )

 nodal point  x-rot      y-rot       z-rot       x-rot vel   y-rot vel   z-rot vel   x-rot acc   y-rot acc   z-rot acc
    22626  1.37610E-02 2.06100E-02-4.66711E-03 9.21084E-03 9.94774E-03-2.84333E-03 4.24289E-03 9.35440E-04-5.51352E-04



 n o d a l   p r i n t   o u t   f o r   t i m e  s t e p   17802                              ( at time 8.8996093E+00 )

 nodal point  x-disp     y-disp      z-disp      x-vel       y-vel       z-vel      x-accl      y-accl      z-accl      x-coor      y-coor      z-coor
    22626  4.37586E-01 2.85685E-01-2.47759E+01 2.49250E-01 9.86615E-02-1.10187E+00 5.64056E-02-8.49270E-02 7.64712E-01 4.84018E+01-2.17441E+01-1.74374E+01



 n o d a l   p r i n t   o u t   f o r   t i m e  s t e p   17802                              ( at time 8.8996093E+00 )

 nodal point  x-rot      y-rot       z-rot       x-rot vel   y-rot vel   z-rot vel   x-rot acc   y-rot acc   z-rot acc
    22626  1.46967E-02 2.16116E-02-4.95488E-03 9.54223E-03 1.00919E-02-2.90192E-03 3.31424E-03 1.44128E-03-5.85992E-04



 n o d a l   p r i n t   o u t   f o r   t i m e  s t e p   18002                              ( at time 8.9995993E+00 )

 nodal point  x-disp     y-disp      z-disp      x-vel       y-vel       z-vel      x-accl      y-accl      z-accl      x-coor      y-coor      z-coor
    22626  4.62919E-01 2.95220E-01-2.48824E+01 2.56765E-01 9.40271E-02-1.02871E+00 7.51568E-02-4.63490E-02 7.31648E-01 4.84271E+01-2.17346E+01-1.75439E+01



 n o d a l   p r i n t   o u t   f o r   t i m e  s t e p   18002                              ( at time 8.9995993E+00 )

 nodal point  x-rot      y-rot       z-rot       x-rot vel   y-rot vel   z-rot vel   x-rot acc   y-rot acc   z-rot acc
    22626  1.56733E-02 2.26210E-02-5.24672E-03 9.98563E-03 1.01003E-02-2.95394E-03 4.43446E-03 8.42187E-05-5.20231E-04



 n o d a l   p r i n t   o u t   f o r   t i m e  s t e p   18202                              ( at time 9.0995893E+00 )

 nodal point  x-disp     y-disp      z-disp      x-vel       y-vel       z-vel      x-accl      y-accl      z-accl      x-coor      y-coor      z-coor
    22626  4.89051E-01 3.04419E-01-2.49815E+01 2.65005E-01 8.76475E-02-9.54534E-01 8.24118E-02-6.38029E-02 7.41833E-01 4.84532E+01-2.17254E+01-1.76430E+01



 n o d a l   p r i n t   o u t   f o r   t i m e  s t e p   18202                              ( at time 9.0995893E+00 )

 nodal point  x-rot      y-rot       z-rot       x-rot vel   y-rot vel   z-rot vel   x-rot acc   y-rot acc   z-rot acc
    22626  1.66903E-02 2.36356E-02-5.54370E-03 1.03435E-02 1.02099E-02-2.97332E-03 3.57942E-03 1.09645E-03-1.93872E-04



 n o d a l   p r i n t   o u t   f o r   t i m e  s t e p   18402                              ( at time 9.1995793E+00 )

 nodal point  x-disp     y-disp      z-disp      x-vel       y-vel       z-vel      x-accl      y-accl      z-accl      x-coor      y-coor      z-coor
    22626  5.15851E-01 3.12999E-01-2.50734E+01 2.71353E-01 8.36577E-02-8.85537E-01 6.34842E-02-3.99011E-02 6.90040E-01 4.84800E+01-2.17168E+01-1.77349E+01



 n o d a l   p r i n t   o u t   f o r   t i m e  s t e p   18402                              ( at time 9.1995793E+00 )

 nodal point  x-rot      y-rot       z-rot       x-rot vel   y-rot vel   z-rot vel   x-rot acc   y-rot acc   z-rot acc
    22626  1.77475E-02 2.46608E-02-5.84544E-03 1.07825E-02 1.02921E-02-3.01712E-03 4.39007E-03 8.22422E-04-4.38013E-04



 n o d a l   p r i n t   o u t   f o r   t i m e  s t e p   18602                              ( at time 9.2995693E+00 )

 nodal point  x-disp     y-disp      z-disp      x-vel       y-vel       z-vel      x-accl      y-accl      z-accl      x-coor      y-coor      z-coor
    22626  5.43290E-01 3.21224E-01-2.51585E+01 2.77759E-01 7.99398E-02-8.17096E-01 6.40669E-02-3.71837E-02 6.84473E-01 4.85075E+01-2.17086E+01-1.78200E+01



 n o d a l   p r i n t   o u t   f o r   t i m e  s t e p   18602                              ( at time 9.2995693E+00 )

 nodal point  x-rot      y-rot       z-rot       x-rot vel   y-rot vel   z-rot vel   x-rot acc   y-rot acc   z-rot acc
    22626  1.88435E-02 2.56923E-02-6.14991E-03 1.11599E-02 1.03235E-02-3.06283E-03 3.77454E-03 3.13962E-04-4.57165E-04



 n o d a l   p r i n t   o u t   f o r   t i m e  s t e p   18802                              ( at time 9.3995593E+00 )

 nodal point  x-disp     y-disp      z-disp      x-vel       y-vel       z-vel      x-accl      y-accl      z-accl      x-coor      y-coor      z-coor
    22626  5.71595E-01 3.29096E-01-2.52367E+01 2.87366E-01 7.80066E-02-7.45960E-01 9.60763E-02-1.93335E-02 7.11431E-01 4.85358E+01-2.17007E+01-1.78982E+01



 n o d a l   p r i n t   o u t   f o r   t i m e  s t e p   18802                              ( at time 9.3995593E+00 )

 nodal point  x-rot      y-rot       z-rot       x-rot vel   y-rot vel   z-rot vel   x-rot acc   y-rot acc   z-rot acc
    22626  1.99805E-02 2.67291E-02-6.45912E-03 1.15796E-02 1.04201E-02-3.10735E-03 4.19693E-03 9.65488E-04-4.45289E-04



 n o d a l   p r i n t   o u t   f o r   t i m e  s t e p   19002                              ( at time 9.4995493E+00 )

 nodal point  x-disp     y-disp      z-disp      x-vel       y-vel       z-vel      x-accl      y-accl      z-accl      x-coor      y-coor      z-coor
    22626  6.00615E-01 3.36684E-01-2.53080E+01 2.93303E-01 7.60493E-02-6.79974E-01 5.93803E-02-1.95754E-02 6.59932E-01 4.85648E+01-2.16931E+01-1.79695E+01



 n o d a l   p r i n t   o u t   f o r   t i m e  s t e p   19002                              ( at time 9.4995493E+00 )

 nodal point  x-rot      y-rot       z-rot       x-rot vel   y-rot vel   z-rot vel   x-rot acc   y-rot acc   z-rot acc
    22626  2.11564E-02 2.77723E-02-6.77148E-03 1.19646E-02 1.04601E-02-3.14924E-03 3.85085E-03 4.00081E-04-4.18900E-04



 n o d a l   p r i n t   o u t   f o r   t i m e  s t e p   19202                              ( at time 9.5995393E+00 )

 nodal point  x-disp     y-disp      z-disp      x-vel       y-vel       z-vel      x-accl      y-accl      z-accl      x-coor      y-coor      z-coor
    22626  6.30367E-01 3.44127E-01-2.53728E+01 3.01181E-01 7.43170E-02-6.15307E-01 7.87825E-02-1.73245E-02 6.46727E-01 4.85945E+01-2.16857E+01-1.80343E+01



 n o d a l   p r i n t   o u t   f o r   t i m e  s t e p   19202                              ( at time 9.5995393E+00 )

 nodal point  x-rot      y-rot       z-rot       x-rot vel   y-rot vel   z-rot vel   x-rot acc   y-rot acc   z-rot acc
    22626  2.23723E-02 2.88216E-02-7.08873E-03 1.23475E-02 1.05340E-02-3.20591E-03 3.82892E-03 7.38755E-04-5.66715E-04



 n o d a l   p r i n t   o u t   f o r   t i m e  s t e p   19402                              ( at time 9.6995293E+00 )

 nodal point  x-disp     y-disp      z-disp      x-vel       y-vel       z-vel      x-accl      y-accl      z-accl      x-coor      y-coor      z-coor
    22626  6.60882E-01 3.51566E-01-2.54311E+01 3.09612E-01 7.13658E-02-5.53574E-01 8.43190E-02-2.95146E-02 6.17392E-01 4.86251E+01-2.16782E+01-1.80926E+01



 n o d a l   p r i n t   o u t   f o r   t i m e  s t e p   19402                              ( at time 9.6995293E+00 )

 nodal point  x-rot      y-rot       z-rot       x-rot vel   y-rot vel   z-rot vel   x-rot acc   y-rot acc   z-rot acc
    22626  2.36265E-02 2.98763E-02-7.41084E-03 1.26995E-02 1.05787E-02-3.17954E-03 3.52042E-03 4.47918E-04 2.63686E-04



 n o d a l   p r i n t   o u t   f o r   t i m e  s t e p   19602                              ( at time 9.7995193E+00 )

 nodal point  x-disp     y-disp      z-disp      x-vel       y-vel       z-vel      x-accl      y-accl      z-accl      x-coor      y-coor      z-coor
    22626  6.92107E-01 3.58734E-01-2.54831E+01 3.15204E-01 7.15472E-02-4.88613E-01 5.59282E-02 1.81425E-03 6.49676E-01 4.86563E+01-2.16711E+01-1.81446E+01



 n o d a l   p r i n t   o u t   f o r   t i m e  s t e p   19602                              ( at time 9.7995193E+00 )

 nodal point  x-rot      y-rot       z-rot       x-rot vel   y-rot vel   z-rot vel   x-rot acc   y-rot acc   z-rot acc
    22626  2.49163E-02 3.09351E-02-7.73377E-03 1.30908E-02 1.06079E-02-3.23207E-03 3.91326E-03 2.92083E-04-5.25359E-04



 n o d a l   p r i n t   o u t   f o r   t i m e  s t e p   19802                              ( at time 9.8995093E+00 )

 nodal point  x-disp     y-disp      z-disp      x-vel       y-vel       z-vel      x-accl      y-accl      z-accl      x-coor      y-coor      z-coor
    22626  7.23975E-01 3.66184E-01-2.55289E+01 3.21751E-01 7.38577E-02-4.30253E-01 6.54725E-02 2.31067E-02 5.83659E-01 4.86882E+01-2.16636E+01-1.81904E+01



 n o d a l   p r i n t   o u t   f o r   t i m e  s t e p   19802                              ( at time 9.8995093E+00 )

 nodal point  x-rot      y-rot       z-rot       x-rot vel   y-rot vel   z-rot vel   x-rot acc   y-rot acc   z-rot acc
    22626  2.62499E-02 3.19978E-02-8.06468E-03 1.35516E-02 1.06617E-02-3.31561E-03 4.60932E-03 5.37399E-04-8.35481E-04



 n o d a l   p r i n t   o u t   f o r   t i m e  s t e p   20003                              ( at time 9.9999992E+00 )

 nodal point  x-disp     y-disp      z-disp      x-vel       y-vel       z-vel      x-accl      y-accl      z-accl      x-coor      y-coor      z-coor
[...]
    22626  2.59639E-01 1.56175E-01-7.14215E-02 1.88979E-02 8.95845E-03-6.30790E-03-5.29505E-04-1.57436E-04 5.32779E-04



 n o d a l   p r i n t   o u t   f o r   t i m e  s t e p   45205                              ( at time 2.2599738E+01 )

 nodal point  x-disp     y-disp      z-disp      x-vel       y-vel       z-vel      x-accl      y-accl      z-accl      x-coor      y-coor      z-coor
    22626  4.66702E+00 1.09047E+00-2.00602E+01 2.52842E-01-1.33413E-02 5.13766E-01 2.53036E-02-4.84790E-02-4.45568E-02 5.26312E+01-2.09393E+01-1.27217E+01



 n o d a l   p r i n t   o u t   f o r   t i m e  s t e p   45205                              ( at time 2.2599738E+01 )

 nodal point  x-rot      y-rot       z-rot       x-rot vel   y-rot vel   z-rot vel   x-rot acc   y-rot acc   z-rot acc
    22626  2.61526E-01 1.57069E-01-7.20497E-02 1.88388E-02 8.92218E-03-6.25400E-03-5.90866E-04-3.62746E-04 5.39085E-04



 n o d a l   p r i n t   o u t   f o r   t i m e  s t e p   45405                              ( at time 2.2699728E+01 )

 nodal point  x-disp     y-disp      z-disp      x-vel       y-vel       z-vel      x-accl      y-accl      z-accl      x-coor      y-coor      z-coor
    22626  4.69241E+00 1.08887E+00-2.00091E+01 2.55219E-01-1.86529E-02 5.08554E-01 2.37703E-02-5.31217E-02-5.21241E-02 5.26566E+01-2.09409E+01-1.26706E+01



 n o d a l   p r i n t   o u t   f o r   t i m e  s t e p   45405                              ( at time 2.2699728E+01 )

 nodal point  x-rot      y-rot       z-rot       x-rot vel   y-rot vel   z-rot vel   x-rot acc   y-rot acc   z-rot acc
    22626  2.63407E-01 1.57959E-01-7.26723E-02 1.87707E-02 8.89119E-03-6.20173E-03-6.81468E-04-3.09960E-04 5.22707E-04



 n o d a l   p r i n t   o u t   f o r   t i m e  s t e p   45605                              ( at time 2.2799718E+01 )

 nodal point  x-disp     y-disp      z-disp      x-vel       y-vel       z-vel      x-accl      y-accl      z-accl      x-coor      y-coor      z-coor
    22626  4.71808E+00 1.08668E+00-1.99586E+01 2.58196E-01-2.50462E-02 5.02609E-01 2.97690E-02-6.39391E-02-5.94527E-02 5.26823E+01-2.09431E+01-1.26201E+01



 n o d a l   p r i n t   o u t   f o r   t i m e  s t e p   45605                              ( at time 2.2799718E+01 )

 nodal point  x-rot      y-rot       z-rot       x-rot vel   y-rot vel   z-rot vel   x-rot acc   y-rot acc   z-rot acc
    22626  2.65280E-01 1.58846E-01-7.32893E-02 1.87013E-02 8.84769E-03-6.14369E-03-6.94383E-04-4.35005E-04 5.80481E-04



 n o d a l   p r i n t   o u t   f o r   t i m e  s t e p   45805                              ( at time 2.2899708E+01 )

 nodal point  x-disp     y-disp      z-disp      x-vel       y-vel       z-vel      x-accl      y-accl      z-accl      x-coor      y-coor      z-coor
    22626  4.74403E+00 1.08387E+00-1.99086E+01 2.60717E-01-3.10345E-02 4.96025E-01 2.52156E-02-5.98896E-02-6.58478E-02 5.27082E+01-2.09459E+01-1.25701E+01



 n o d a l   p r i n t   o u t   f o r   t i m e  s t e p   45805                              ( at time 2.2899708E+01 )

 nodal point  x-rot      y-rot       z-rot       x-rot vel   y-rot vel   z-rot vel   x-rot acc   y-rot acc   z-rot acc
    22626  2.67146E-01 1.59729E-01-7.39001E-02 1.86243E-02 8.79643E-03-6.07707E-03-7.69544E-04-5.12713E-04 6.66291E-04



 n o d a l   p r i n t   o u t   f o r   t i m e  s t e p   46005                              ( at time 2.2999698E+01 )

 nodal point  x-disp     y-disp      z-disp      x-vel       y-vel       z-vel      x-accl      y-accl      z-accl      x-coor      y-coor      z-coor
    22626  4.77025E+00 1.08048E+00-1.98594E+01 2.63756E-01-3.71787E-02 4.89218E-01 3.03901E-02-6.14468E-02-6.80765E-02 5.27344E+01-2.09493E+01-1.25209E+01



 n o d a l   p r i n t   o u t   f o r   t i m e  s t e p   46005                              ( at time 2.2999698E+01 )

 nodal point  x-rot      y-rot       z-rot       x-rot vel   y-rot vel   z-rot vel   x-rot acc   y-rot acc   z-rot acc
    22626  2.69003E-01 1.60606E-01-7.45044E-02 1.85360E-02 8.74654E-03-6.00910E-03-8.83366E-04-4.98890E-04 6.79713E-04



 n o d a l   p r i n t   o u t   f o r   t i m e  s t e p   46205                              ( at time 2.3099688E+01 )

 nodal point  x-disp     y-disp      z-disp      x-vel       y-vel       z-vel      x-accl      y-accl      z-accl      x-coor      y-coor      z-coor
    22626  4.79675E+00 1.07644E+00-1.98109E+01 2.66402E-01-4.33700E-02 4.81555E-01 2.64665E-02-6.19205E-02-7.66353E-02 5.27609E+01-2.09534E+01-1.24724E+01



 n o d a l   p r i n t   o u t   f o r   t i m e  s t e p   46205                              ( at time 2.3099688E+01 )

 nodal point  x-rot      y-rot       z-rot       x-rot vel   y-rot vel   z-rot vel   x-rot acc   y-rot acc   z-rot acc
    22626  2.70853E-01 1.61477E-01-7.51029E-02 1.84614E-02 8.68395E-03-5.95477E-03-7.46351E-04-6.25974E-04 5.43380E-04



 n o d a l   p r i n t   o u t   f o r   t i m e  s t e p   46405                              ( at time 2.3199678E+01 )

 nodal point  x-disp     y-disp      z-disp      x-vel       y-vel       z-vel      x-accl      y-accl      z-accl      x-coor      y-coor      z-coor
    22626  4.82353E+00 1.07180E+00-1.97631E+01 2.69062E-01-4.92556E-02 4.74290E-01 2.66016E-02-5.88608E-02-7.26585E-02 5.27877E+01-2.09580E+01-1.24246E+01



 n o d a l   p r i n t   o u t   f o r   t i m e  s t e p   46405                              ( at time 2.3199678E+01 )

 nodal point  x-rot      y-rot       z-rot       x-rot vel   y-rot vel   z-rot vel   x-rot acc   y-rot acc   z-rot acc
    22626  2.72695E-01 1.62343E-01-7.56951E-02 1.83827E-02 8.62577E-03-5.89076E-03-7.86239E-04-5.81850E-04 6.40189E-04



 n o d a l   p r i n t   o u t   f o r   t i m e  s t e p   46605                              ( at time 2.3299668E+01 )

 nodal point  x-disp     y-disp      z-disp      x-vel       y-vel       z-vel      x-accl      y-accl      z-accl      x-coor      y-coor      z-coor
    22626  4.85058E+00 1.06657E+00-1.97160E+01 2.71989E-01-5.51279E-02 4.66784E-01 2.92733E-02-5.87298E-02-7.50678E-02 5.28148E+01-2.09632E+01-1.23775E+01



 n o d a l   p r i n t   o u t   f o r   t i m e  s t e p   46605                              ( at time 2.3299668E+01 )

 nodal point  x-rot      y-rot       z-rot       x-rot vel   y-rot vel   z-rot vel   x-rot acc   y-rot acc   z-rot acc
    22626  2.74529E-01 1.63202E-01-7.62811E-02 1.83030E-02 8.56211E-03-5.83589E-03-7.97375E-04-6.36657E-04 5.48712E-04



 n o d a l   p r i n t   o u t   f o r   t i m e  s t e p   46805                              ( at time 2.3399658E+01 )

 nodal point  x-disp     y-disp      z-disp      x-vel       y-vel       z-vel      x-accl      y-accl      z-accl      x-coor      y-coor      z-coor
    22626  4.87791E+00 1.06079E+00-1.96697E+01 2.74548E-01-6.04464E-02 4.59386E-01 2.55936E-02-5.31897E-02-7.39928E-02 5.28421E+01-2.09690E+01-1.23312E+01



 n o d a l   p r i n t   o u t   f o r   t i m e  s t e p   46805                              ( at time 2.3399658E+01 )

 nodal point  x-rot      y-rot       z-rot       x-rot vel   y-rot vel   z-rot vel   x-rot acc   y-rot acc   z-rot acc
    22626  2.76356E-01 1.64055E-01-7.68617E-02 1.82277E-02 8.50546E-03-5.77984E-03-7.53490E-04-5.66622E-04 5.60596E-04



 n o d a l   p r i n t   o u t   f o r   t i m e  s t e p   47005                              ( at time 2.3499648E+01 )

 nodal point  x-disp     y-disp      z-disp      x-vel       y-vel       z-vel      x-accl      y-accl      z-accl      x-coor      y-coor      z-coor
    22626  4.90547E+00 1.05452E+00-1.96242E+01 2.76694E-01-6.48917E-02 4.51955E-01 2.14590E-02-4.44574E-02-7.43171E-02 5.28697E+01-2.09753E+01-1.22857E+01



 n o d a l   p r i n t   o u t   f o r   t i m e  s t e p   47005                              ( at time 2.3499648E+01 )

 nodal point  x-rot      y-rot       z-rot       x-rot vel   y-rot vel   z-rot vel   x-rot acc   y-rot acc   z-rot acc
    22626  2.78175E-01 1.64903E-01-7.74371E-02 1.81655E-02 8.44467E-03-5.72692E-03-6.22125E-04-6.07874E-04 5.29286E-04



 n o d a l   p r i n t   o u t   f o r   t i m e  s t e p   47205                              ( at time 2.3599638E+01 )

 nodal point  x-disp     y-disp      z-disp      x-vel       y-vel       z-vel      x-accl      y-accl      z-accl      x-coor      y-coor      z-coor
    22626  4.93325E+00 1.04784E+00-1.95793E+01 2.78889E-01-6.89704E-02 4.45795E-01 2.19536E-02-4.07915E-02-6.16028E-02 5.28974E+01-2.09820E+01-1.22408E+01



 n o d a l   p r i n t   o u t   f o r   t i m e  s t e p   47205                              ( at time 2.3599638E+01 )

 nodal point  x-rot      y-rot       z-rot       x-rot vel   y-rot vel   z-rot vel   x-rot acc   y-rot acc   z-rot acc
    22626  2.79989E-01 1.65744E-01-7.80068E-02 1.81110E-02 8.39527E-03-5.66839E-03-5.44698E-04-4.94084E-04 5.85289E-04



 n o d a l   p r i n t   o u t   f o r   t i m e  s t e p   47405                              ( at time 2.3699628E+01 )

 nodal point  x-disp     y-disp      z-disp      x-vel       y-vel       z-vel      x-accl      y-accl      z-accl      x-coor      y-coor      z-coor
    22626  4.96124E+00 1.04074E+00-1.95350E+01 2.80701E-01-7.27384E-02 4.38829E-01 1.81274E-02-3.76838E-02-6.96657E-02 5.29254E+01-2.09890E+01-1.21965E+01



 n o d a l   p r i n t   o u t   f o r   t i m e  s t e p   47405                              ( at time 2.3699628E+01 )

 nodal point  x-rot      y-rot       z-rot       x-rot vel   y-rot vel   z-rot vel   x-rot acc   y-rot acc   z-rot acc
    22626  2.81797E-01 1.66581E-01-7.85718E-02 1.80539E-02 8.33373E-03-5.63043E-03-5.71139E-04-6.15493E-04 3.79656E-04



 n o d a l   p r i n t   o u t   f o r   t i m e  s t e p   47605                              ( at time 2.3799618E+01 )

 nodal point  x-disp     y-disp      z-disp      x-vel       y-vel       z-vel      x-accl      y-accl      z-accl      x-coor      y-coor      z-coor
    22626  4.98939E+00 1.03336E+00-1.94915E+01 2.82249E-01-7.50003E-02 4.32668E-01 1.54745E-02-2.26208E-02-6.16192E-02 5.29536E+01-2.09964E+01-1.21530E+01



 n o d a l   p r i n t   o u t   f o r   t i m e  s t e p   47605                              ( at time 2.3799618E+01 )

 nodal point  x-rot      y-rot       z-rot       x-rot vel   y-rot vel   z-rot vel   x-rot acc   y-rot acc   z-rot acc
    22626  2.83599E-01 1.67411E-01-7.91326E-02 1.80073E-02 8.27995E-03-5.58670E-03-4.65955E-04-5.37870E-04 4.37351E-04



 n o d a l   p r i n t   o u t   f o r   t i m e  s t e p   47805                              ( at time 2.3899608E+01 )

 nodal point  x-disp     y-disp      z-disp      x-vel       y-vel       z-vel      x-accl      y-accl      z-accl      x-coor      y-coor      z-coor
    22626  5.01770E+00 1.02571E+00-1.94486E+01 2.83844E-01-7.74861E-02 4.26160E-01 1.59499E-02-2.48611E-02-6.50874E-02 5.29819E+01-2.10041E+01-1.21101E+01



 n o d a l   p r i n t   o u t   f o r   t i m e  s t e p   47805                              ( at time 2.3899608E+01 )

 nodal point  x-rot      y-rot       z-rot       x-rot vel   y-rot vel   z-rot vel   x-rot acc   y-rot acc   z-rot acc
    22626  2.85398E-01 1.68237E-01-7.96887E-02 1.79695E-02 8.22769E-03-5.54567E-03-3.78133E-04-5.22622E-04 4.10308E-04



 n o d a l   p r i n t   o u t   f o r   t i m e  s t e p   48005                              ( at time 2.3999598E+01 )

 nodal point  x-disp     y-disp      z-disp      x-vel       y-vel       z-vel      x-accl      y-accl      z-accl      x-coor      y-coor      z-coor
    22626  5.04614E+00 1.01788E+00-1.94063E+01 2.85151E-01-7.88985E-02 4.19983E-01 1.30811E-02-1.41249E-02-6.17715E-02 5.30103E+01-2.10119E+01-1.20678E+01



 n o d a l   p r i n t   o u t   f o r   t i m e  s t e p   48005                              ( at time 2.3999598E+01 )

 nodal point  x-rot      y-rot       z-rot       x-rot vel   y-rot vel   z-rot vel   x-rot acc   y-rot acc   z-rot acc
    22626  2.87192E-01 1.69057E-01-8.02413E-02 1.79297E-02 8.17526E-03-5.50817E-03-3.98389E-04-5.24383E-04 3.75066E-04



 n o d a l   p r i n t   o u t   f o r   t i m e  s t e p   48205                              ( at time 2.4099588E+01 )

 nodal point  x-disp     y-disp      z-disp      x-vel       y-vel       z-vel      x-accl      y-accl      z-accl      x-coor      y-coor      z-coor
    22626  5.07470E+00 1.00993E+00-1.93645E+01 2.86144E-01-8.00322E-02 4.14420E-01 9.92240E-03-1.13384E-02-5.56398E-02 5.30389E+01-2.10199E+01-1.20260E+01



 n o d a l   p r i n t   o u t   f o r   t i m e  s t e p   48205                              ( at time 2.4099588E+01 )

 nodal point  x-rot      y-rot       z-rot       x-rot vel   y-rot vel   z-rot vel   x-rot acc   y-rot acc   z-rot acc
    22626  2.88984E-01 1.69872E-01-8.07906E-02 1.79027E-02 8.12755E-03-5.47306E-03-2.69624E-04-4.77086E-04 3.51150E-04



 n o d a l   p r i n t   o u t   f o r   t i m e  s t e p   48405                              ( at time 2.4199578E+01 )

 nodal point  x-disp     y-disp      z-disp      x-vel       y-vel       z-vel      x-accl      y-accl      z-accl      x-coor      y-coor      z-coor
    22626  5.10334E+00 1.00192E+00-1.93234E+01 2.86648E-01-8.01368E-02 4.09236E-01 5.04102E-03-1.04610E-03-5.18430E-02 5.30675E+01-2.10279E+01-1.19849E+01



 n o d a l   p r i n t   o u t   f o r   t i m e  s t e p   48405                              ( at time 2.4199578E+01 )

 nodal point  x-rot      y-rot       z-rot       x-rot vel   y-rot vel   z-rot vel   x-rot acc   y-rot acc   z-rot acc
    22626  2.90772E-01 1.70683E-01-8.13365E-02 1.78778E-02 8.08630E-03-5.44930E-03-2.48635E-04-4.12538E-04 2.37621E-04



 n o d a l   p r i n t   o u t   f o r   t i m e  s t e p   48605                              ( at time 2.4299568E+01 )

 nodal point  x-disp     y-disp      z-disp      x-vel       y-vel       z-vel      x-accl      y-accl      z-accl      x-coor      y-coor      z-coor
    22626  5.13205E+00 9.93941E-01-1.92827E+01 2.87364E-01-7.94180E-02 4.04221E-01 7.16454E-03 7.18846E-03-5.01515E-02 5.30962E+01-2.10358E+01-1.19442E+01



 n o d a l   p r i n t   o u t   f o r   t i m e  s t e p   48605                              ( at time 2.4299568E+01 )

 nodal point  x-rot      y-rot       z-rot       x-rot vel   y-rot vel   z-rot vel   x-rot acc   y-rot acc   z-rot acc
    22626  2.92559E-01 1.71489E-01-8.18803E-02 1.78546E-02 8.04060E-03-5.43183E-03-2.32759E-04-4.57051E-04 1.74723E-04



 n o d a l   p r i n t   o u t   f o r   t i m e  s t e p   48805                              ( at time 2.4399558E+01 )

 nodal point  x-disp     y-disp      z-disp      x-vel       y-vel       z-vel      x-accl      y-accl      z-accl      x-coor      y-coor      z-coor
    22626  5.16078E+00 9.86053E-01-1.92425E+01 2.87459E-01-7.81034E-02 4.00042E-01 9.51079E-04 1.31479E-02-4.17959E-02 5.31250E+01-2.10437E+01-1.19040E+01



 n o d a l   p r i n t   o u t   f o r   t i m e  s t e p   48805                              ( at time 2.4399558E+01 )

 nodal point  x-rot      y-rot       z-rot       x-rot vel   y-rot vel   z-rot vel   x-rot acc   y-rot acc   z-rot acc
    22626  2.94344E-01 1.72292E-01-8.24215E-02 1.78516E-02 8.00934E-03-5.40457E-03-2.99541E-05-3.12683E-04 2.72674E-04



 n o d a l   p r i n t   o u t   f o r   t i m e  s t e p   49006                              ( at time 2.4500048E+01 )

 nodal point  x-disp     y-disp      z-disp      x-vel       y-vel       z-vel      x-accl      y-accl      z-accl      x-coor      y-coor      z-coor
    22626  5.18967E+00 9.78241E-01-1.92025E+01 2.87536E-01-7.72325E-02 3.95835E-01 7.63678E-04 8.66604E-03-4.18641E-02 5.31539E+01-2.10515E+01-1.18640E+01



 n o d a l   p r i n t   o u t   f o r   t i m e  s t e p   49006                              ( at time 2.4500048E+01 )

 nodal point  x-rot      y-rot       z-rot       x-rot vel   y-rot vel   z-rot vel   x-rot acc   y-rot acc   z-rot acc
    22626  2.96137E-01 1.73095E-01-8.29633E-02 1.78354E-02 7.98033E-03-5.38267E-03-1.61058E-04-2.88613E-04 2.17847E-04



 n o d a l   p r i n t   o u t   f o r   t i m e  s t e p   49206                              ( at time 2.4600038E+01 )

 nodal point  x-disp     y-disp      z-disp      x-vel       y-vel       z-vel      x-accl      y-accl      z-accl      x-coor      y-coor      z-coor
    22626  5.21840E+00 9.70606E-01-1.91631E+01 2.87382E-01-7.52708E-02 3.91626E-01-1.54152E-03 1.96193E-02-4.20940E-02 5.31826E+01-2.10592E+01-1.18246E+01



 n o d a l   p r i n t   o u t   f o r   t i m e  s t e p   49206                              ( at time 2.4600038E+01 )

 nodal point  x-rot      y-rot       z-rot       x-rot vel   y-rot vel   z-rot vel   x-rot acc   y-rot acc   z-rot acc
    22626  2.97920E-01 1.73891E-01-8.35008E-02 1.78309E-02 7.94794E-03-5.36638E-03-4.48193E-05-3.23944E-04 1.62964E-04



 n o d a l   p r i n t   o u t   f o r   t i m e  s t e p   49406                              ( at time 2.4700028E+01 )

 nodal point  x-disp     y-disp      z-disp      x-vel       y-vel       z-vel      x-accl      y-accl      z-accl      x-coor      y-coor      z-coor
    22626  5.24711E+00 9.63191E-01-1.91241E+01 2.86868E-01-7.33803E-02 3.88702E-01-5.13968E-03 1.89064E-02-2.92429E-02 5.32113E+01-2.10666E+01-1.17856E+01



 n o d a l   p r i n t   o u t   f o r   t i m e  s t e p   49406                              ( at time 2.4700028E+01 )

 nodal point  x-rot      y-rot       z-rot       x-rot vel   y-rot vel   z-rot vel   x-rot acc   y-rot acc   z-rot acc
    22626  2.99703E-01 1.74685E-01-8.40366E-02 1.78290E-02 7.91925E-03-5.35029E-03-1.95041E-05-2.86926E-04 1.60936E-04



 n o d a l   p r i n t   o u t   f o r   t i m e  s t e p   49606                              ( at time 2.4800018E+01 )

 nodal point  x-disp     y-disp      z-disp      x-vel       y-vel       z-vel      x-accl      y-accl      z-accl      x-coor      y-coor      z-coor
    22626  5.27576E+00 9.55939E-01-1.90855E+01 2.85970E-01-7.14359E-02 3.84631E-01-8.98026E-03 1.94464E-02-4.07116E-02 5.32399E+01-2.10739E+01-1.17470E+01



 n o d a l   p r i n t   o u t   f o r   t i m e  s t e p   49606                              ( at time 2.4800018E+01 )

 nodal point  x-rot      y-rot       z-rot       x-rot vel   y-rot vel   z-rot vel   x-rot acc   y-rot acc   z-rot acc
    22626  3.01486E-01 1.75474E-01-8.45705E-02 1.78265E-02 7.88622E-03-5.33392E-03-2.44960E-05-3.30333E-04 1.63700E-04



 n o d a l   p r i n t   o u t   f o r   t i m e  s t e p   49806                              ( at time 2.4900008E+01 )

 nodal point  x-disp     y-disp      z-disp      x-vel       y-vel       z-vel      x-accl      y-accl      z-accl      x-coor      y-coor      z-coor
    22626  5.30433E+00 9.48901E-01-1.90472E+01 2.85509E-01-6.94856E-02 3.81683E-01-4.61451E-03 1.95050E-02-2.94858E-02 5.32685E+01-2.10809E+01-1.17087E+01



 n o d a l   p r i n t   o u t   f o r   t i m e  s t e p   49806                              ( at time 2.4900008E+01 )

 nodal point  x-rot      y-rot       z-rot       x-rot vel   y-rot vel   z-rot vel   x-rot acc   y-rot acc   z-rot acc
    22626  3.03268E-01 1.76262E-01-8.51033E-02 1.78209E-02 7.85782E-03-5.32174E-03-5.65748E-05-2.84038E-04 1.21784E-04



 n o d a l   p r i n t   o u t   f o r   t i m e  s t e p   50006                              ( at time 2.4999998E+01 )

 nodal point  x-disp     y-disp      z-disp      x-vel       y-vel       z-vel      x-accl      y-accl      z-accl      x-coor      y-coor      z-coor
    22626  5.33284E+00 9.42055E-01-1.90092E+01 2.84620E-01-6.73003E-02 3.78852E-01-8.88608E-03 2.18551E-02-2.83178E-02 5.32970E+01-2.10877E+01-1.16707E+01



 n o d a l   p r i n t   o u t   f o r   t i m e  s t e p   50006                              ( at time 2.4999998E+01 )

 nodal point  x-rot      y-rot       z-rot       x-rot vel   y-rot vel   z-rot vel   x-rot acc   y-rot acc   z-rot acc
    22626  3.05051E-01 1.77047E-01-8.56346E-02 1.78332E-02 7.83748E-03-5.31038E-03 1.23113E-04-2.03438E-04 1.13604E-04
