 LSTC 50th% Full_FE H-III Dummy (Beta Version, February 17, 2019)        
                    ls-dyna smp s R16 R16.0_619_d222963 date 03/18/2025

{BEGIN LEGEND}
 Entity #        Title
    22626                                                                                     
{END LEGEND}




 n o d a l   p r i n t   o u t   f o r   t i m e  s t e p       1                              ( at time 0.0000000E+00 )

 nodal point  x-disp     y-disp      z-disp      x-vel       y-vel       z-vel      x-accl      y-accl      z-accl      x-coor      y-coor      z-coor
    22626  0.00000E+00 0.00000E+00 0.00000E+00 0.00000E+00 0.00000E+00 0.00000E+00 0.00000E+00 0.00000E+00 0.00000E+00 4.65938E+00-2.81908E+01-4.49817E+01



 n o d a l   p r i n t   o u t   f o r   t i m e  s t e p       1                              ( at time 0.0000000E+00 )

 nodal point  x-rot      y-rot       z-rot       x-rot vel   y-rot vel   z-rot vel   x-rot acc   y-rot acc   z-rot acc
    22626  0.00000E+00 0.00000E+00 0.00000E+00 0.00000E+00 0.00000E+00 0.00000E+00 0.00000E+00 0.00000E+00 0.00000E+00



 n o d a l   p r i n t   o u t   f o r   t i m e  s t e p     201                              ( at time 9.9989993E-02 )

 nodal point  x-disp     y-disp      z-disp      x-vel       y-vel       z-vel      x-accl      y-accl      z-accl      x-coor      y-coor      z-coor
    22626  2.73575E-07 1.73669E-06-5.34278E-05 4.19752E-05 2.55596E-04-1.46819E-03 4.19794E-04 2.55621E-03-1.46834E-02 4.65938E+00-2.81908E+01-4.49818E+01



 n o d a l   p r i n t   o u t   f o r   t i m e  s t e p     201                              ( at time 9.9989993E-02 )

 nodal point  x-rot      y-rot       z-rot       x-rot vel   y-rot vel   z-rot vel   x-rot acc   y-rot acc   z-rot acc
    22626 -5.98981E-08-8.38467E-09-5.45921E-09-5.86955E-06-9.69951E-07-9.27110E-07-5.87014E-05-9.70048E-06-9.27203E-06



 n o d a l   p r i n t   o u t   f o r   t i m e  s t e p     401                              ( at time 1.9997999E-01 )

 nodal point  x-disp     y-disp      z-disp      x-vel       y-vel       z-vel      x-accl      y-accl      z-accl      x-coor      y-coor      z-coor
    22626  1.73015E-05 3.61746E-04-6.67584E-04 2.96983E-05 7.81150E-03-1.21544E-02-1.22781E-04 7.55666E-02-1.06873E-01 4.65939E+00-2.81905E+01-4.49824E+01



 n o d a l   p r i n t   o u t   f o r   t i m e  s t e p     401                              ( at time 1.9997999E-01 )

 nodal point  x-rot      y-rot       z-rot       x-rot vel   y-rot vel   z-rot vel   x-rot acc   y-rot acc   z-rot acc
    22626 -2.81975E-06-3.36964E-07-3.34400E-07-3.94114E-05-1.73946E-06-2.27183E-06-3.35452E-04-7.69588E-06-1.34486E-05



 n o d a l   p r i n t   o u t   f o r   t i m e  s t e p     601                              ( at time 2.9996998E-01 )

 nodal point  x-disp     y-disp      z-disp      x-vel       y-vel       z-vel      x-accl      y-accl      z-accl      x-coor      y-coor      z-coor
    22626  2.73109E-05 1.23985E-03-2.33815E-03 4.16993E-04 8.44190E-03-1.92434E-02 3.87333E-03 6.30467E-03-7.08974E-02 4.65940E+00-2.81896E+01-4.49841E+01



 n o d a l   p r i n t   o u t   f o r   t i m e  s t e p     601                              ( at time 2.9996998E-01 )

 nodal point  x-rot      y-rot       z-rot       x-rot vel   y-rot vel   z-rot vel   x-rot acc   y-rot acc   z-rot acc
    22626 -5.37714E-06-3.88956E-07-6.42151E-07-1.51654E-05-5.41596E-06-6.70207E-06 2.42483E-04-3.67686E-05-4.43068E-05



 n o d a l   p r i n t   o u t   f o r   t i m e  s t e p     801                              ( at time 3.9995997E-01 )

 nodal point  x-disp     y-disp      z-disp      x-vel       y-vel       z-vel      x-accl      y-accl      z-accl      x-coor      y-coor      z-coor
    22626  2.57211E-05 2.15918E-03-4.27899E-03-3.16964E-04 1.06781E-02-2.10127E-02-7.34030E-03 2.23638E-02-1.76950E-02 4.65940E+00-2.81887E+01-4.49860E+01



 n o d a l   p r i n t   o u t   f o r   t i m e  s t e p     801                              ( at time 3.9995997E-01 )

 nodal point  x-rot      y-rot       z-rot       x-rot vel   y-rot vel   z-rot vel   x-rot acc   y-rot acc   z-rot acc
    22626 -7.51976E-06-1.24152E-06-9.64450E-07-4.29261E-05-6.10935E-06-1.12561E-06-2.77635E-04-6.93458E-06 5.57702E-05



 n o d a l   p r i n t   o u t   f o r   t i m e  s t e p    1001                              ( at time 4.9994997E-01 )

 nodal point  x-disp     y-disp      z-disp      x-vel       y-vel       z-vel      x-accl      y-accl      z-accl      x-coor      y-coor      z-coor
    22626  2.11792E-06 3.42609E-03-6.72564E-03-2.55714E-04 1.40761E-02-2.84464E-02 6.12564E-04 3.39842E-02-7.43435E-02 4.65938E+00-2.81874E+01-4.49884E+01



 n o d a l   p r i n t   o u t   f o r   t i m e  s t e p    1001                              ( at time 4.9994997E-01 )

 nodal point  x-rot      y-rot       z-rot       x-rot vel   y-rot vel   z-rot vel   x-rot acc   y-rot acc   z-rot acc
    22626 -1.30974E-05-1.15479E-06-8.67570E-07-7.86599E-05 3.06779E-06 4.92896E-06-3.57373E-04 9.17806E-05 6.05518E-05



 n o d a l   p r i n t   o u t   f o r   t i m e  s t e p    1201                              ( at time 5.9993996E-01 )

 nodal point  x-disp     y-disp      z-disp      x-vel       y-vel       z-vel      x-accl      y-accl      z-accl      x-coor      y-coor      z-coor
    22626 -4.43682E-06 4.98846E-03-9.66442E-03 1.54753E-05 1.64807E-02-3.06473E-02 2.71216E-03 2.40479E-02-2.20121E-02 4.65937E+00-2.81858E+01-4.49914E+01



 n o d a l   p r i n t   o u t   f o r   t i m e  s t e p    1201                              ( at time 5.9993996E-01 )

 nodal point  x-rot      y-rot       z-rot       x-rot vel   y-rot vel   z-rot vel   x-rot acc   y-rot acc   z-rot acc
    22626 -1.91047E-05-8.68209E-07-7.72573E-07-5.01200E-05 4.22895E-06-8.50163E-07 2.85427E-04 1.16128E-05-5.77971E-05



 n o d a l   p r i n t   o u t   f o r   t i m e  s t e p    1401                              ( at time 6.9992995E-01 )

 nodal point  x-disp     y-disp      z-disp      x-vel       y-vel       z-vel      x-accl      y-accl      z-accl      x-coor      y-coor      z-coor
    22626 -5.67012E-05 6.80152E-03-1.30819E-02-5.07824E-04 1.93781E-02-3.85183E-02-5.23352E-03 2.89772E-02-7.87172E-02 4.65932E+00-2.81840E+01-4.49948E+01



 n o d a l   p r i n t   o u t   f o r   t i m e  s t e p    1401                              ( at time 6.9992995E-01 )

 nodal point  x-rot      y-rot       z-rot       x-rot vel   y-rot vel   z-rot vel   x-rot acc   y-rot acc   z-rot acc
    22626 -2.39178E-05-8.32906E-07-3.25793E-07-5.69120E-05 8.55202E-07 5.33054E-06-6.79270E-05-3.37409E-05 6.18132E-05



 n o d a l   p r i n t   o u t   f o r   t i m e  s t e p    1601                              ( at time 7.9991994E-01 )

 nodal point  x-disp     y-disp      z-disp      x-vel       y-vel       z-vel      x-accl      y-accl      z-accl      x-coor      y-coor      z-coor
    22626 -8.88082E-05 8.90111E-03-1.73094E-02-5.25363E-04 2.17077E-02-4.42408E-02-1.75407E-04 2.32978E-02-5.72311E-02 4.65929E+00-2.81819E+01-4.49990E+01



 n o d a l   p r i n t   o u t   f o r   t i m e  s t e p    1601                              ( at time 7.9991994E-01 )

 nodal point  x-rot      y-rot       z-rot       x-rot vel   y-rot vel   z-rot vel   x-rot acc   y-rot acc   z-rot acc
    22626 -3.03843E-05-7.90046E-07-5.93764E-09-7.08473E-05-4.60847E-06 4.02033E-06-1.39367E-04-5.46422E-05-1.31035E-05



 n o d a l   p r i n t   o u t   f o r   t i m e  s t e p    1801                              ( at time 8.9990994E-01 )

 nodal point  x-disp     y-disp      z-disp      x-vel       y-vel       z-vel      x-accl      y-accl      z-accl      x-coor      y-coor      z-coor
    22626 -1.29733E-04 1.11162E-02-2.17334E-02-3.57975E-04 2.34706E-02-4.44637E-02 1.67404E-03 1.76310E-02-2.22933E-03 4.65925E+00-2.81797E+01-4.50035E+01



 n o d a l   p r i n t   o u t   f o r   t i m e  s t e p    1801                              ( at time 8.9990994E-01 )

 nodal point  x-rot      y-rot       z-rot       x-rot vel   y-rot vel   z-rot vel   x-rot acc   y-rot acc   z-rot acc
    22626 -3.63443E-05-8.29078E-07 2.87881E-07-5.44848E-05 2.48345E-06 2.40734E-06 1.63642E-04 7.09263E-05-1.61315E-05



 n o d a l   p r i n t   o u t   f o r   t i m e  s t e p    2001                              ( at time 9.9989993E-01 )

 nodal point  x-disp     y-disp      z-disp      x-vel       y-vel       z-vel      x-accl      y-accl      z-accl      x-coor      y-coor      z-coor
    22626 -1.68200E-04 1.35831E-02-2.63500E-02-3.38491E-05 2.56680E-02-4.86291E-02 3.24159E-03 2.19759E-02-4.16582E-02 4.65921E+00-2.81772E+01-4.50081E+01



 n o d a l   p r i n t   o u t   f o r   t i m e  s t e p    2001                              ( at time 9.9989993E-01 )

 nodal point  x-rot      y-rot       z-rot       x-rot vel   y-rot vel   z-rot vel   x-rot acc   y-rot acc   z-rot acc
    22626 -4.21398E-05-7.04757E-07 6.58772E-07-6.85698E-05 2.12178E-06-8.31346E-08-1.40864E-04-3.61707E-06-2.49072E-05



 n o d a l   p r i n t   o u t   f o r   t i m e  s t e p    2201                              ( at time 1.0998899E+00 )

 nodal point  x-disp     y-disp      z-disp      x-vel       y-vel       z-vel      x-accl      y-accl      z-accl      x-coor      y-coor      z-coor
    22626 -1.80812E-04 1.62294E-02-3.15183E-02-4.12164E-04 2.78019E-02-5.43672E-02-3.78353E-03 2.13418E-02-5.73867E-02 4.65919E+00-2.81746E+01-4.50132E+01



 n o d a l   p r i n t   o u t   f o r   t i m e  s t e p    2201                              ( at time 1.0998899E+00 )

 nodal point  x-rot      y-rot       z-rot       x-rot vel   y-rot vel   z-rot vel   x-rot acc   y-rot acc   z-rot acc
    22626 -4.90355E-05-7.24788E-07 7.26627E-07-5.70069E-05-6.60192E-06 2.18613E-06 1.15641E-04-8.72458E-05 2.26950E-05



 n o d a l   p r i n t   o u t   f o r   t i m e  s t e p    2401                              ( at time 1.1998799E+00 )

 nodal point  x-disp     y-disp      z-disp      x-vel       y-vel       z-vel      x-accl      y-accl      z-accl      x-coor      y-coor      z-coor
    22626 -2.13640E-04 1.90556E-02-3.72094E-02-2.06662E-04 2.90131E-02-5.91383E-02 2.05523E-03 1.21128E-02-4.77153E-02 4.65916E+00-2.81718E+01-4.50189E+01



 n o d a l   p r i n t   o u t   f o r   t i m e  s t e p    2401                              ( at time 1.1998799E+00 )

 nodal point  x-rot      y-rot       z-rot       x-rot vel   y-rot vel   z-rot vel   x-rot acc   y-rot acc   z-rot acc
    22626 -5.39508E-05-1.22842E-06 9.00053E-07-4.57964E-05-5.77926E-06 1.16862E-06 1.12116E-04 8.22747E-06-1.01762E-05



 n o d a l   p r i n t   o u t   f o r   t i m e  s t e p    2601                              ( at time 1.2998699E+00 )

 nodal point  x-disp     y-disp      z-disp      x-vel       y-vel       z-vel      x-accl      y-accl      z-accl      x-coor      y-coor      z-coor
    22626 -2.48834E-04 2.20710E-02-4.32462E-02-2.67081E-04 3.10688E-02-6.13852E-02-6.04258E-04 2.05595E-02-2.24713E-02 4.65913E+00-2.81688E+01-4.50250E+01



 n o d a l   p r i n t   o u t   f o r   t i m e  s t e p    2601                              ( at time 1.2998699E+00 )

 nodal point  x-rot      y-rot       z-rot       x-rot vel   y-rot vel   z-rot vel   x-rot acc   y-rot acc   z-rot acc
    22626 -5.88598E-05-1.58127E-06 1.10969E-06-6.22866E-05 1.84773E-06 3.89866E-06-1.64918E-04 7.62775E-05 2.73031E-05



 n o d a l   p r i n t   o u t   f o r   t i m e  s t e p    2801                              ( at time 1.3998599E+00 )

 nodal point  x-disp     y-disp      z-disp      x-vel       y-vel       z-vel      x-accl      y-accl      z-accl      x-coor      y-coor      z-coor
    22626 -2.78434E-04 2.52688E-02-4.94750E-02-4.37027E-04 3.26619E-02-6.38689E-02-1.69963E-03 1.59320E-02-2.48391E-02 4.65910E+00-2.81656E+01-4.50312E+01



 n o d a l   p r i n t   o u t   f o r   t i m e  s t e p    2801                              ( at time 1.3998599E+00 )

 nodal point  x-rot      y-rot       z-rot       x-rot vel   y-rot vel   z-rot vel   x-rot acc   y-rot acc   z-rot acc
    22626 -6.51017E-05-1.24874E-06 1.54700E-06-6.00822E-05 1.94607E-06 6.55302E-06 2.20464E-05 9.83482E-07 2.65463E-05



 n o d a l   p r i n t   o u t   f o r   t i m e  s t e p    3001                              ( at time 1.4998499E+00 )

 nodal point  x-disp     y-disp      z-disp      x-vel       y-vel       z-vel      x-accl      y-accl      z-accl      x-coor      y-coor      z-coor
    22626 -3.21037E-04 2.86723E-02-5.61987E-02-4.27828E-04 3.52692E-02-7.09003E-02 9.19991E-05 2.60754E-02-7.03217E-02 4.65905E+00-2.81622E+01-4.50379E+01



 n o d a l   p r i n t   o u t   f o r   t i m e  s t e p    3001                              ( at time 1.4998499E+00 )

 nodal point  x-rot      y-rot       z-rot       x-rot vel   y-rot vel   z-rot vel   x-rot acc   y-rot acc   z-rot acc
    22626 -7.01950E-05-1.01620E-06 2.07061E-06-4.13280E-05 1.43716E-06 2.82556E-06 1.87560E-04-5.08961E-06-3.72783E-05



 n o d a l   p r i n t   o u t   f o r   t i m e  s t e p    3201                              ( at time 1.5998399E+00 )

 nodal point  x-disp     y-disp      z-disp      x-vel       y-vel       z-vel      x-accl      y-accl      z-accl      x-coor      y-coor      z-coor
    22626 -3.82935E-04 3.23606E-02-6.35859E-02-5.14884E-04 3.83179E-02-7.61003E-02-8.70646E-04 3.04908E-02-5.20047E-02 4.65899E+00-2.81585E+01-4.50453E+01



 n o d a l   p r i n t   o u t   f o r   t i m e  s t e p    3201                              ( at time 1.5998399E+00 )

 nodal point  x-rot      y-rot       z-rot       x-rot vel   y-rot vel   z-rot vel   x-rot acc   y-rot acc   z-rot acc
    22626 -7.38005E-05-8.45534E-07 2.73351E-06-4.02100E-05 1.09515E-06 7.50110E-06 1.11809E-05-3.42041E-06 4.67601E-05



 n o d a l   p r i n t   o u t   f o r   t i m e  s t e p    3401                              ( at time 1.6998299E+00 )

 nodal point  x-disp     y-disp      z-disp      x-vel       y-vel       z-vel      x-accl      y-accl      z-accl      x-coor      y-coor      z-coor
    22626 -4.36685E-04 3.62682E-02-7.13458E-02-6.42502E-04 3.95771E-02-7.86983E-02-1.27631E-03 1.25930E-02-2.59828E-02 4.65894E+00-2.81546E+01-4.50531E+01



 n o d a l   p r i n t   o u t   f o r   t i m e  s t e p    3401                              ( at time 1.6998299E+00 )

 nodal point  x-rot      y-rot       z-rot       x-rot vel   y-rot vel   z-rot vel   x-rot acc   y-rot acc   z-rot acc
    22626 -7.81380E-05-4.61237E-07 3.31114E-06-4.46826E-05 5.77662E-06 7.72971E-06-4.47305E-05 4.68194E-05 2.28632E-06



 n o d a l   p r i n t   o u t   f o r   t i m e  s t e p    3601                              ( at time 1.7998199E+00 )

 nodal point  x-disp     y-disp      z-disp      x-vel       y-vel       z-vel      x-accl      y-accl      z-accl      x-coor      y-coor      z-coor
    22626 -4.91687E-04 4.02500E-02-7.93199E-02-4.69221E-04 4.04769E-02-8.07149E-02 1.73299E-03 8.99916E-03-2.01679E-02 4.65888E+00-2.81506E+01-4.50610E+01



 n o d a l   p r i n t   o u t   f o r   t i m e  s t e p    3601                              ( at time 1.7998199E+00 )

 nodal point  x-rot      y-rot       z-rot       x-rot vel   y-rot vel   z-rot vel   x-rot acc   y-rot acc   z-rot acc
    22626 -8.25780E-05-2.14060E-08 3.77869E-06-3.86126E-05 4.61233E-06 1.55705E-06 6.07061E-05-1.16441E-05-6.17329E-05



 n o d a l   p r i n t   o u t   f o r   t i m e  s t e p    3801                              ( at time 1.8998099E+00 )

 nodal point  x-disp     y-disp      z-disp      x-vel       y-vel       z-vel      x-accl      y-accl      z-accl      x-coor      y-coor      z-coor
    22626 -5.40982E-04 4.44411E-02-8.75754E-02-3.92471E-04 4.31403E-02-8.45817E-02 7.67569E-04 2.66366E-02-3.86719E-02 4.65883E+00-2.81464E+01-4.50693E+01



 n o d a l   p r i n t   o u t   f o r   t i m e  s t e p    3801                              ( at time 1.8998099E+00 )

 nodal point  x-rot      y-rot       z-rot       x-rot vel   y-rot vel   z-rot vel   x-rot acc   y-rot acc   z-rot acc
    22626 -8.59125E-05 5.78715E-07 4.07222E-06-3.11120E-05 3.09020E-06 1.98676E-07 7.50142E-05-1.52229E-05-1.35851E-05



 n o d a l   p r i n t   o u t   f o r   t i m e  s t e p    4001                              ( at time 1.9997999E+00 )

 nodal point  x-disp     y-disp      z-disp      x-vel       y-vel       z-vel      x-accl      y-accl      z-accl      x-coor      y-coor      z-coor
    22626 -5.79289E-04 4.87819E-02-9.62471E-02-3.94209E-04 4.39647E-02-8.86626E-02-1.73785E-05 8.24482E-03-4.08128E-02 4.65880E+00-2.81420E+01-4.50780E+01



 n o d a l   p r i n t   o u t   f o r   t i m e  s t e p    4001                              ( at time 1.9997999E+00 )

 nodal point  x-rot      y-rot       z-rot       x-rot vel   y-rot vel   z-rot vel   x-rot acc   y-rot acc   z-rot acc
    22626 -8.89470E-05 8.05010E-07 4.10058E-06-3.61814E-05-7.92893E-09-1.20609E-08-5.06994E-05-3.09843E-05-2.10758E-06



 n o d a l   p r i n t   o u t   f o r   t i m e  s t e p    4201                              ( at time 2.0997899E+00 )

 nodal point  x-disp     y-disp      z-disp      x-vel       y-vel       z-vel      x-accl      y-accl      z-accl      x-coor      y-coor      z-coor
    22626 -6.23515E-04 5.32113E-02-1.05212E-01-5.18211E-04 4.48716E-02-9.06570E-02-1.24015E-03 9.06942E-03-1.99466E-02 4.65875E+00-2.81376E+01-4.50869E+01



 n o d a l   p r i n t   o u t   f o r   t i m e  s t e p    4201                              ( at time 2.0997899E+00 )

 nodal point  x-rot      y-rot       z-rot       x-rot vel   y-rot vel   z-rot vel   x-rot acc   y-rot acc   z-rot acc
    22626 -9.19568E-05 8.23259E-07 3.95222E-06-2.61326E-05 1.84519E-06 1.71533E-06 1.00498E-04 1.85331E-05 1.72756E-05



 n o d a l   p r i n t   o u t   f o r   t i m e  s t e p    4401                              ( at time 2.1997798E+00 )

 nodal point  x-disp     y-disp      z-disp      x-vel       y-vel       z-vel      x-accl      y-accl      z-accl      x-coor      y-coor      z-coor
    22626 -6.68817E-04 5.77554E-02-1.14345E-01-4.26893E-04 4.57256E-02-9.20631E-02 9.13274E-04 8.54083E-03-1.40619E-02 4.65871E+00-2.81331E+01-4.50961E+01



 n o d a l   p r i n t   o u t   f o r   t i m e  s t e p    4401                              ( at time 2.1997798E+00 )

 nodal point  x-rot      y-rot       z-rot       x-rot vel   y-rot vel   z-rot vel   x-rot acc   y-rot acc   z-rot acc
    22626 -9.47906E-05 1.18669E-06 3.76058E-06-3.28175E-05 2.94897E-06-3.30091E-06-6.68559E-05 1.10389E-05-5.01674E-05



 n o d a l   p r i n t   o u t   f o r   t i m e  s t e p    4601                              ( at time 2.2997698E+00 )

 nodal point  x-disp     y-disp      z-disp      x-vel       y-vel       z-vel      x-accl      y-accl      z-accl      x-coor      y-coor      z-coor
    22626 -7.14431E-04 6.23535E-02-1.23627E-01-5.02091E-04 4.66268E-02-9.41508E-02-7.52054E-04 9.01367E-03-2.08794E-02 4.65866E+00-2.81285E+01-4.51053E+01



 n o d a l   p r i n t   o u t   f o r   t i m e  s t e p    4601                              ( at time 2.2997698E+00 )

 nodal point  x-rot      y-rot       z-rot       x-rot vel   y-rot vel   z-rot vel   x-rot acc   y-rot acc   z-rot acc
    22626 -9.85964E-05 1.68940E-06 3.59933E-06-3.48866E-05 5.24161E-06-2.93719E-06-2.06934E-05 2.29286E-05 3.63748E-06



 n o d a l   p r i n t   o u t   f o r   t i m e  s t e p    4801                              ( at time 2.3997598E+00 )

 nodal point  x-disp     y-disp      z-disp      x-vel       y-vel       z-vel      x-accl      y-accl      z-accl      x-coor      y-coor      z-coor
    22626 -7.86097E-04 6.71322E-02-1.33287E-01-6.75755E-04 4.86733E-02-9.89873E-02-1.73681E-03 2.04670E-02-4.83697E-02 4.65859E+00-2.81237E+01-4.51150E+01



 n o d a l   p r i n t   o u t   f o r   t i m e  s t e p    4801                              ( at time 2.3997598E+00 )

 nodal point  x-rot      y-rot       z-rot       x-rot vel   y-rot vel   z-rot vel   x-rot acc   y-rot acc   z-rot acc
    22626 -1.01970E-04 2.11882E-06 3.65687E-06-3.39980E-05 5.27584E-06 1.40446E-06 8.88724E-06 3.42327E-07 4.34209E-05



 n o d a l   p r i n t   o u t   f o r   t i m e  s t e p    5001                              ( at time 2.4997498E+00 )

 nodal point  x-disp     y-disp      z-disp      x-vel       y-vel       z-vel      x-accl      y-accl      z-accl      x-coor      y-coor      z-coor
    22626 -8.59175E-04 7.20921E-02-1.43346E-01-9.30613E-04 4.99441E-02-1.01452E-01-2.54883E-03 1.27089E-02-2.46493E-02 4.65852E+00-2.81187E+01-4.51251E+01



 n o d a l   p r i n t   o u t   f o r   t i m e  s t e p    5001                              ( at time 2.4997498E+00 )

 nodal point  x-rot      y-rot       z-rot       x-rot vel   y-rot vel   z-rot vel   x-rot acc   y-rot acc   z-rot acc
    22626 -1.05321E-04 2.68117E-06 3.58427E-06-3.16255E-05 6.49488E-06 1.87792E-06 2.37266E-05 1.21916E-05 4.73502E-06



 n o d a l   p r i n t   o u t   f o r   t i m e  s t e p    5201                              ( at time 2.5997398E+00 )

 nodal point  x-disp     y-disp      z-disp      x-vel       y-vel       z-vel      x-accl      y-accl      z-accl      x-coor      y-coor      z-coor
    22626 -9.44334E-04 7.70972E-02-1.53507E-01-9.46268E-04 5.00876E-02-1.01712E-01-1.56565E-04 1.43520E-03-2.59880E-03 4.65843E+00-2.81137E+01-4.51352E+01



 n o d a l   p r i n t   o u t   f o r   t i m e  s t e p    5201                              ( at time 2.5997398E+00 )

 nodal point  x-rot      y-rot       z-rot       x-rot vel   y-rot vel   z-rot vel   x-rot acc   y-rot acc   z-rot acc
    22626 -1.08629E-04 3.50077E-06 3.66375E-06-3.24684E-05 9.62821E-06 1.11871E-06-8.42965E-06 3.13365E-05-7.59280E-06



 n o d a l   p r i n t   o u t   f o r   t i m e  s t e p    5401                              ( at time 2.6997298E+00 )

 nodal point  x-disp     y-disp      z-disp      x-vel       y-vel       z-vel      x-accl      y-accl      z-accl      x-coor      y-coor      z-coor
    22626 -1.03715E-03 8.21011E-02-1.63691E-01-7.29104E-04 5.03533E-02-1.02220E-01 2.17185E-03 2.65721E-03-5.08195E-03 4.65834E+00-2.81087E+01-4.51454E+01



 n o d a l   p r i n t   o u t   f o r   t i m e  s t e p    5401                              ( at time 2.6997298E+00 )

 nodal point  x-rot      y-rot       z-rot       x-rot vel   y-rot vel   z-rot vel   x-rot acc   y-rot acc   z-rot acc
    22626 -1.12669E-04 4.40645E-06 3.82527E-06-4.83675E-05 1.03577E-05-2.33830E-07-1.59006E-04 7.29530E-06-1.35268E-05



 n o d a l   p r i n t   o u t   f o r   t i m e  s t e p    5601                              ( at time 2.7997198E+00 )

 nodal point  x-disp     y-disp      z-disp      x-vel       y-vel       z-vel      x-accl      y-accl      z-accl      x-coor      y-coor      z-coor
    22626 -1.12641E-03 8.71821E-02-1.73981E-01-9.16067E-04 5.11578E-02-1.03855E-01-1.86982E-03 8.04528E-03-1.63505E-02 4.65825E+00-2.81036E+01-4.51557E+01



 n o d a l   p r i n t   o u t   f o r   t i m e  s t e p    5601                              ( at time 2.7997198E+00 )

 nodal point  x-rot      y-rot       z-rot       x-rot vel   y-rot vel   z-rot vel   x-rot acc   y-rot acc   z-rot acc
    22626 -1.16713E-04 5.36862E-06 3.94235E-06-3.18338E-05 7.69208E-06 1.34511E-06 1.65354E-04-2.66586E-05 1.57910E-05



 n o d a l   p r i n t   o u t   f o r   t i m e  s t e p    5801                              ( at time 2.8997098E+00 )

 nodal point  x-disp     y-disp      z-disp      x-vel       y-vel       z-vel      x-accl      y-accl      z-accl      x-coor      y-coor      z-coor
    22626 -1.20120E-03 9.22938E-02-1.84474E-01-7.31999E-04 5.11515E-02-1.05920E-01 1.84087E-03-6.27030E-05-2.06579E-02 4.65817E+00-2.80985E+01-4.51662E+01



 n o d a l   p r i n t   o u t   f o r   t i m e  s t e p    5801                              ( at time 2.8997098E+00 )

 nodal point  x-rot      y-rot       z-rot       x-rot vel   y-rot vel   z-rot vel   x-rot acc   y-rot acc   z-rot acc
    22626 -1.19689E-04 6.08117E-06 3.85361E-06-3.33264E-05 5.68797E-06 5.00522E-07-1.49276E-05-2.00432E-05-8.44677E-06



 n o d a l   p r i n t   o u t   f o r   t i m e  s t e p    6001                              ( at time 2.9996998E+00 )

 nodal point  x-disp     y-disp      z-disp      x-vel       y-vel       z-vel      x-accl      y-accl      z-accl      x-coor      y-coor      z-coor
    22626 -1.28569E-03 9.73900E-02-1.95089E-01-6.94270E-04 5.08295E-02-1.05982E-01 3.77323E-04-3.22005E-03-6.14212E-04 4.65809E+00-2.80934E+01-4.51768E+01



 n o d a l   p r i n t   o u t   f o r   t i m e  s t e p    6001                              ( at time 2.9996998E+00 )

 nodal point  x-rot      y-rot       z-rot       x-rot vel   y-rot vel   z-rot vel   x-rot acc   y-rot acc   z-rot acc
    22626 -1.23993E-04 6.63174E-06 3.81871E-06-4.61643E-05 5.18423E-06 4.82566E-07-1.28392E-04-5.03787E-06-1.79580E-07



 n o d a l   p r i n t   o u t   f o r   t i m e  s t e p    6201                              ( at time 3.0996898E+00 )

 nodal point  x-disp     y-disp      z-disp      x-vel       y-vel       z-vel      x-accl      y-accl      z-accl      x-coor      y-coor      z-coor
    22626 -1.35671E-03 1.02543E-01-2.05682E-01-7.09137E-04 5.26121E-02-1.06337E-01-1.48681E-04 1.78277E-02-3.55652E-03 4.65802E+00-2.80883E+01-4.51874E+01



 n o d a l   p r i n t   o u t   f o r   t i m e  s t e p    6201                              ( at time 3.0996898E+00 )

 nodal point  x-rot      y-rot       z-rot       x-rot vel   y-rot vel   z-rot vel   x-rot acc   y-rot acc   z-rot acc
    22626 -1.29264E-04 7.27331E-06 3.86012E-06-5.98086E-05 6.30749E-06 2.13080E-06-1.36457E-04 1.12337E-05 1.64840E-05



 n o d a l   p r i n t   o u t   f o r   t i m e  s t e p    6401                              ( at time 3.1996798E+00 )

 nodal point  x-disp     y-disp      z-disp      x-vel       y-vel       z-vel      x-accl      y-accl      z-accl      x-coor      y-coor      z-coor
    22626 -1.41677E-03 1.07886E-01-2.16422E-01-6.43872E-04 5.42770E-02-1.08610E-01 6.52716E-04 1.66505E-02-2.27229E-02 4.65796E+00-2.80829E+01-4.51981E+01



 n o d a l   p r i n t   o u t   f o r   t i m e  s t e p    6401                              ( at time 3.1996798E+00 )

 nodal point  x-rot      y-rot       z-rot       x-rot vel   y-rot vel   z-rot vel   x-rot acc   y-rot acc   z-rot acc
    22626 -1.35865E-04 8.00552E-06 3.95209E-06-6.60410E-05 6.65495E-06 2.14274E-06-6.23300E-05 3.47494E-06 1.19331E-07



 n o d a l   p r i n t   o u t   f o r   t i m e  s t e p    6601                              ( at time 3.2996698E+00 )

 nodal point  x-disp     y-disp      z-disp      x-vel       y-vel       z-vel      x-accl      y-accl      z-accl      x-coor      y-coor      z-coor
    22626 -1.48707E-03 1.13492E-01-2.27451E-01-7.11189E-04 5.77807E-02-1.11708E-01-6.73241E-04 3.50408E-02-3.09856E-02 4.65789E+00-2.80773E+01-4.52092E+01



 n o d a l   p r i n t   o u t   f o r   t i m e  s t e p    6601                              ( at time 3.2996698E+00 )

 nodal point  x-rot      y-rot       z-rot       x-rot vel   y-rot vel   z-rot vel   x-rot acc   y-rot acc   z-rot acc
    22626 -1.43478E-04 8.84289E-06 4.37875E-06-8.27619E-05 9.73199E-06 2.21918E-06-1.67226E-04 3.07735E-05 7.64483E-07



 n o d a l   p r i n t   o u t   f o r   t i m e  s t e p    6801                              ( at time 3.3996598E+00 )

 nodal point  x-disp     y-disp      z-disp      x-vel       y-vel       z-vel      x-accl      y-accl      z-accl      x-coor      y-coor      z-coor
    22626 -1.57878E-03 1.19475E-01-2.38664E-01-1.18797E-03 6.19908E-02-1.12295E-01-4.76832E-03 4.21052E-02-5.86992E-03 4.65780E+00-2.80714E+01-4.52204E+01



 n o d a l   p r i n t   o u t   f o r   t i m e  s t e p    6801                              ( at time 3.3996598E+00 )

 nodal point  x-rot      y-rot       z-rot       x-rot vel   y-rot vel   z-rot vel   x-rot acc   y-rot acc   z-rot acc
    22626 -1.53643E-04 9.48295E-06 4.35563E-06-1.21070E-04 7.16509E-06-4.00679E-07-3.83121E-04-2.56715E-05-2.62011E-05



 n o d a l   p r i n t   o u t   f o r   t i m e  s t e p    7001                              ( at time 3.4996498E+00 )

 nodal point  x-disp     y-disp      z-disp      x-vel       y-vel       z-vel      x-accl      y-accl      z-accl      x-coor      y-coor      z-coor
    22626 -1.70921E-03 1.25908E-01-2.49868E-01-1.37800E-03 6.66743E-02-1.11889E-01-1.90042E-03 4.68396E-02 4.05375E-03 4.65767E+00-2.80649E+01-4.52316E+01



 n o d a l   p r i n t   o u t   f o r   t i m e  s t e p    7001                              ( at time 3.4996498E+00 )

 nodal point  x-rot      y-rot       z-rot       x-rot vel   y-rot vel   z-rot vel   x-rot acc   y-rot acc   z-rot acc
    22626 -1.68045E-04 1.00548E-05 3.96187E-06-1.59815E-04 4.37988E-06-5.89451E-06-3.87491E-04-2.78549E-05-5.49439E-05



 n o d a l   p r i n t   o u t   f o r   t i m e  s t e p    7201                              ( at time 3.5996397E+00 )

 nodal point  x-disp     y-disp      z-disp      x-vel       y-vel       z-vel      x-accl      y-accl      z-accl      x-coor      y-coor      z-coor
    22626 -1.84290E-03 1.32825E-01-2.61060E-01-1.29839E-03 7.14706E-02-1.12173E-01 7.96110E-04 4.79684E-02-2.83255E-03 4.65753E+00-2.80580E+01-4.52428E+01



 n o d a l   p r i n t   o u t   f o r   t i m e  s t e p    7201                              ( at time 3.5996397E+00 )

 nodal point  x-rot      y-rot       z-rot       x-rot vel   y-rot vel   z-rot vel   x-rot acc   y-rot acc   z-rot acc
    22626 -1.85478E-04 1.06905E-05 3.25699E-06-2.01725E-04 3.58830E-06-1.13212E-05-4.19137E-04-7.91654E-06-5.42720E-05



 n o d a l   p r i n t   o u t   f o r   t i m e  s t e p    7401                              ( at time 3.6996297E+00 )

 nodal point  x-disp     y-disp      z-disp      x-vel       y-vel       z-vel      x-accl      y-accl      z-accl      x-coor      y-coor      z-coor
    22626 -1.99459E-03 1.40130E-01-2.72281E-01-1.45567E-03 7.64780E-02-1.13707E-01-1.57289E-03 5.00789E-02-1.53445E-02 4.65738E+00-2.80507E+01-4.52540E+01



 n o d a l   p r i n t   o u t   f o r   t i m e  s t e p    7401                              ( at time 3.6996297E+00 )

 nodal point  x-rot      y-rot       z-rot       x-rot vel   y-rot vel   z-rot vel   x-rot acc   y-rot acc   z-rot acc
    22626 -2.04868E-04 1.10355E-05 2.19627E-06-2.24135E-04 2.03820E-06-1.56281E-05-2.24120E-04-1.55025E-05-4.30739E-05



 n o d a l   p r i n t   o u t   f o r   t i m e  s t e p    7601                              ( at time 3.7996197E+00 )

 nodal point  x-disp     y-disp      z-disp      x-vel       y-vel       z-vel      x-accl      y-accl      z-accl      x-coor      y-coor      z-coor
    22626 -2.15330E-03 1.48095E-01-2.83627E-01-1.95232E-03 8.19655E-02-1.12425E-01-4.96704E-03 5.48798E-02 1.28223E-02 4.65722E+00-2.80427E+01-4.52653E+01



 n o d a l   p r i n t   o u t   f o r   t i m e  s t e p    7601                              ( at time 3.7996197E+00 )

 nodal point  x-rot      y-rot       z-rot       x-rot vel   y-rot vel   z-rot vel   x-rot acc   y-rot acc   z-rot acc
    22626 -2.28966E-04 1.07777E-05 3.02954E-07-2.74782E-04-8.33852E-06-2.39670E-05-5.06526E-04-1.03778E-04-8.33970E-05



 n o d a l   p r i n t   o u t   f o r   t i m e  s t e p    7801                              ( at time 3.8996097E+00 )

 nodal point  x-disp     y-disp      z-disp      x-vel       y-vel       z-vel      x-accl      y-accl      z-accl      x-coor      y-coor      z-coor
    22626 -2.34256E-03 1.56573E-01-2.94731E-01-2.02744E-03 8.86161E-02-1.09428E-01-7.51275E-04 6.65125E-02 2.99734E-02 4.65703E+00-2.80343E+01-4.52765E+01



 n o d a l   p r i n t   o u t   f o r   t i m e  s t e p    7801                              ( at time 3.8996097E+00 )

 nodal point  x-rot      y-rot       z-rot       x-rot vel   y-rot vel   z-rot vel   x-rot acc   y-rot acc   z-rot acc
    22626 -2.59507E-04 9.89375E-06-2.40074E-06-3.34087E-04-1.10658E-05-3.19970E-05-5.93108E-04-2.72756E-05-8.03079E-05



 n o d a l   p r i n t   o u t   f o r   t i m e  s t e p    8001                              ( at time 3.9995997E+00 )

 nodal point  x-disp     y-disp      z-disp      x-vel       y-vel       z-vel      x-accl      y-accl      z-accl      x-coor      y-coor      z-coor
    22626 -2.53238E-03 1.65726E-01-3.05682E-01-1.81106E-03 9.51761E-02-1.07158E-01 2.16400E-03 6.56074E-02 2.26980E-02 4.65684E+00-2.80251E+01-4.52874E+01



 n o d a l   p r i n t   o u t   f o r   t i m e  s t e p    8001                              ( at time 3.9995997E+00 )

 nodal point  x-rot      y-rot       z-rot       x-rot vel   y-rot vel   z-rot vel   x-rot acc   y-rot acc   z-rot acc
    22626 -2.95850E-04 8.78583E-06-6.03850E-06-3.76151E-04-1.32900E-05-4.03739E-05-4.20677E-04-2.22446E-05-8.37774E-05



 n o d a l   p r i n t   o u t   f o r   t i m e  s t e p    8201                              ( at time 4.0995897E+00 )

 nodal point  x-disp     y-disp      z-disp      x-vel       y-vel       z-vel      x-accl      y-accl      z-accl      x-coor      y-coor      z-coor
    22626 -2.74762E-03 1.75634E-01-3.16416E-01-2.29484E-03 1.03620E-01-1.06295E-01-4.83823E-03 8.44428E-02 8.63563E-03 4.65663E+00-2.80152E+01-4.52981E+01



 n o d a l   p r i n t   o u t   f o r   t i m e  s t e p    8201                              ( at time 4.0995897E+00 )

 nodal point  x-rot      y-rot       z-rot       x-rot vel   y-rot vel   z-rot vel   x-rot acc   y-rot acc   z-rot acc
    22626 -3.37989E-04 7.34309E-06-9.87886E-06-4.52467E-04-1.78205E-05-3.84018E-05-7.63235E-04-4.53094E-05 1.97228E-05



 n o d a l   p r i n t   o u t   f o r   t i m e  s t e p    8401                              ( at time 4.1995797E+00 )

 nodal point  x-disp     y-disp      z-disp      x-vel       y-vel       z-vel      x-accl      y-accl      z-accl      x-coor      y-coor      z-coor
    22626 -2.99081E-03 1.86380E-01-3.27059E-01-2.71323E-03 1.12132E-01-1.05200E-01-4.18439E-03 8.51361E-02 1.09507E-02 4.65638E+00-2.80044E+01-4.53088E+01



 n o d a l   p r i n t   o u t   f o r   t i m e  s t e p    8401                              ( at time 4.1995797E+00 )

 nodal point  x-rot      y-rot       z-rot       x-rot vel   y-rot vel   z-rot vel   x-rot acc   y-rot acc   z-rot acc
    22626 -3.87741E-04 5.37942E-06-1.42504E-05-5.46273E-04-2.08795E-05-4.62478E-05-9.38162E-04-3.05933E-05-7.84683E-05



 n o d a l   p r i n t   o u t   f o r   t i m e  s t e p    8601                              ( at time 4.2995697E+00 )

 nodal point  x-disp     y-disp      z-disp      x-vel       y-vel       z-vel      x-accl      y-accl      z-accl      x-coor      y-coor      z-coor
    22626 -3.28643E-03 1.98108E-01-3.37373E-01-2.70999E-03 1.21492E-01-1.01410E-01 3.24273E-05 9.36101E-02 3.78980E-02 4.65609E+00-2.79927E+01-4.53191E+01



 n o d a l   p r i n t   o u t   f o r   t i m e  s t e p    8601                              ( at time 4.2995697E+00 )

 nodal point  x-rot      y-rot       z-rot       x-rot vel   y-rot vel   z-rot vel   x-rot acc   y-rot acc   z-rot acc
    22626 -4.46350E-04 3.14839E-06-1.90271E-05-6.49535E-04-1.96138E-05-5.02833E-05-1.03272E-03 1.26584E-05-4.03583E-05



 n o d a l   p r i n t   o u t   f o r   t i m e  s t e p    8801                              ( at time 4.3995597E+00 )

 nodal point  x-disp     y-disp      z-disp      x-vel       y-vel       z-vel      x-accl      y-accl      z-accl      x-coor      y-coor      z-coor
    22626 -3.58110E-03 2.10646E-01-3.47269E-01-2.90392E-03 1.29875E-01-9.71363E-02-1.93943E-03 8.38323E-02 4.27452E-02 4.65579E+00-2.79802E+01-4.53290E+01



 n o d a l   p r i n t   o u t   f o r   t i m e  s t e p    8801                              ( at time 4.3995597E+00 )

 nodal point  x-rot      y-rot       z-rot       x-rot vel   y-rot vel   z-rot vel   x-rot acc   y-rot acc   z-rot acc
    22626 -5.12658E-04 1.32575E-06-2.42808E-05-7.22611E-04-2.13577E-05-4.90043E-05-7.30836E-04-1.74403E-05 1.27910E-05



 n o d a l   p r i n t   o u t   f o r   t i m e  s t e p    9001                              ( at time 4.4995497E+00 )

 nodal point  x-disp     y-disp      z-disp      x-vel       y-vel       z-vel      x-accl      y-accl      z-accl      x-coor      y-coor      z-coor
    22626 -3.88735E-03 2.24201E-01-3.56674E-01-3.19210E-03 1.41031E-01-9.13568E-02-2.88207E-03 1.11570E-01 5.77997E-02 4.65549E+00-2.79666E+01-4.53384E+01



 n o d a l   p r i n t   o u t   f o r   t i m e  s t e p    9001                              ( at time 4.4995497E+00 )

 nodal point  x-rot      y-rot       z-rot       x-rot vel   y-rot vel   z-rot vel   x-rot acc   y-rot acc   z-rot acc
    22626 -5.89351E-04-1.12006E-06-2.96877E-05-8.28678E-04-3.17084E-05-5.38763E-05-1.06077E-03-1.03517E-04-4.87249E-05



 n o d a l   p r i n t   o u t   f o r   t i m e  s t e p    9201                              ( at time 4.5995397E+00 )

 nodal point  x-disp     y-disp      z-disp      x-vel       y-vel       z-vel      x-accl      y-accl      z-accl      x-coor      y-coor      z-coor
    22626 -4.19037E-03 2.38870E-01-3.65635E-01-2.46051E-03 1.52886E-01-8.69330E-02 7.31659E-03 1.18561E-01 4.42424E-02 4.65518E+00-2.79520E+01-4.53474E+01



 n o d a l   p r i n t   o u t   f o r   t i m e  s t e p    9201                              ( at time 4.5995397E+00 )

 nodal point  x-rot      y-rot       z-rot       x-rot vel   y-rot vel   z-rot vel   x-rot acc   y-rot acc   z-rot acc
    22626 -6.78407E-04-4.14924E-06-3.52152E-05-9.27184E-04-3.04315E-05-5.27182E-05-9.85157E-04 1.27701E-05 1.15821E-05



 n o d a l   p r i n t   o u t   f o r   t i m e  s t e p    9401                              ( at time 4.6995297E+00 )

 nodal point  x-disp     y-disp      z-disp      x-vel       y-vel       z-vel      x-accl      y-accl      z-accl      x-coor      y-coor      z-coor
    22626 -4.45587E-03 2.54701E-01-3.74094E-01-2.54976E-03 1.64012E-01-8.10152E-02-8.92560E-04 1.11272E-01 5.91845E-02 4.65492E+00-2.79361E+01-4.53558E+01



 n o d a l   p r i n t   o u t   f o r   t i m e  s t e p    9401                              ( at time 4.6995297E+00 )

 nodal point  x-rot      y-rot       z-rot       x-rot vel   y-rot vel   z-rot vel   x-rot acc   y-rot acc   z-rot acc
    22626 -7.79297E-04-7.10851E-06-4.07205E-05-1.06613E-03-3.00098E-05-5.02291E-05-1.38963E-03 4.21801E-06 2.48937E-05



 n o d a l   p r i n t   o u t   f o r   t i m e  s t e p    9601                              ( at time 4.7995197E+00 )

 nodal point  x-disp     y-disp      z-disp      x-vel       y-vel       z-vel      x-accl      y-accl      z-accl      x-coor      y-coor      z-coor
    22626 -4.68761E-03 2.71691E-01-3.81894E-01-2.52821E-03 1.76304E-01-7.49644E-02 2.15451E-04 1.22933E-01 6.05141E-02 4.65469E+00-2.79191E+01-4.53636E+01



 n o d a l   p r i n t   o u t   f o r   t i m e  s t e p    9601                              ( at time 4.7995197E+00 )

 nodal point  x-rot      y-rot       z-rot       x-rot vel   y-rot vel   z-rot vel   x-rot acc   y-rot acc   z-rot acc
    22626 -8.94286E-04-1.03122E-05-4.57928E-05-1.21899E-03-3.23733E-05-4.91645E-05-1.52877E-03-2.36377E-05 1.06470E-05



 n o d a l   p r i n t   o u t   f o r   t i m e  s t e p    9801                              ( at time 4.8995097E+00 )

 nodal point  x-disp     y-disp      z-disp      x-vel       y-vel       z-vel      x-accl      y-accl      z-accl      x-coor      y-coor      z-coor
    22626 -4.89695E-03 2.89979E-01-3.89006E-01-2.39596E-03 1.89159E-01-6.74931E-02 1.32267E-03 1.28569E-01 7.47201E-02 4.65448E+00-2.79009E+01-4.53707E+01



 n o d a l   p r i n t   o u t   f o r   t i m e  s t e p    9801                              ( at time 4.8995097E+00 )

 nodal point  x-rot      y-rot       z-rot       x-rot vel   y-rot vel   z-rot vel   x-rot acc   y-rot acc   z-rot acc
    22626 -1.02373E-03-1.38553E-05-5.03573E-05-1.36615E-03-3.50736E-05-4.41828E-05-1.47172E-03-2.70057E-05 4.98224E-05



 n o d a l   p r i n t   o u t   f o r   t i m e  s t e p   10001                              ( at time 4.9994997E+00 )

 nodal point  x-disp     y-disp      z-disp      x-vel       y-vel       z-vel      x-accl      y-accl      z-accl      x-coor      y-coor      z-coor
    22626 -5.09465E-03 3.09633E-01-3.95358E-01-1.58106E-03 2.03032E-01-6.07959E-02 8.14980E-03 1.38743E-01 6.69788E-02 4.65428E+00-2.78812E+01-4.53771E+01



 n o d a l   p r i n t   o u t   f o r   t i m e  s t e p   10001                              ( at time 4.9994997E+00 )

 nodal point  x-rot      y-rot       z-rot       x-rot vel   y-rot vel   z-rot vel   x-rot acc   y-rot acc   z-rot acc
    22626 -1.16930E-03-1.69790E-05-5.46499E-05-1.53141E-03-3.47652E-05-4.13800E-05-1.65270E-03 3.08458E-06 2.80303E-05



 n o d a l   p r i n t   o u t   f o r   t i m e  s t e p   10202                              ( at time 5.0999896E+00 )

 nodal point  x-disp     y-disp      z-disp      x-vel       y-vel       z-vel      x-accl      y-accl      z-accl      x-coor      y-coor      z-coor
    22626 -5.26180E-03 3.30749E-01-4.01087E-01-1.87576E-03 2.16878E-01-5.28809E-02-2.93263E-03 1.37783E-01 7.87647E-02 4.65411E+00-2.78601E+01-4.53828E+01



 n o d a l   p r i n t   o u t   f o r   t i m e  s t e p   10202                              ( at time 5.0999896E+00 )

 nodal point  x-rot      y-rot       z-rot       x-rot vel   y-rot vel   z-rot vel   x-rot acc   y-rot acc   z-rot acc
    22626 -1.33216E-03-2.04196E-05-5.84197E-05-1.68610E-03-2.84496E-05-3.15083E-05-1.53940E-03 6.28485E-05 9.82363E-05



 n o d a l   p r i n t   o u t   f o r   t i m e  s t e p   10402                              ( at time 5.1999796E+00 )

 nodal point  x-disp     y-disp      z-disp      x-vel       y-vel       z-vel      x-accl      y-accl      z-accl      x-coor      y-coor      z-coor
    22626 -5.45686E-03 3.53136E-01-4.05919E-01-1.98928E-03 2.30063E-01-4.32818E-02-1.13533E-03 1.31858E-01 9.59995E-02 4.65392E+00-2.78377E+01-4.53876E+01



 n o d a l   p r i n t   o u t   f o r   t i m e  s t e p   10402                              ( at time 5.1999796E+00 )

 nodal point  x-rot      y-rot       z-rot       x-rot vel   y-rot vel   z-rot vel   x-rot acc   y-rot acc   z-rot acc
    22626 -1.51075E-03-2.32019E-05-6.06777E-05-1.86588E-03-2.14245E-05-1.37522E-05-1.79798E-03 7.02578E-05 1.77578E-04



 n o d a l   p r i n t   o u t   f o r   t i m e  s t e p   10602                              ( at time 5.2999696E+00 )

 nodal point  x-disp     y-disp      z-disp      x-vel       y-vel       z-vel      x-accl      y-accl      z-accl      x-coor      y-coor      z-coor
    22626 -5.54505E-03 3.76886E-01-4.09798E-01-9.66844E-04 2.43512E-01-3.43385E-02 1.02254E-02 1.34504E-01 8.94427E-02 4.65383E+00-2.78139E+01-4.53915E+01



 n o d a l   p r i n t   o u t   f o r   t i m e  s t e p   10602                              ( at time 5.2999696E+00 )

 nodal point  x-rot      y-rot       z-rot       x-rot vel   y-rot vel   z-rot vel   x-rot acc   y-rot acc   z-rot acc
    22626 -1.70855E-03-2.50850E-05-6.20778E-05-2.07708E-03-2.05294E-05 7.93334E-06-2.11218E-03 8.95146E-06 2.16878E-04



 n o d a l   p r i n t   o u t   f o r   t i m e  s t e p   10802                              ( at time 5.3999596E+00 )

 nodal point  x-disp     y-disp      z-disp      x-vel       y-vel       z-vel      x-accl      y-accl      z-accl      x-coor      y-coor      z-coor
    22626 -5.56372E-03 4.01966E-01-4.12709E-01 3.43515E-04 2.58633E-01-2.41422E-02 1.31049E-02 1.51226E-01 1.01973E-01 4.65381E+00-2.77889E+01-4.53944E+01



 n o d a l   p r i n t   o u t   f o r   t i m e  s t e p   10802                              ( at time 5.3999596E+00 )

 nodal point  x-rot      y-rot       z-rot       x-rot vel   y-rot vel   z-rot vel   x-rot acc   y-rot acc   z-rot acc
    22626 -1.92495E-03-2.57961E-05-5.99672E-05-2.26933E-03-1.17604E-05 3.69213E-05-1.92275E-03 8.76990E-05 2.89909E-04



 n o d a l   p r i n t   o u t   f o r   t i m e  s t e p   11002                              ( at time 5.4999496E+00 )

 nodal point  x-disp     y-disp      z-disp      x-vel       y-vel       z-vel      x-accl      y-accl      z-accl      x-coor      y-coor      z-coor
    22626 -5.52766E-03 4.28527E-01-4.14721E-01 5.28490E-04 2.74169E-01-1.43939E-02 1.84994E-03 1.55382E-01 9.74930E-02 4.65385E+00-2.77623E+01-4.53964E+01



 n o d a l   p r i n t   o u t   f o r   t i m e  s t e p   11002                              ( at time 5.4999496E+00 )

 nodal point  x-rot      y-rot       z-rot       x-rot vel   y-rot vel   z-rot vel   x-rot acc   y-rot acc   z-rot acc
    22626 -2.16196E-03-2.72990E-05-5.71991E-05-2.47815E-03-1.27128E-05 1.82302E-05-2.08834E-03-9.52554E-06-1.86929E-04



 n o d a l   p r i n t   o u t   f o r   t i m e  s t e p   11202                              ( at time 5.5999396E+00 )

 nodal point  x-disp     y-disp      z-disp      x-vel       y-vel       z-vel      x-accl      y-accl      z-accl      x-coor      y-coor      z-coor
    22626 -5.53290E-03 4.56468E-01-4.15551E-01 6.79715E-04 2.87029E-01-1.02675E-03 1.51241E-03 1.28611E-01 1.33685E-01 4.65384E+00-2.77344E+01-4.53973E+01



 n o d a l   p r i n t   o u t   f o r   t i m e  s t e p   11202                              ( at time 5.5999396E+00 )

 nodal point  x-rot      y-rot       z-rot       x-rot vel   y-rot vel   z-rot vel   x-rot acc   y-rot acc   z-rot acc
    22626 -2.42013E-03-2.86519E-05-5.31235E-05-2.67152E-03 1.96191E-06 4.40135E-05-1.93391E-03 1.46762E-04 2.57859E-04



 n o d a l   p r i n t   o u t   f o r   t i m e  s t e p   11402                              ( at time 5.6999296E+00 )

 nodal point  x-disp     y-disp      z-disp      x-vel       y-vel       z-vel      x-accl      y-accl      z-accl      x-coor      y-coor      z-coor
    22626 -5.37453E-03 4.85834E-01-4.15174E-01 2.14218E-03 3.00001E-01 9.88951E-03 1.46261E-02 1.29733E-01 1.09173E-01 4.65400E+00-2.77050E+01-4.53969E+01



 n o d a l   p r i n t   o u t   f o r   t i m e  s t e p   11402                              ( at time 5.6999296E+00 )

 nodal point  x-rot      y-rot       z-rot       x-rot vel   y-rot vel   z-rot vel   x-rot acc   y-rot acc   z-rot acc
    22626 -2.69866E-03-2.91094E-05-4.71754E-05-2.89464E-03-2.54433E-06 6.45337E-05-2.23146E-03-4.50668E-05 2.05222E-04



 n o d a l   p r i n t   o u t   f o r   t i m e  s t e p   11602                              ( at time 5.7999195E+00 )

 nodal point  x-disp     y-disp      z-disp      x-vel       y-vel       z-vel      x-accl      y-accl      z-accl      x-coor      y-coor      z-coor
    22626 -5.15794E-03 5.16646E-01-4.13544E-01 2.73017E-03 3.15844E-01 2.20506E-02 5.88046E-03 1.58448E-01 1.21623E-01 4.65422E+00-2.76742E+01-4.53953E+01



 n o d a l   p r i n t   o u t   f o r   t i m e  s t e p   11602                              ( at time 5.7999195E+00 )

 nodal point  x-rot      y-rot       z-rot       x-rot vel   y-rot vel   z-rot vel   x-rot acc   y-rot acc   z-rot acc
    22626 -3.00011E-03-2.93002E-05-3.92944E-05-3.15230E-03 2.47304E-06 8.91267E-05-2.57687E-03 5.01788E-05 2.45955E-04



 n o d a l   p r i n t   o u t   f o r   t i m e  s t e p   11802                              ( at time 5.8999095E+00 )

 nodal point  x-disp     y-disp      z-disp      x-vel       y-vel       z-vel      x-accl      y-accl      z-accl      x-coor      y-coor      z-coor
    22626 -4.93536E-03 5.48897E-01-4.10752E-01 1.96542E-03 3.30082E-01 3.23133E-02-7.64823E-03 1.42391E-01 1.02637E-01 4.65444E+00-2.76419E+01-4.53925E+01



 n o d a l   p r i n t   o u t   f o r   t i m e  s t e p   11802                              ( at time 5.8999095E+00 )

 nodal point  x-rot      y-rot       z-rot       x-rot vel   y-rot vel   z-rot vel   x-rot acc   y-rot acc   z-rot acc
    22626 -3.32388E-03-2.80778E-05-3.15293E-05-3.39576E-03 2.55096E-06 8.88861E-05-2.43484E-03 7.79250E-07-2.40691E-06



 n o d a l   p r i n t   o u t   f o r   t i m e  s t e p   12002                              ( at time 5.9998995E+00 )

 nodal point  x-disp     y-disp      z-disp      x-vel       y-vel       z-vel      x-accl      y-accl      z-accl      x-coor      y-coor      z-coor
    22626 -4.61899E-03 5.82685E-01-4.06714E-01 4.71140E-03 3.45609E-01 4.72799E-02 2.74625E-02 1.55281E-01 1.49682E-01 4.65476E+00-2.76081E+01-4.53884E+01



 n o d a l   p r i n t   o u t   f o r   t i m e  s t e p   12002                              ( at time 5.9998995E+00 )

 nodal point  x-rot      y-rot       z-rot       x-rot vel   y-rot vel   z-rot vel   x-rot acc   y-rot acc   z-rot acc
    22626 -3.67248E-03-2.60389E-05-2.21364E-05-3.59352E-03 3.67678E-05 1.10646E-04-1.97782E-03 3.42203E-04 2.17621E-04



 n o d a l   p r i n t   o u t   f o r   t i m e  s t e p   12202                              ( at time 6.0998895E+00 )

 nodal point  x-disp     y-disp      z-disp      x-vel       y-vel       z-vel      x-accl      y-accl      z-accl      x-coor      y-coor      z-coor
    22626 -4.15962E-03 6.17855E-01-4.01348E-01 5.25086E-03 3.59796E-01 6.08968E-02 5.39510E-03 1.41884E-01 1.36182E-01 4.65522E+00-2.75730E+01-4.53831E+01



 n o d a l   p r i n t   o u t   f o r   t i m e  s t e p   12202                              ( at time 6.0998895E+00 )

 nodal point  x-rot      y-rot       z-rot       x-rot vel   y-rot vel   z-rot vel   x-rot acc   y-rot acc   z-rot acc
    22626 -4.04301E-03-2.10157E-05-8.05439E-06-3.77058E-03 4.98403E-05 1.44876E-04-1.77069E-03 1.30738E-04 3.42330E-04



 n o d a l   p r i n t   o u t   f o r   t i m e  s t e p   12402                              ( at time 6.1998795E+00 )

 nodal point  x-disp     y-disp      z-disp      x-vel       y-vel       z-vel      x-accl      y-accl      z-accl      x-coor      y-coor      z-coor
    22626 -3.67802E-03 6.54598E-01-3.94644E-01 4.60582E-03 3.74513E-01 7.46436E-02-6.45098E-03 1.47186E-01 1.37482E-01 4.65570E+00-2.75362E+01-4.53764E+01



 n o d a l   p r i n t   o u t   f o r   t i m e  s t e p   12402                              ( at time 6.1998795E+00 )

 nodal point  x-rot      y-rot       z-rot       x-rot vel   y-rot vel   z-rot vel   x-rot acc   y-rot acc   z-rot acc
    22626 -4.43849E-03-1.59803E-05 6.45313E-06-4.03577E-03 5.88696E-05 1.25269E-04-2.65216E-03 9.03019E-05-1.96089E-04



 n o d a l   p r i n t   o u t   f o r   t i m e  s t e p   12602                              ( at time 6.2998695E+00 )

 nodal point  x-disp     y-disp      z-disp      x-vel       y-vel       z-vel      x-accl      y-accl      z-accl      x-coor      y-coor      z-coor
    22626 -3.09519E-03 6.92922E-01-3.86647E-01 6.45135E-03 3.90723E-01 8.51063E-02 1.84571E-02 1.62116E-01 1.04638E-01 4.65628E+00-2.74979E+01-4.53684E+01



 n o d a l   p r i n t   o u t   f o r   t i m e  s t e p   12602                              ( at time 6.2998695E+00 )

 nodal point  x-rot      y-rot       z-rot       x-rot vel   y-rot vel   z-rot vel   x-rot acc   y-rot acc   z-rot acc
    22626 -4.85995E-03-6.75278E-06 2.20869E-05-4.30765E-03 1.13560E-04 1.56608E-04-2.71909E-03 5.46962E-04 3.13424E-04



 n o d a l   p r i n t   o u t   f o r   t i m e  s t e p   12802                              ( at time 6.3998595E+00 )

 nodal point  x-disp     y-disp      z-disp      x-vel       y-vel       z-vel      x-accl      y-accl      z-accl      x-coor      y-coor      z-coor
    22626 -2.38587E-03 7.32910E-01-3.77474E-01 7.37438E-03 4.06108E-01 1.00269E-01 9.23120E-03 1.53873E-01 1.51644E-01 4.65699E+00-2.74579E+01-4.53592E+01



 n o d a l   p r i n t   o u t   f o r   t i m e  s t e p   12802                              ( at time 6.3998595E+00 )

 nodal point  x-rot      y-rot       z-rot       x-rot vel   y-rot vel   z-rot vel   x-rot acc   y-rot acc   z-rot acc
    22626 -5.30586E-03 4.17737E-06 4.17927E-05-4.55086E-03 9.59954E-05 1.99132E-04-2.43237E-03-1.75665E-04 4.25279E-04



 n o d a l   p r i n t   o u t   f o r   t i m e  s t e p   13002                              ( at time 6.4998495E+00 )

 nodal point  x-disp     y-disp      z-disp      x-vel       y-vel       z-vel      x-accl      y-accl      z-accl      x-coor      y-coor      z-coor
    22626 -1.56838E-03 7.74417E-01-3.66686E-01 7.82096E-03 4.23566E-01 1.14292E-01 4.46625E-03 1.74589E-01 1.40237E-01 4.65781E+00-2.74164E+01-4.53484E+01



 n o d a l   p r i n t   o u t   f o r   t i m e  s t e p   13002                              ( at time 6.4998495E+00 )

 nodal point  x-rot      y-rot       z-rot       x-rot vel   y-rot vel   z-rot vel   x-rot acc   y-rot acc   z-rot acc
    22626 -5.77875E-03 1.49905E-05 6.12534E-05-4.85652E-03 1.37389E-04 2.28161E-04-3.05694E-03 4.13976E-04 2.90319E-04



 n o d a l   p r i n t   o u t   f o r   t i m e  s t e p   13202                              ( at time 6.5998395E+00 )

 nodal point  x-disp     y-disp      z-disp      x-vel       y-vel       z-vel      x-accl      y-accl      z-accl      x-coor      y-coor      z-coor
    22626 -7.01341E-04 8.17671E-01-3.54538E-01 8.91105E-03 4.40336E-01 1.29012E-01 1.09020E-02 1.67722E-01 1.47215E-01 4.65867E+00-2.73732E+01-4.53363E+01



 n o d a l   p r i n t   o u t   f o r   t i m e  s t e p   13202                              ( at time 6.5998395E+00 )

 nodal point  x-rot      y-rot       z-rot       x-rot vel   y-rot vel   z-rot vel   x-rot acc   y-rot acc   z-rot acc
    22626 -6.27925E-03 2.89347E-05 8.30089E-05-5.09118E-03 1.62748E-04 2.10724E-04-2.34681E-03 2.53616E-04-1.74379E-04



 n o d a l   p r i n t   o u t   f o r   t i m e  s t e p   13402                              ( at time 6.6998295E+00 )

 nodal point  x-disp     y-disp      z-disp      x-vel       y-vel       z-vel      x-accl      y-accl      z-accl      x-coor      y-coor      z-coor
    22626  3.05881E-04 8.62570E-01-3.40841E-01 1.20430E-02 4.57084E-01 1.43709E-01 3.13226E-02 1.67493E-01 1.46983E-01 4.65968E+00-2.73283E+01-4.53226E+01



 n o d a l   p r i n t   o u t   f o r   t i m e  s t e p   13402                              ( at time 6.6998295E+00 )

 nodal point  x-rot      y-rot       z-rot       x-rot vel   y-rot vel   z-rot vel   x-rot acc   y-rot acc   z-rot acc
    22626 -6.80511E-03 4.46975E-05 1.05314E-04-5.35929E-03 1.80145E-04 2.11786E-04-2.68136E-03 1.73990E-04 1.06195E-05



 n o d a l   p r i n t   o u t   f o r   t i m e  s t e p   13602                              ( at time 6.7998195E+00 )

 nodal point  x-disp     y-disp      z-disp      x-vel       y-vel       z-vel      x-accl      y-accl      z-accl      x-coor      y-coor      z-coor
    22626  1.41765E-03 9.09229E-01-3.25934E-01 1.25835E-02 4.74742E-01 1.57745E-01 5.40563E-03 1.76598E-01 1.40375E-01 4.66079E+00-2.72816E+01-4.53077E+01



 n o d a l   p r i n t   o u t   f o r   t i m e  s t e p   13602                              ( at time 6.7998195E+00 )

 nodal point  x-rot      y-rot       z-rot       x-rot vel   y-rot vel   z-rot vel   x-rot acc   y-rot acc   z-rot acc
    22626 -7.35838E-03 6.13609E-05 1.30563E-04-5.61403E-03 1.36193E-04 2.64180E-04-2.54766E-03-4.39568E-04 5.23989E-04



 n o d a l   p r i n t   o u t   f o r   t i m e  s t e p   13802                              ( at time 6.8998095E+00 )

 nodal point  x-disp     y-disp      z-disp      x-vel       y-vel       z-vel      x-accl      y-accl      z-accl      x-coor      y-coor      z-coor
    22626  2.69649E-03 9.57605E-01-3.09442E-01 1.24220E-02 4.91063E-01 1.73910E-01-1.61475E-03 1.63224E-01 1.61670E-01 4.66207E+00-2.72332E+01-4.52912E+01



 n o d a l   p r i n t   o u t   f o r   t i m e  s t e p   13802                              ( at time 6.8998095E+00 )

 nodal point  x-rot      y-rot       z-rot       x-rot vel   y-rot vel   z-rot vel   x-rot acc   y-rot acc   z-rot acc
    22626 -7.93824E-03 7.68989E-05 1.58273E-04-5.87998E-03 1.54791E-04 2.88523E-04-2.65977E-03 1.86002E-04 2.43459E-04



 n o d a l   p r i n t   o u t   f o r   t i m e  s t e p   14002                              ( at time 6.9997995E+00 )

 nodal point  x-disp     y-disp      z-disp      x-vel       y-vel       z-vel      x-accl      y-accl      z-accl      x-coor      y-coor      z-coor
    22626  3.95625E-03 1.00772E+00-2.91545E-01 1.39704E-02 5.10422E-01 1.84695E-01 1.54856E-02 1.93611E-01 1.07866E-01 4.66333E+00-2.71831E+01-4.52733E+01



 n o d a l   p r i n t   o u t   f o r   t i m e  s t e p   14002                              ( at time 6.9997995E+00 )

 nodal point  x-rot      y-rot       z-rot       x-rot vel   y-rot vel   z-rot vel   x-rot acc   y-rot acc   z-rot acc
    22626 -8.54487E-03 9.51539E-05 1.86531E-04-6.15656E-03 1.79995E-04 3.06864E-04-2.76611E-03 2.52065E-04 1.83422E-04



 n o d a l   p r i n t   o u t   f o r   t i m e  s t e p   14202                              ( at time 7.0997895E+00 )

 nodal point  x-disp     y-disp      z-disp      x-vel       y-vel       z-vel      x-accl      y-accl      z-accl      x-coor      y-coor      z-coor
    22626  5.34540E-03 1.05968E+00-2.72387E-01 1.43437E-02 5.29437E-01 1.99990E-01 3.73330E-03 1.90167E-01 1.52964E-01 4.66472E+00-2.71311E+01-4.52541E+01



 n o d a l   p r i n t   o u t   f o r   t i m e  s t e p   14202                              ( at time 7.0997895E+00 )

 nodal point  x-rot      y-rot       z-rot       x-rot vel   y-rot vel   z-rot vel   x-rot acc   y-rot acc   z-rot acc
    22626 -9.17566E-03 1.14074E-04 2.18119E-04-6.42974E-03 1.87711E-04 3.28249E-04-2.73202E-03 7.71662E-05 2.13876E-04



 n o d a l   p r i n t   o u t   f o r   t i m e  s t e p   14402                              ( at time 7.1997794E+00 )

 nodal point  x-disp     y-disp      z-disp      x-vel       y-vel       z-vel      x-accl      y-accl      z-accl      x-coor      y-coor      z-coor
    22626  6.80181E-03 1.11347E+00-2.51689E-01 1.57355E-02 5.46544E-01 2.14123E-01 1.39186E-02 1.71096E-01 1.41343E-01 4.66618E+00-2.70774E+01-4.52334E+01



 n o d a l   p r i n t   o u t   f o r   t i m e  s t e p   14402                              ( at time 7.1997794E+00 )

 nodal point  x-rot      y-rot       z-rot       x-rot vel   y-rot vel   z-rot vel   x-rot acc   y-rot acc   z-rot acc
    22626 -9.83423E-03 1.32526E-04 2.52064E-04-6.68049E-03 1.97451E-04 3.10561E-04-2.50778E-03 9.74148E-05-1.76895E-04



 n o d a l   p r i n t   o u t   f o r   t i m e  s t e p   14602                              ( at time 7.2997694E+00 )

 nodal point  x-disp     y-disp      z-disp      x-vel       y-vel       z-vel      x-accl      y-accl      z-accl      x-coor      y-coor      z-coor
    22626  8.29707E-03 1.16900E+00-2.29552E-01 1.47174E-02 5.64735E-01 2.28247E-01-1.01819E-02 1.81919E-01 1.41251E-01 4.66767E+00-2.70218E+01-4.52113E+01



 n o d a l   p r i n t   o u t   f o r   t i m e  s t e p   14602                              ( at time 7.2997694E+00 )

 nodal point  x-rot      y-rot       z-rot       x-rot vel   y-rot vel   z-rot vel   x-rot acc   y-rot acc   z-rot acc
    22626 -1.05149E-02 1.52292E-04 2.86249E-04-6.88142E-03 1.96824E-04 3.69640E-04-2.00946E-03-6.27644E-06 5.90844E-04



 n o d a l   p r i n t   o u t   f o r   t i m e  s t e p   14802                              ( at time 7.3997594E+00 )

 nodal point  x-disp     y-disp      z-disp      x-vel       y-vel       z-vel      x-accl      y-accl      z-accl      x-coor      y-coor      z-coor
    22626  9.91152E-03 1.22621E+00-2.06037E-01 1.48325E-02 5.78847E-01 2.42685E-01 1.15184E-03 1.41134E-01 1.44397E-01 4.66929E+00-2.69646E+01-4.51878E+01



 n o d a l   p r i n t   o u t   f o r   t i m e  s t e p   14802                              ( at time 7.3997594E+00 )

 nodal point  x-rot      y-rot       z-rot       x-rot vel   y-rot vel   z-rot vel   x-rot acc   y-rot acc   z-rot acc
    22626 -1.12151E-02 1.71404E-04 3.21656E-04-7.05683E-03 2.06877E-04 3.60586E-04-1.75432E-03 1.00546E-04-9.05512E-05



 n o d a l   p r i n t   o u t   f o r   t i m e  s t e p   15002                              ( at time 7.4997494E+00 )

 nodal point  x-disp     y-disp      z-disp      x-vel       y-vel       z-vel      x-accl      y-accl      z-accl      x-coor      y-coor      z-coor
    22626  1.15973E-02 1.28494E+00-1.81076E-01 1.65629E-02 5.96079E-01 2.54675E-01 1.73054E-02 1.72340E-01 1.19908E-01 4.67097E+00-2.69059E+01-4.51628E+01



 n o d a l   p r i n t   o u t   f o r   t i m e  s t e p   15002                              ( at time 7.4997494E+00 )

 nodal point  x-rot      y-rot       z-rot       x-rot vel   y-rot vel   z-rot vel   x-rot acc   y-rot acc   z-rot acc
    22626 -1.19346E-02 1.91762E-04 3.55980E-04-7.29794E-03 1.87068E-04 3.66444E-04-2.41130E-03-1.98118E-04 5.85893E-05



 n o d a l   p r i n t   o u t   f o r   t i m e  s t e p   15202                              ( at time 7.5997394E+00 )

 nodal point  x-disp     y-disp      z-disp      x-vel       y-vel       z-vel      x-accl      y-accl      z-accl      x-coor      y-coor      z-coor
    22626  1.32694E-02 1.34547E+00-1.54871E-01 1.84803E-02 6.11710E-01 2.68614E-01 1.91763E-02 1.56326E-01 1.39408E-01 4.67264E+00-2.68454E+01-4.51366E+01



 n o d a l   p r i n t   o u t   f o r   t i m e  s t e p   15202                              ( at time 7.5997394E+00 )

 nodal point  x-rot      y-rot       z-rot       x-rot vel   y-rot vel   z-rot vel   x-rot acc   y-rot acc   z-rot acc
    22626 -1.26724E-02 2.11441E-04 3.89750E-04-7.41392E-03 2.18303E-04 3.15244E-04-1.15989E-03 3.12382E-04-5.12053E-04



 n o d a l   p r i n t   o u t   f o r   t i m e  s t e p   15402                              ( at time 7.6997294E+00 )

 nodal point  x-disp     y-disp      z-disp      x-vel       y-vel       z-vel      x-accl      y-accl      z-accl      x-coor      y-coor      z-coor
    22626  1.48012E-02 1.40741E+00-1.27417E-01 1.72940E-02 6.27082E-01 2.80415E-01-1.18649E-02 1.53740E-01 1.18018E-01 4.67418E+00-2.67834E+01-4.51091E+01



 n o d a l   p r i n t   o u t   f o r   t i m e  s t e p   15402                              ( at time 7.6997294E+00 )

 nodal point  x-rot      y-rot       z-rot       x-rot vel   y-rot vel   z-rot vel   x-rot acc   y-rot acc   z-rot acc
    22626 -1.34213E-02 2.34095E-04 4.23580E-04-7.57717E-03 2.51838E-04 3.31070E-04-1.63271E-03 3.35385E-04 1.58275E-04



 n o d a l   p r i n t   o u t   f o r   t i m e  s t e p   15602                              ( at time 7.7997194E+00 )

 nodal point  x-disp     y-disp      z-disp      x-vel       y-vel       z-vel      x-accl      y-accl      z-accl      x-coor      y-coor      z-coor
    22626  1.64443E-02 1.47115E+00-9.87348E-02 1.45000E-02 6.45765E-01 2.92558E-01-2.79430E-02 1.86843E-01 1.21440E-01 4.67582E+00-2.67197E+01-4.50805E+01



 n o d a l   p r i n t   o u t   f o r   t i m e  s t e p   15602                              ( at time 7.7997194E+00 )

 nodal point  x-rot      y-rot       z-rot       x-rot vel   y-rot vel   z-rot vel   x-rot acc   y-rot acc   z-rot acc
    22626 -1.41880E-02 2.54413E-04 4.56824E-04-7.75897E-03 2.22086E-04 3.45208E-04-1.81816E-03-2.97549E-04 1.41397E-04



 n o d a l   p r i n t   o u t   f o r   t i m e  s t e p   15802                              ( at time 7.8997094E+00 )

 nodal point  x-disp     y-disp      z-disp      x-vel       y-vel       z-vel      x-accl      y-accl      z-accl      x-coor      y-coor      z-coor
    22626  1.81174E-02 1.53650E+00-6.87435E-02 1.38378E-02 6.62921E-01 3.04395E-01-6.62215E-03 1.71582E-01 1.18387E-01 4.67749E+00-2.66543E+01-4.50505E+01



 n o d a l   p r i n t   o u t   f o r   t i m e  s t e p   15802                              ( at time 7.8997094E+00 )

 nodal point  x-rot      y-rot       z-rot       x-rot vel   y-rot vel   z-rot vel   x-rot acc   y-rot acc   z-rot acc
    22626 -1.49652E-02 2.79677E-04 4.85519E-04-7.84523E-03 2.30446E-04 2.95478E-04-8.62706E-04 8.36126E-05-4.97354E-04



 n o d a l   p r i n t   o u t   f o r   t i m e  s t e p   16002                              ( at time 7.9996994E+00 )

 nodal point  x-disp     y-disp      z-disp      x-vel       y-vel       z-vel      x-accl      y-accl      z-accl      x-coor      y-coor      z-coor
    22626  1.96266E-02 1.60367E+00-3.76765E-02 1.75289E-02 6.80605E-01 3.16680E-01 3.69147E-02 1.76852E-01 1.22860E-01 4.67900E+00-2.65872E+01-4.50194E+01



 n o d a l   p r i n t   o u t   f o r   t i m e  s t e p   16002                              ( at time 7.9996994E+00 )

 nodal point  x-rot      y-rot       z-rot       x-rot vel   y-rot vel   z-rot vel   x-rot acc   y-rot acc   z-rot acc
    22626 -1.57520E-02 3.01970E-04 5.15745E-04-7.98268E-03 2.41201E-04 2.61817E-04-1.37463E-03 1.07557E-04-3.36637E-04



 n o d a l   p r i n t   o u t   f o r   t i m e  s t e p   16202                              ( at time 8.0996894E+00 )

 nodal point  x-disp     y-disp      z-disp      x-vel       y-vel       z-vel      x-accl      y-accl      z-accl      x-coor      y-coor      z-coor
    22626  2.10890E-02 1.67267E+00-5.25342E-03 1.51210E-02 7.00216E-01 3.28674E-01-2.40819E-02 1.96132E-01 1.19951E-01 4.68046E+00-2.65182E+01-4.49870E+01



 n o d a l   p r i n t   o u t   f o r   t i m e  s t e p   16202                              ( at time 8.0996894E+00 )

 nodal point  x-rot      y-rot       z-rot       x-rot vel   y-rot vel   z-rot vel   x-rot acc   y-rot acc   z-rot acc
    22626 -1.65524E-02 3.26651E-04 5.45667E-04-8.10642E-03 2.05874E-04 2.87913E-04-1.23755E-03-3.53304E-04 2.60987E-04



 n o d a l   p r i n t   o u t   f o r   t i m e  s t e p   16402                              ( at time 8.1996794E+00 )

 nodal point  x-disp     y-disp      z-disp      x-vel       y-vel       z-vel      x-accl      y-accl      z-accl      x-coor      y-coor      z-coor
    22626  2.26830E-02 1.74352E+00 2.85001E-02 1.36640E-02 7.17314E-01 3.43847E-01-1.45710E-02 1.70994E-01 1.51745E-01 4.68206E+00-2.64473E+01-4.49532E+01



 n o d a l   p r i n t   o u t   f o r   t i m e  s t e p   16402                              ( at time 8.1996794E+00 )

 nodal point  x-rot      y-rot       z-rot       x-rot vel   y-rot vel   z-rot vel   x-rot acc   y-rot acc   z-rot acc
    22626 -1.73623E-02 3.50514E-04 5.72925E-04-8.20789E-03 2.45618E-04 2.62132E-04-1.01475E-03 3.97485E-04-2.57836E-04



 n o d a l   p r i n t   o u t   f o r   t i m e  s t e p   16602                              ( at time 8.2996694E+00 )

 nodal point  x-disp     y-disp      z-disp      x-vel       y-vel       z-vel      x-accl      y-accl      z-accl      x-coor      y-coor      z-coor
    22626  2.41819E-02 1.81619E+00 6.36077E-02 1.67720E-02 7.35079E-01 3.55717E-01 3.10826E-02 1.77673E-01 1.18708E-01 4.68356E+00-2.63746E+01-4.49181E+01



 n o d a l   p r i n t   o u t   f o r   t i m e  s t e p   16602                              ( at time 8.2996694E+00 )

 nodal point  x-rot      y-rot       z-rot       x-rot vel   y-rot vel   z-rot vel   x-rot acc   y-rot acc   z-rot acc
    22626 -1.81828E-02 3.75701E-04 6.01093E-04-8.22794E-03 2.81893E-04 2.64747E-04-2.00553E-04 3.62778E-04 2.61530E-05



 n o d a l   p r i n t   o u t   f o r   t i m e  s t e p   16802                              ( at time 8.3996594E+00 )

 nodal point  x-disp     y-disp      z-disp      x-vel       y-vel       z-vel      x-accl      y-accl      z-accl      x-coor      y-coor      z-coor
    22626  2.56303E-02 1.89069E+00 9.97014E-02 1.16241E-02 7.55215E-01 3.67716E-01-5.14837E-02 2.01376E-01 1.20008E-01 4.68501E+00-2.63001E+01-4.48820E+01



 n o d a l   p r i n t   o u t   f o r   t i m e  s t e p   16802                              ( at time 8.3996594E+00 )

 nodal point  x-rot      y-rot       z-rot       x-rot vel   y-rot vel   z-rot vel   x-rot acc   y-rot acc   z-rot acc
    22626 -1.90097E-02 4.01658E-04 6.24608E-04-8.32441E-03 2.61833E-04 2.36100E-04-9.64789E-04-2.00621E-04-2.86506E-04



 n o d a l   p r i n t   o u t   f o r   t i m e  s t e p   17002                              ( at time 8.4996494E+00 )

 nodal point  x-disp     y-disp      z-disp      x-vel       y-vel       z-vel      x-accl      y-accl      z-accl      x-coor      y-coor      z-coor
    22626  2.71765E-02 1.96708E+00 1.37374E-01 1.51021E-02 7.71788E-01 3.81337E-01 3.47835E-02 1.65755E-01 1.36224E-01 4.68655E+00-2.62237E+01-4.48443E+01



 n o d a l   p r i n t   o u t   f o r   t i m e  s t e p   17002                              ( at time 8.4996494E+00 )

 nodal point  x-rot      y-rot       z-rot       x-rot vel   y-rot vel   z-rot vel   x-rot acc   y-rot acc   z-rot acc
    22626 -1.98462E-02 4.28705E-04 6.48075E-04-8.42478E-03 2.69808E-04 2.61038E-04-1.00376E-03 7.97619E-05 2.49408E-04



 n o d a l   p r i n t   o u t   f o r   t i m e  s t e p   17202                              ( at time 8.5996394E+00 )

 nodal point  x-disp     y-disp      z-disp      x-vel       y-vel       z-vel      x-accl      y-accl      z-accl      x-coor      y-coor      z-coor
    22626  2.85474E-02 2.04528E+00 1.76076E-01 1.44119E-02 7.91798E-01 3.91593E-01-6.90322E-03 2.00121E-01 1.02567E-01 4.68792E+00-2.61455E+01-4.48056E+01



 n o d a l   p r i n t   o u t   f o r   t i m e  s t e p   17202                              ( at time 8.5996394E+00 )

 nodal point  x-rot      y-rot       z-rot       x-rot vel   y-rot vel   z-rot vel   x-rot acc   y-rot acc   z-rot acc
    22626 -2.06917E-02 4.53173E-04 6.75244E-04-8.53447E-03 2.54094E-04 2.82759E-04-1.09707E-03-1.57152E-04 2.17238E-04



 n o d a l   p r i n t   o u t   f o r   t i m e  s t e p   17402                              ( at time 8.6996293E+00 )

 nodal point  x-disp     y-disp      z-disp      x-vel       y-vel       z-vel      x-accl      y-accl      z-accl      x-coor      y-coor      z-coor
    22626  2.98295E-02 2.12542E+00 2.16242E-01 1.48280E-02 8.08059E-01 4.07278E-01 4.16187E-03 1.62615E-01 1.56862E-01 4.68920E+00-2.60654E+01-4.47655E+01



 n o d a l   p r i n t   o u t   f o r   t i m e  s t e p   17402                              ( at time 8.6996293E+00 )

 nodal point  x-rot      y-rot       z-rot       x-rot vel   y-rot vel   z-rot vel   x-rot acc   y-rot acc   z-rot acc
    22626 -2.15432E-02 4.77133E-04 6.97692E-04-8.55685E-03 2.79755E-04 2.12533E-04-2.23761E-04 2.56628E-04-7.02333E-04



 n o d a l   p r i n t   o u t   f o r   t i m e  s t e p   17602                              ( at time 8.7996193E+00 )

 nodal point  x-disp     y-disp      z-disp      x-vel       y-vel       z-vel      x-accl      y-accl      z-accl      x-coor      y-coor      z-coor
    22626  3.11413E-02 2.20729E+00 2.57561E-01 1.25313E-02 8.30479E-01 4.20198E-01-2.29698E-02 2.24226E-01 1.29216E-01 4.69052E+00-2.59835E+01-4.47242E+01



 n o d a l   p r i n t   o u t   f o r   t i m e  s t e p   17602                              ( at time 8.7996193E+00 )

 nodal point  x-rot      y-rot       z-rot       x-rot vel   y-rot vel   z-rot vel   x-rot acc   y-rot acc   z-rot acc
    22626 -2.24009E-02 5.04365E-04 7.19973E-04-8.57120E-03 2.21039E-04 2.34907E-04-1.43503E-04-5.87221E-04 2.23769E-04



 n o d a l   p r i n t   o u t   f o r   t i m e  s t e p   17802                              ( at time 8.8996093E+00 )

 nodal point  x-disp     y-disp      z-disp      x-vel       y-vel       z-vel      x-accl      y-accl      z-accl      x-coor      y-coor      z-coor
    22626  3.24667E-02 2.29113E+00 3.00305E-01 1.39244E-02 8.47892E-01 4.35439E-01 1.39327E-02 1.74145E-01 1.52428E-01 4.69184E+00-2.58997E+01-4.46814E+01



 n o d a l   p r i n t   o u t   f o r   t i m e  s t e p   17802                              ( at time 8.8996093E+00 )

 nodal point  x-rot      y-rot       z-rot       x-rot vel   y-rot vel   z-rot vel   x-rot acc   y-rot acc   z-rot acc
    22626 -2.32657E-02 5.27522E-04 7.44363E-04-8.64771E-03 2.39963E-04 2.10860E-04-7.65224E-04 1.89265E-04-2.40492E-04



 n o d a l   p r i n t   o u t   f o r   t i m e  s t e p   18002                              ( at time 8.9995993E+00 )

 nodal point  x-disp     y-disp      z-disp      x-vel       y-vel       z-vel      x-accl      y-accl      z-accl      x-coor      y-coor      z-coor
    22626  3.37269E-02 2.37689E+00 3.44273E-01 1.20785E-02 8.64952E-01 4.45810E-01-1.84607E-02 1.70618E-01 1.03715E-01 4.69310E+00-2.58139E+01-4.46374E+01



 n o d a l   p r i n t   o u t   f o r   t i m e  s t e p   18002                              ( at time 8.9995993E+00 )

 nodal point  x-rot      y-rot       z-rot       x-rot vel   y-rot vel   z-rot vel   x-rot acc   y-rot acc   z-rot acc
    22626 -2.41362E-02 5.54332E-04 7.64680E-04-8.73715E-03 2.50705E-04 2.23148E-04-8.94514E-04 1.07433E-04 1.22884E-04



 n o d a l   p r i n t   o u t   f o r   t i m e  s t e p   18202                              ( at time 9.0995893E+00 )

 nodal point  x-disp     y-disp      z-disp      x-vel       y-vel       z-vel      x-accl      y-accl      z-accl      x-coor      y-coor      z-coor
    22626  3.49174E-02 2.46437E+00 3.89867E-01 1.02406E-02 8.85913E-01 4.61918E-01-1.83814E-02 2.09635E-01 1.61096E-01 4.69429E+00-2.57265E+01-4.45919E+01



 n o d a l   p r i n t   o u t   f o r   t i m e  s t e p   18202                              ( at time 9.0995893E+00 )

 nodal point  x-rot      y-rot       z-rot       x-rot vel   y-rot vel   z-rot vel   x-rot acc   y-rot acc   z-rot acc
    22626 -2.50135E-02 5.76798E-04 7.88437E-04-8.84725E-03 2.10954E-04 2.53340E-04-1.10110E-03-3.97554E-04 3.01955E-04



 n o d a l   p r i n t   o u t   f o r   t i m e  s t e p   18402                              ( at time 9.1995793E+00 )

 nodal point  x-disp     y-disp      z-disp      x-vel       y-vel       z-vel      x-accl      y-accl      z-accl      x-coor      y-coor      z-coor
    22626  3.61874E-02 2.55376E+00 4.36796E-01 1.24463E-02 9.02024E-01 4.76619E-01 2.20595E-02 1.61126E-01 1.47028E-01 4.69556E+00-2.56371E+01-4.45449E+01



 n o d a l   p r i n t   o u t   f o r   t i m e  s t e p   18402                              ( at time 9.1995793E+00 )

 nodal point  x-rot      y-rot       z-rot       x-rot vel   y-rot vel   z-rot vel   x-rot acc   y-rot acc   z-rot acc
    22626 -2.58964E-02 6.00269E-04 8.08955E-04-8.85512E-03 2.44827E-04 2.08452E-04-7.86488E-05 3.38763E-04-4.48930E-04



 n o d a l   p r i n t   o u t   f o r   t i m e  s t e p   18602                              ( at time 9.2995693E+00 )

 nodal point  x-disp     y-disp      z-disp      x-vel       y-vel       z-vel      x-accl      y-accl      z-accl      x-coor      y-coor      z-coor
    22626  3.73694E-02 2.64479E+00 4.85129E-01 1.41126E-02 9.19487E-01 4.90780E-01 1.66650E-02 1.74644E-01 1.41629E-01 4.69674E+00-2.55460E+01-4.44966E+01



 n o d a l   p r i n t   o u t   f o r   t i m e  s t e p   18602                              ( at time 9.2995693E+00 )

 nodal point  x-rot      y-rot       z-rot       x-rot vel   y-rot vel   z-rot vel   x-rot acc   y-rot acc   z-rot acc
    22626 -2.67859E-02 6.23052E-04 8.30394E-04-8.93368E-03 2.11978E-04 1.63980E-04-7.85724E-04-3.28520E-04-4.44765E-04



 n o d a l   p r i n t   o u t   f o r   t i m e  s t e p   18802                              ( at time 9.3995593E+00 )

 nodal point  x-disp     y-disp      z-disp      x-vel       y-vel       z-vel      x-accl      y-accl      z-accl      x-coor      y-coor      z-coor
    22626  3.86027E-02 2.73770E+00 5.35173E-01 1.04618E-02 9.36727E-01 5.08931E-01-3.65116E-02 1.72420E-01 1.81530E-01 4.69798E+00-2.54531E+01-4.44465E+01



 n o d a l   p r i n t   o u t   f o r   t i m e  s t e p   18802                              ( at time 9.3995593E+00 )

 nodal point  x-rot      y-rot       z-rot       x-rot vel   y-rot vel   z-rot vel   x-rot acc   y-rot acc   z-rot acc
    22626 -2.76833E-02 6.44052E-04 8.49144E-04-8.99813E-03 1.99349E-04 1.90394E-04-6.44531E-04-1.26304E-04 2.64171E-04



 n o d a l   p r i n t   o u t   f o r   t i m e  s t e p   19002                              ( at time 9.4995493E+00 )

 nodal point  x-disp     y-disp      z-disp      x-vel       y-vel       z-vel      x-accl      y-accl      z-accl      x-coor      y-coor      z-coor
    22626  3.98901E-02 2.83243E+00 5.86899E-01 1.30487E-02 9.56670E-01 5.24865E-01 2.58709E-02 1.99454E-01 1.59353E-01 4.69927E+00-2.53584E+01-4.43948E+01



 n o d a l   p r i n t   o u t   f o r   t i m e  s t e p   19002                              ( at time 9.4995493E+00 )

 nodal point  x-rot      y-rot       z-rot       x-rot vel   y-rot vel   z-rot vel   x-rot acc   y-rot acc   z-rot acc
    22626 -2.85890E-02 6.64992E-04 8.68590E-04-9.08641E-03 2.06042E-04 2.31564E-04-8.82918E-04 6.69316E-05 4.11743E-04



 n o d a l   p r i n t   o u t   f o r   t i m e  s t e p   19202                              ( at time 9.5995393E+00 )

 nodal point  x-disp     y-disp      z-disp      x-vel       y-vel       z-vel      x-accl      y-accl      z-accl      x-coor      y-coor      z-coor
    22626  4.11467E-02 2.92890E+00 6.40186E-01 1.42273E-02 9.72714E-01 5.39504E-01 1.17876E-02 1.60455E-01 1.46402E-01 4.70052E+00-2.52619E+01-4.43415E+01



 n o d a l   p r i n t   o u t   f o r   t i m e  s t e p   19202                              ( at time 9.5995393E+00 )

 nodal point  x-rot      y-rot       z-rot       x-rot vel   y-rot vel   z-rot vel   x-rot acc   y-rot acc   z-rot acc
    22626 -2.95021E-02 6.85130E-04 8.89332E-04-9.19409E-03 2.17799E-04 1.65521E-04-1.07693E-03 1.17582E-04-6.60495E-04



 n o d a l   p r i n t   o u t   f o r   t i m e  s t e p   19402                              ( at time 9.6995293E+00 )

 nodal point  x-disp     y-disp      z-disp      x-vel       y-vel       z-vel      x-accl      y-accl      z-accl      x-coor      y-coor      z-coor
    22626  4.23864E-02 3.02727E+00 6.95222E-01 1.13173E-02 9.91408E-01 5.60402E-01-2.91026E-02 1.86957E-01 2.08998E-01 4.70176E+00-2.51636E+01-4.42865E+01



 n o d a l   p r i n t   o u t   f o r   t i m e  s t e p   19402                              ( at time 9.6995293E+00 )

 nodal point  x-rot      y-rot       z-rot       x-rot vel   y-rot vel   z-rot vel   x-rot acc   y-rot acc   z-rot acc
    22626 -3.04264E-02 7.02862E-04 9.08805E-04-9.25678E-03 1.56961E-04 2.13226E-04-6.26983E-04-6.08441E-04 4.77104E-04



 n o d a l   p r i n t   o u t   f o r   t i m e  s t e p   19602                              ( at time 9.7995193E+00 )

 nodal point  x-disp     y-disp      z-disp      x-vel       y-vel       z-vel      x-accl      y-accl      z-accl      x-coor      y-coor      z-coor
    22626  4.36767E-02 3.12728E+00 7.52110E-01 1.17693E-02 1.00946E+00 5.76986E-01 4.51978E-03 1.80495E-01 1.65857E-01 4.70305E+00-2.50636E+01-4.42296E+01



 n o d a l   p r i n t   o u t   f o r   t i m e  s t e p   19602                              ( at time 9.7995193E+00 )

 nodal point  x-rot      y-rot       z-rot       x-rot vel   y-rot vel   z-rot vel   x-rot acc   y-rot acc   z-rot acc
    22626 -3.13610E-02 7.21794E-04 9.25974E-04-9.38373E-03 2.10923E-04 1.70087E-04-1.26953E-03 5.39677E-04-4.31442E-04



 n o d a l   p r i n t   o u t   f o r   t i m e  s t e p   19802                              ( at time 9.8995093E+00 )

 nodal point  x-disp     y-disp      z-disp      x-vel       y-vel       z-vel      x-accl      y-accl      z-accl      x-coor      y-coor      z-coor
    22626  4.49944E-02 3.22917E+00 8.10635E-01 1.55324E-02 1.02861E+00 5.96651E-01 3.76349E-02 1.91565E-01 1.96669E-01 4.70437E+00-2.49617E+01-4.41711E+01



 n o d a l   p r i n t   o u t   f o r   t i m e  s t e p   19802                              ( at time 9.8995093E+00 )

 nodal point  x-rot      y-rot       z-rot       x-rot vel   y-rot vel   z-rot vel   x-rot acc   y-rot acc   z-rot acc
    22626 -3.23109E-02 7.41628E-04 9.44008E-04-9.52365E-03 1.70826E-04 1.45986E-04-1.39943E-03-4.01013E-04-2.41030E-04



 n o d a l   p r i n t   o u t   f o r   t i m e  s t e p   20003                              ( at time 9.9999992E+00 )

 nodal point  x-disp     y-disp      z-disp      x-vel       y-vel       z-vel      x-accl      y-accl      z-accl      x-coor      y-coor      z-coor
[...]
    22626 -2.22906E-01 2.97887E-03 2.15738E-04-1.81856E-02 2.99987E-04-9.08794E-05-7.00419E-05 6.50265E-04-4.23823E-05



 n o d a l   p r i n t   o u t   f o r   t i m e  s t e p   45205                              ( at time 2.2599738E+01 )

 nodal point  x-disp     y-disp      z-disp      x-vel       y-vel       z-vel      x-accl      y-accl      z-accl      x-coor      y-coor      z-coor
    22626  3.96813E-01 2.30808E+01 1.96759E+01 1.67010E-02 1.94562E+00 1.14717E+00-1.15565E-02 4.83295E-02-1.43009E-01 5.05619E+00-5.11007E+00-2.53059E+01



 n o d a l   p r i n t   o u t   f o r   t i m e  s t e p   45205                              ( at time 2.2599738E+01 )

 nodal point  x-rot      y-rot       z-rot       x-rot vel   y-rot vel   z-rot vel   x-rot acc   y-rot acc   z-rot acc
    22626 -2.24727E-01 3.00887E-03 2.07095E-04-1.82221E-02 2.93987E-04-7.73632E-05-3.65764E-04-6.00132E-05 1.35174E-04



 n o d a l   p r i n t   o u t   f o r   t i m e  s t e p   45405                              ( at time 2.2699728E+01 )

 nodal point  x-disp     y-disp      z-disp      x-vel       y-vel       z-vel      x-accl      y-accl      z-accl      x-coor      y-coor      z-coor
    22626  3.98331E-01 2.32756E+01 1.97898E+01 1.47182E-02 1.95142E+00 1.13229E+00-1.98300E-02 5.79552E-02-1.48802E-01 5.05771E+00-4.91527E+00-2.51919E+01



 n o d a l   p r i n t   o u t   f o r   t i m e  s t e p   45405                              ( at time 2.2699728E+01 )

 nodal point  x-rot      y-rot       z-rot       x-rot vel   y-rot vel   z-rot vel   x-rot acc   y-rot acc   z-rot acc
    22626 -2.26551E-01 3.03468E-03 1.97449E-04-1.82409E-02 2.39870E-04-1.14060E-04-1.87198E-04-5.41226E-04-3.67009E-04



 n o d a l   p r i n t   o u t   f o r   t i m e  s t e p   45605                              ( at time 2.2799718E+01 )

 nodal point  x-disp     y-disp      z-disp      x-vel       y-vel       z-vel      x-accl      y-accl      z-accl      x-coor      y-coor      z-coor
    22626  3.99914E-01 2.34709E+01 1.99021E+01 1.63857E-02 1.95476E+00 1.11483E+00 1.66757E-02 3.34830E-02-1.74610E-01 5.05929E+00-4.71993E+00-2.50796E+01



 n o d a l   p r i n t   o u t   f o r   t i m e  s t e p   45605                              ( at time 2.2799718E+01 )

 nodal point  x-rot      y-rot       z-rot       x-rot vel   y-rot vel   z-rot vel   x-rot acc   y-rot acc   z-rot acc
    22626 -2.28377E-01 3.06101E-03 1.85051E-04-1.82596E-02 2.96585E-04-1.11757E-04-1.87828E-04 5.67199E-04 2.30285E-05



 n o d a l   p r i n t   o u t   f o r   t i m e  s t e p   45805                              ( at time 2.2899708E+01 )

 nodal point  x-disp     y-disp      z-disp      x-vel       y-vel       z-vel      x-accl      y-accl      z-accl      x-coor      y-coor      z-coor
    22626  4.01641E-01 2.36665E+01 2.00129E+01 1.90083E-02 1.95840E+00 1.10180E+00 2.62292E-02 3.63903E-02-1.30282E-01 5.06102E+00-4.52431E+00-2.49688E+01



 n o d a l   p r i n t   o u t   f o r   t i m e  s t e p   45805                              ( at time 2.2899708E+01 )

 nodal point  x-rot      y-rot       z-rot       x-rot vel   y-rot vel   z-rot vel   x-rot acc   y-rot acc   z-rot acc
    22626 -2.30203E-01 3.09312E-03 1.75244E-04-1.82640E-02 3.17484E-04-1.14399E-04-4.40192E-05 2.09016E-04-2.64191E-05



 n o d a l   p r i n t   o u t   f o r   t i m e  s t e p   46005                              ( at time 2.2999698E+01 )

 nodal point  x-disp     y-disp      z-disp      x-vel       y-vel       z-vel      x-accl      y-accl      z-accl      x-coor      y-coor      z-coor
    22626  4.03388E-01 2.38626E+01 2.01224E+01 1.53608E-02 1.96393E+00 1.08792E+00-3.64784E-02 5.52967E-02-1.38801E-01 5.06276E+00-4.32820E+00-2.48593E+01



 n o d a l   p r i n t   o u t   f o r   t i m e  s t e p   46005                              ( at time 2.2999698E+01 )

 nodal point  x-rot      y-rot       z-rot       x-rot vel   y-rot vel   z-rot vel   x-rot acc   y-rot acc   z-rot acc
    22626 -2.32029E-01 3.12280E-03 1.62670E-04-1.82746E-02 2.76593E-04-1.29520E-04-1.05473E-04-4.08946E-04-1.51222E-04



 n o d a l   p r i n t   o u t   f o r   t i m e  s t e p   46205                              ( at time 2.3099688E+01 )

 nodal point  x-disp     y-disp      z-disp      x-vel       y-vel       z-vel      x-accl      y-accl      z-accl      x-coor      y-coor      z-coor
    22626  4.04840E-01 2.40591E+01 2.02305E+01 1.51923E-02 1.96613E+00 1.07271E+00-1.68471E-03 2.19644E-02-1.52158E-01 5.06421E+00-4.13168E+00-2.47513E+01



 n o d a l   p r i n t   o u t   f o r   t i m e  s t e p   46205                              ( at time 2.3099688E+01 )

 nodal point  x-rot      y-rot       z-rot       x-rot vel   y-rot vel   z-rot vel   x-rot acc   y-rot acc   z-rot acc
    22626 -2.33856E-01 3.15135E-03 1.48837E-04-1.82854E-02 2.98638E-04-1.43314E-04-1.08362E-04 2.20468E-04-1.37954E-04



 n o d a l   p r i n t   o u t   f o r   t i m e  s t e p   46405                              ( at time 2.3199678E+01 )

 nodal point  x-disp     y-disp      z-disp      x-vel       y-vel       z-vel      x-accl      y-accl      z-accl      x-coor      y-coor      z-coor
    22626  4.06517E-01 2.42559E+01 2.03371E+01 1.71277E-02 1.96926E+00 1.06082E+00 1.93555E-02 3.12870E-02-1.18870E-01 5.06589E+00-3.93493E+00-2.46446E+01



 n o d a l   p r i n t   o u t   f o r   t i m e  s t e p   46405                              ( at time 2.3199678E+01 )

 nodal point  x-rot      y-rot       z-rot       x-rot vel   y-rot vel   z-rot vel   x-rot acc   y-rot acc   z-rot acc
    22626 -2.35684E-01 3.18262E-03 1.32574E-04-1.82945E-02 3.34643E-04-1.72005E-04-9.04024E-05 3.60084E-04-2.86938E-04



 n o d a l   p r i n t   o u t   f o r   t i m e  s t e p   46605                              ( at time 2.3299668E+01 )

 nodal point  x-disp     y-disp      z-disp      x-vel       y-vel       z-vel      x-accl      y-accl      z-accl      x-coor      y-coor      z-coor
    22626  4.08111E-01 2.44531E+01 2.04426E+01 1.50545E-02 1.97513E+00 1.05007E+00-2.07346E-02 5.87278E-02-1.07539E-01 5.06749E+00-3.73769E+00-2.45391E+01



 n o d a l   p r i n t   o u t   f o r   t i m e  s t e p   46605                              ( at time 2.3299668E+01 )

 nodal point  x-rot      y-rot       z-rot       x-rot vel   y-rot vel   z-rot vel   x-rot acc   y-rot acc   z-rot acc
    22626 -2.37514E-01 3.21661E-03 1.17033E-04-1.82971E-02 3.28346E-04-1.53795E-04-2.61544E-05-6.29740E-05 1.82120E-04



 n o d a l   p r i n t   o u t   f o r   t i m e  s t e p   46805                              ( at time 2.3399658E+01 )

 nodal point  x-disp     y-disp      z-disp      x-vel       y-vel       z-vel      x-accl      y-accl      z-accl      x-coor      y-coor      z-coor
    22626  4.09599E-01 2.46508E+01 2.05470E+01 1.39333E-02 1.97803E+00 1.03712E+00-1.12131E-02 2.90337E-02-1.29520E-01 5.06897E+00-3.54004E+00-2.44348E+01



 n o d a l   p r i n t   o u t   f o r   t i m e  s t e p   46805                              ( at time 2.3399658E+01 )

 nodal point  x-rot      y-rot       z-rot       x-rot vel   y-rot vel   z-rot vel   x-rot acc   y-rot acc   z-rot acc
    22626 -2.39344E-01 3.24826E-03 1.00525E-04-1.82918E-02 3.13467E-04-1.83159E-04 5.29226E-05-1.48805E-04-2.93663E-04



 n o d a l   p r i n t   o u t   f o r   t i m e  s t e p   47005                              ( at time 2.3499648E+01 )

 nodal point  x-disp     y-disp      z-disp      x-vel       y-vel       z-vel      x-accl      y-accl      z-accl      x-coor      y-coor      z-coor
    22626  4.10955E-01 2.48486E+01 2.06500E+01 1.34497E-02 1.97947E+00 1.02529E+00-4.83565E-03 1.43982E-02-1.18351E-01 5.07033E+00-3.34220E+00-2.43317E+01



 n o d a l   p r i n t   o u t   f o r   t i m e  s t e p   47005                              ( at time 2.3499648E+01 )

 nodal point  x-rot      y-rot       z-rot       x-rot vel   y-rot vel   z-rot vel   x-rot acc   y-rot acc   z-rot acc
    22626 -2.41173E-01 3.28110E-03 8.19014E-05-1.82795E-02 3.32148E-04-1.80836E-04 1.22387E-04 1.86826E-04 2.32319E-05



 n o d a l   p r i n t   o u t   f o r   t i m e  s t e p   47205                              ( at time 2.3599638E+01 )

 nodal point  x-disp     y-disp      z-disp      x-vel       y-vel       z-vel      x-accl      y-accl      z-accl      x-coor      y-coor      z-coor
    22626  4.12391E-01 2.50467E+01 2.07520E+01 1.49123E-02 1.98359E+00 1.01524E+00 1.46276E-02 4.11997E-02-1.00503E-01 5.07177E+00-3.14409E+00-2.42297E+01



 n o d a l   p r i n t   o u t   f o r   t i m e  s t e p   47205                              ( at time 2.3599638E+01 )

 nodal point  x-rot      y-rot       z-rot       x-rot vel   y-rot vel   z-rot vel   x-rot acc   y-rot acc   z-rot acc
    22626 -2.43002E-01 3.31483E-03 6.49933E-05-1.83107E-02 3.40840E-04-1.57028E-04-3.11450E-04 8.69372E-05 2.38097E-04



 n o d a l   p r i n t   o u t   f o r   t i m e  s t e p   47405                              ( at time 2.3699628E+01 )

 nodal point  x-disp     y-disp      z-disp      x-vel       y-vel       z-vel      x-accl      y-accl      z-accl      x-coor      y-coor      z-coor
    22626  4.13687E-01 2.52452E+01 2.08531E+01 1.10900E-02 1.98601E+00 1.00634E+00-3.82267E-02 2.41707E-02-8.89609E-02 5.07306E+00-2.94562E+00-2.41286E+01



 n o d a l   p r i n t   o u t   f o r   t i m e  s t e p   47405                              ( at time 2.3699628E+01 )

 nodal point  x-rot      y-rot       z-rot       x-rot vel   y-rot vel   z-rot vel   x-rot acc   y-rot acc   z-rot acc
    22626 -2.44832E-01 3.34873E-03 4.87530E-05-1.82887E-02 3.35971E-04-1.68314E-04 2.20129E-04-4.86995E-05-1.12870E-04



 n o d a l   p r i n t   o u t   f o r   t i m e  s t e p   47605                              ( at time 2.3799618E+01 )

 nodal point  x-disp     y-disp      z-disp      x-vel       y-vel       z-vel      x-accl      y-accl      z-accl      x-coor      y-coor      z-coor
    22626  4.14761E-01 2.54439E+01 2.09533E+01 1.10493E-02 1.98714E+00 9.97199E-01-4.06968E-04 1.12689E-02-9.14460E-02 5.07414E+00-2.74697E+00-2.40284E+01



 n o d a l   p r i n t   o u t   f o r   t i m e  s t e p   47605                              ( at time 2.3799618E+01 )

 nodal point  x-rot      y-rot       z-rot       x-rot vel   y-rot vel   z-rot vel   x-rot acc   y-rot acc   z-rot acc
    22626 -2.46661E-01 3.38169E-03 3.13101E-05-1.82958E-02 3.39413E-04-1.68777E-04-7.09746E-05 3.44267E-05-4.62336E-06



 n o d a l   p r i n t   o u t   f o r   t i m e  s t e p   47805                              ( at time 2.3899608E+01 )

 nodal point  x-disp     y-disp      z-disp      x-vel       y-vel       z-vel      x-accl      y-accl      z-accl      x-coor      y-coor      z-coor
    22626  4.15845E-01 2.56426E+01 2.10526E+01 1.07548E-02 1.98801E+00 9.88710E-01-2.94539E-03 8.76507E-03-8.48967E-02 5.07522E+00-2.54824E+00-2.39292E+01



 n o d a l   p r i n t   o u t   f o r   t i m e  s t e p   47805                              ( at time 2.3899608E+01 )

 nodal point  x-rot      y-rot       z-rot       x-rot vel   y-rot vel   z-rot vel   x-rot acc   y-rot acc   z-rot acc
    22626 -2.48489E-01 3.41675E-03 1.59794E-05-1.82872E-02 3.65428E-04-1.41794E-04 8.58572E-05 2.60174E-04 2.69855E-04



 n o d a l   p r i n t   o u t   f o r   t i m e  s t e p   48005                              ( at time 2.3999598E+01 )

 nodal point  x-disp     y-disp      z-disp      x-vel       y-vel       z-vel      x-accl      y-accl      z-accl      x-coor      y-coor      z-coor
    22626  4.16875E-01 2.58415E+01 2.11510E+01 9.89525E-03 1.99016E+00 9.80350E-01-8.59648E-03 2.14386E-02-8.36101E-02 5.07625E+00-2.34929E+00-2.38308E+01



 n o d a l   p r i n t   o u t   f o r   t i m e  s t e p   48005                              ( at time 2.3999598E+01 )

 nodal point  x-rot      y-rot       z-rot       x-rot vel   y-rot vel   z-rot vel   x-rot acc   y-rot acc   z-rot acc
    22626 -2.50316E-01 3.45314E-03 2.53878E-06-1.82694E-02 3.49904E-04-1.29293E-04 1.77399E-04-1.55262E-04 1.25020E-04



 n o d a l   p r i n t   o u t   f o r   t i m e  s t e p   48205                              ( at time 2.4099588E+01 )

 nodal point  x-disp     y-disp      z-disp      x-vel       y-vel       z-vel      x-accl      y-accl      z-accl      x-coor      y-coor      z-coor
    22626  4.17735E-01 2.60405E+01 2.12487E+01 7.01239E-03 1.98997E+00 9.74903E-01-2.88312E-02-1.88249E-03-5.44687E-02 5.07711E+00-2.15033E+00-2.37330E+01



 n o d a l   p r i n t   o u t   f o r   t i m e  s t e p   48205                              ( at time 2.4099588E+01 )

 nodal point  x-rot      y-rot       z-rot       x-rot vel   y-rot vel   z-rot vel   x-rot acc   y-rot acc   z-rot acc
    22626 -2.52144E-01 3.48723E-03-1.03501E-05-1.82889E-02 3.33281E-04-1.18056E-04-1.95000E-04-1.66239E-04 1.12380E-04



 n o d a l   p r i n t   o u t   f o r   t i m e  s t e p   48405                              ( at time 2.4199578E+01 )

 nodal point  x-disp     y-disp      z-disp      x-vel       y-vel       z-vel      x-accl      y-accl      z-accl      x-coor      y-coor      z-coor
    22626  4.18488E-01 2.62395E+01 2.13459E+01 8.57876E-03 1.99002E+00 9.67736E-01 1.56654E-02 4.78082E-04-7.16783E-02 5.07786E+00-1.95131E+00-2.36358E+01



 n o d a l   p r i n t   o u t   f o r   t i m e  s t e p   48405                              ( at time 2.4199578E+01 )

 nodal point  x-rot      y-rot       z-rot       x-rot vel   y-rot vel   z-rot vel   x-rot acc   y-rot acc   z-rot acc
    22626 -2.53969E-01 3.52121E-03-2.19709E-05-1.82355E-02 3.52073E-04-9.92705E-05 5.34936E-04 1.87939E-04 1.87876E-04



 n o d a l   p r i n t   o u t   f o r   t i m e  s t e p   48605                              ( at time 2.4299568E+01 )

 nodal point  x-disp     y-disp      z-disp      x-vel       y-vel       z-vel      x-accl      y-accl      z-accl      x-coor      y-coor      z-coor
    22626  4.19385E-01 2.64385E+01 2.14423E+01 8.66488E-03 1.99012E+00 9.61203E-01 8.61319E-04 1.05033E-03-6.53386E-02 5.07876E+00-1.75234E+00-2.35394E+01



 n o d a l   p r i n t   o u t   f o r   t i m e  s t e p   48605                              ( at time 2.4299568E+01 )

 nodal point  x-rot      y-rot       z-rot       x-rot vel   y-rot vel   z-rot vel   x-rot acc   y-rot acc   z-rot acc
    22626 -2.55792E-01 3.55774E-03-3.18074E-05-1.82207E-02 3.70251E-04-1.03442E-04 1.47796E-04 1.81799E-04-4.17217E-05



 n o d a l   p r i n t   o u t   f o r   t i m e  s t e p   48805                              ( at time 2.4399558E+01 )

 nodal point  x-disp     y-disp      z-disp      x-vel       y-vel       z-vel      x-accl      y-accl      z-accl      x-coor      y-coor      z-coor
    22626  4.20079E-01 2.66374E+01 2.15381E+01 6.29904E-03 1.98798E+00 9.56539E-01-2.36606E-02-2.13607E-02-4.66419E-02 5.07945E+00-1.55346E+00-2.34436E+01



 n o d a l   p r i n t   o u t   f o r   t i m e  s t e p   48805                              ( at time 2.4399558E+01 )

 nodal point  x-rot      y-rot       z-rot       x-rot vel   y-rot vel   z-rot vel   x-rot acc   y-rot acc   z-rot acc
    22626 -2.57615E-01 3.59208E-03-4.20286E-05-1.82272E-02 3.13052E-04-1.10152E-04-6.51240E-05-5.72048E-04-6.70990E-05



 n o d a l   p r i n t   o u t   f o r   t i m e  s t e p   49006                              ( at time 2.4500048E+01 )

 nodal point  x-disp     y-disp      z-disp      x-vel       y-vel       z-vel      x-accl      y-accl      z-accl      x-coor      y-coor      z-coor
    22626  4.20769E-01 2.68371E+01 2.16340E+01 6.98052E-03 1.98655E+00 9.52142E-01 6.78165E-03-1.43138E-02-4.37607E-02 5.08014E+00-1.35376E+00-2.33477E+01



 n o d a l   p r i n t   o u t   f o r   t i m e  s t e p   49006                              ( at time 2.4500048E+01 )

 nodal point  x-rot      y-rot       z-rot       x-rot vel   y-rot vel   z-rot vel   x-rot acc   y-rot acc   z-rot acc
    22626 -2.59446E-01 3.62426E-03-5.22168E-05-1.82023E-02 3.40592E-04-9.98373E-05 2.47880E-04 2.74056E-04 1.02642E-04



 n o d a l   p r i n t   o u t   f o r   t i m e  s t e p   49206                              ( at time 2.4600038E+01 )

 nodal point  x-disp     y-disp      z-disp      x-vel       y-vel       z-vel      x-accl      y-accl      z-accl      x-coor      y-coor      z-coor
    22626  4.21537E-01 2.70356E+01 2.17290E+01 7.85769E-03 1.98548E+00 9.48326E-01 8.77256E-03-1.06189E-02-3.81624E-02 5.08091E+00-1.15520E+00-2.32527E+01



 n o d a l   p r i n t   o u t   f o r   t i m e  s t e p   49206                              ( at time 2.4600038E+01 )

 nodal point  x-rot      y-rot       z-rot       x-rot vel   y-rot vel   z-rot vel   x-rot acc   y-rot acc   z-rot acc
    22626 -2.61266E-01 3.65950E-03-6.29205E-05-1.82052E-02 3.49642E-04-1.04378E-04-2.89482E-05 9.05128E-05-4.54159E-05



 n o d a l   p r i n t   o u t   f o r   t i m e  s t e p   49406                              ( at time 2.4700028E+01 )

 nodal point  x-disp     y-disp      z-disp      x-vel       y-vel       z-vel      x-accl      y-accl      z-accl      x-coor      y-coor      z-coor
    22626  4.22361E-01 2.72341E+01 2.18237E+01 8.21523E-03 1.98380E+00 9.44873E-01 3.57578E-03-1.68068E-02-3.45352E-02 5.08174E+00-9.56751E-01-2.31580E+01



 n o d a l   p r i n t   o u t   f o r   t i m e  s t e p   49406                              ( at time 2.4700028E+01 )

 nodal point  x-rot      y-rot       z-rot       x-rot vel   y-rot vel   z-rot vel   x-rot acc   y-rot acc   z-rot acc
    22626 -2.63083E-01 3.69303E-03-7.25174E-05-1.81756E-02 3.27142E-04-8.20587E-05 2.95653E-04-2.25025E-04 2.23222E-04



 n o d a l   p r i n t   o u t   f o r   t i m e  s t e p   49606                              ( at time 2.4800018E+01 )

 nodal point  x-disp     y-disp      z-disp      x-vel       y-vel       z-vel      x-accl      y-accl      z-accl      x-coor      y-coor      z-coor
    22626  4.23137E-01 2.74323E+01 2.19181E+01 7.94564E-03 1.98096E+00 9.43015E-01-2.69616E-03-2.84495E-02-1.85846E-02 5.08251E+00-7.58537E-01-2.30636E+01



 n o d a l   p r i n t   o u t   f o r   t i m e  s t e p   49606                              ( at time 2.4800018E+01 )

 nodal point  x-rot      y-rot       z-rot       x-rot vel   y-rot vel   z-rot vel   x-rot acc   y-rot acc   z-rot acc
    22626 -2.64900E-01 3.72580E-03-8.11047E-05-1.81728E-02 3.27567E-04-9.22148E-05 2.81471E-05 4.25246E-06-1.01570E-04



 n o d a l   p r i n t   o u t   f o r   t i m e  s t e p   49806                              ( at time 2.4900008E+01 )

 nodal point  x-disp     y-disp      z-disp      x-vel       y-vel       z-vel      x-accl      y-accl      z-accl      x-coor      y-coor      z-coor
    22626  4.23974E-01 2.76302E+01 2.20122E+01 9.62592E-03 1.97858E+00 9.40433E-01 1.68047E-02-2.37503E-02-2.58176E-02 5.08335E+00-5.60605E-01-2.29695E+01



 n o d a l   p r i n t   o u t   f o r   t i m e  s t e p   49806                              ( at time 2.4900008E+01 )

 nodal point  x-rot      y-rot       z-rot       x-rot vel   y-rot vel   z-rot vel   x-rot acc   y-rot acc   z-rot acc
    22626 -2.66718E-01 3.75891E-03-8.99285E-05-1.81682E-02 3.42114E-04-8.23230E-05 4.64595E-05 1.45487E-04 9.89290E-05



 n o d a l   p r i n t   o u t   f o r   t i m e  s t e p   50006                              ( at time 2.4999998E+01 )

 nodal point  x-disp     y-disp      z-disp      x-vel       y-vel       z-vel      x-accl      y-accl      z-accl      x-coor      y-coor      z-coor
    22626  4.24931E-01 2.78280E+01 2.21061E+01 9.11137E-03 1.97684E+00 9.38966E-01-5.14603E-03-1.74777E-02-1.46689E-02 5.08431E+00-3.62856E-01-2.28756E+01



 n o d a l   p r i n t   o u t   f o r   t i m e  s t e p   50006                              ( at time 2.4999998E+01 )

 nodal point  x-rot      y-rot       z-rot       x-rot vel   y-rot vel   z-rot vel   x-rot acc   y-rot acc   z-rot acc
    22626 -2.68533E-01 3.79440E-03-9.72918E-05-1.81544E-02 3.62146E-04-7.15907E-05 1.37122E-04 2.00340E-04 1.07333E-04
