 LSTC 50th% Full_FE H-III Dummy (Beta Version, February 17, 2019)        
                    ls-dyna smp s R16 R16.0_619_d222963 date 03/18/2025

{BEGIN LEGEND}
 Entity #        Title
        1     Upper_Neck_Force_INJURY                                              
{END LEGEND}



 line#1  section#     time        x-force     y-force     z-force    magnitude
 line#2  resultant  moments       x-moment    y-moment    z-moment   magnitude
 line#3  centroids                x           y           z            area  
           1    0.00000E+00     0.0000E+00  0.0000E+00  0.0000E+00  0.0000E+00
ac ID =   33377                 0.0000E+00  0.0000E+00  0.0000E+00  0.0000E+00
                               -3.7437E-01  1.0501E+01 -4.6940E+01  0.0000E+00

           1    1.00490E-01     1.3626E-04 -4.9880E-03  2.5983E-01  2.5988E-01
ac ID =   33377                 4.2544E-01 -1.2521E+00 -2.7100E-02  1.3227E+00
                               -3.7387E-01  1.0590E+01 -4.6886E+01  2.5147E+03

           1    2.00480E-01    -4.4352E-02  5.9762E-04  4.4124E-01  4.4346E-01
ac ID =   33377                 3.0518E-01 -1.5965E+00  2.2294E-02  1.6255E+00
                               -3.7386E-01  1.0591E+01 -4.6888E+01  2.5147E+03

           1    3.00470E-01     1.4877E-02 -3.3365E-03  2.1758E-01  2.1811E-01
ac ID =   33377                 2.7887E-02 -3.3540E-01  6.5692E-02  3.4291E-01
                               -3.7382E-01  1.0591E+01 -4.6889E+01  2.5147E+03

           1    4.00460E-01     3.5340E-03  1.0920E-02  8.8905E-02  8.9642E-02
ac ID =   33377                -4.8972E-01 -9.3840E-01 -1.8041E-03  1.0585E+00
                               -3.7384E-01  1.0592E+01 -4.6890E+01  2.5147E+03

           1    5.00450E-01    -3.9050E-02  3.8378E-03  1.6472E-01  1.6932E-01
ac ID =   33377                -3.8612E-01 -1.4635E+00 -1.0780E-01  1.5174E+00
                               -3.7386E-01  1.0594E+01 -4.6893E+01  2.5147E+03

           1    6.00440E-01    -1.0091E-02  3.8180E-03  3.4767E-01  3.4784E-01
ac ID =   33377                 9.2313E-02 -1.2754E+00 -3.3595E-02  1.2791E+00
                               -3.7386E-01  1.0595E+01 -4.6897E+01  2.5147E+03

           1    7.00430E-01     4.7771E-03 -5.8019E-03  2.9748E-01  2.9758E-01
ac ID =   33377                 1.3586E-01 -4.2024E-01  1.0113E-01  4.5308E-01
                               -3.7391E-01  1.0597E+01 -4.6901E+01  2.5147E+03

           1    8.00420E-01    -2.7781E-02 -2.0379E-03  1.0487E-01  1.0850E-01
ac ID =   33377                 1.0530E-01 -9.5202E-01  5.2440E-02  9.5926E-01
                               -3.7397E-01  1.0599E+01 -4.6904E+01  2.5147E+03

           1    9.00410E-01    -3.6244E-02  3.6542E-04  7.0206E-02  7.9010E-02
ac ID =   33377                 1.0203E-01 -9.7509E-01 -5.7197E-03  9.8043E-01
                               -3.7403E-01  1.0601E+01 -4.6909E+01  2.5147E+03

           1    1.00040E+00     1.9464E-02 -3.8672E-03  2.3021E-01  2.3106E-01
ac ID =   33377                 3.7583E-01 -1.4991E-01 -5.7954E-02  4.0875E-01
                               -3.7406E-01  1.0604E+01 -4.6915E+01  2.5147E+03

           1    1.10039E+00     3.6205E-03 -3.5289E-03  2.7855E-01  2.7859E-01
ac ID =   33377                 3.6108E-01 -7.1358E-01 -4.8094E-02  8.0118E-01
                               -3.7408E-01  1.0607E+01 -4.6920E+01  2.5147E+03

           1    1.20038E+00    -3.0333E-02 -2.3309E-04  1.3382E-01  1.3722E-01
ac ID =   33377                -1.4580E-01 -1.0562E+00  1.0743E-02  1.0663E+00
                               -3.7413E-01  1.0609E+01 -4.6925E+01  2.5147E+03

           1    1.30037E+00    -2.9688E-03  4.2409E-03  8.5513E-02  8.5670E-02
ac ID =   33377                -2.9513E-01 -6.4400E-01  6.8910E-03  7.0844E-01
                               -3.7419E-01  1.0612E+01 -4.6931E+01  2.5147E+03

           1    1.40036E+00     1.1218E-02  2.9369E-03  1.9171E-01  1.9206E-01
ac ID =   33377                -2.7645E-01 -6.7025E-01  3.1045E-02  7.2569E-01
                               -3.7423E-01  1.0615E+01 -4.6938E+01  2.5147E+03

           1    1.50035E+00    -2.3233E-02  9.9397E-04  3.3833E-01  3.3913E-01
ac ID =   33377                -1.5834E-02 -1.3862E+00 -4.1388E-02  1.3869E+00
                               -3.7428E-01  1.0619E+01 -4.6946E+01  2.5147E+03

           1    1.60034E+00    -1.3981E-02 -1.5001E-03  2.2528E-01  2.2572E-01
ac ID =   33377                -1.6579E-02 -1.1005E+00 -2.8963E-02  1.1011E+00
                               -3.7437E-01  1.0623E+01 -4.6953E+01  2.5147E+03

           1    1.70033E+00     2.7524E-03 -8.9884E-04  7.1166E-02  7.1225E-02
ac ID =   33377                -4.1282E-02 -4.3130E-01  8.8593E-02  4.4224E-01
                               -3.7445E-01  1.0626E+01 -4.6960E+01  2.5147E+03

           1    1.80032E+00    -1.7413E-02  1.2653E-03  9.9023E-02  1.0055E-01
ac ID =   33377                 9.8910E-02 -9.2067E-01  1.2029E-01  9.3375E-01
                               -3.7452E-01  1.0630E+01 -4.6968E+01  2.5147E+03

           1    1.90031E+00    -2.8201E-03 -2.1409E-03  2.0736E-01  2.0739E-01
ac ID =   33377                 2.7157E-01 -5.4419E-01 -8.7803E-02  6.1449E-01
                               -3.7457E-01  1.0635E+01 -4.6977E+01  2.5147E+03

           1    2.00030E+00     1.6353E-03 -4.2036E-03  1.6020E-01  1.6026E-01
ac ID =   33377                 2.0488E-01 -1.6609E-01 -1.6162E-01  3.0933E-01
                               -3.7462E-01  1.0639E+01 -4.6986E+01  2.5147E+03

           1    2.10029E+00    -2.3749E-02  2.2246E-03  1.0447E-02  2.6041E-02
ac ID =   33377                -9.6763E-02 -4.8453E-01  5.3232E-02  4.9696E-01
                               -3.7467E-01  1.0643E+01 -4.6994E+01  2.5147E+03

           1    2.20028E+00    -1.0420E-02  5.3246E-03  2.0907E-02  2.3959E-02
ac ID =   33377                -2.1908E-01 -4.3097E-01  6.2504E-02  4.8748E-01
                               -3.7471E-01  1.0647E+01 -4.7004E+01  2.5147E+03

           1    2.30027E+00     5.2590E-03  4.1173E-03  1.6853E-01  1.6867E-01
ac ID =   33377                -1.3098E-01 -5.6341E-01 -1.0743E-01  5.8833E-01
                               -3.7475E-01  1.0652E+01 -4.7014E+01  2.5147E+03

           1    2.40026E+00    -1.7075E-02 -2.2578E-03  1.9310E-01  1.9387E-01
ac ID =   33377                -1.4592E-01 -9.9623E-01  8.1658E-02  1.0102E+00
                               -3.7481E-01  1.0657E+01 -4.7024E+01  2.5147E+03

           1    2.50025E+00    -1.7727E-02  1.2762E-03  1.7816E-03  1.7862E-02
ac ID =   33377                -1.9054E-01 -6.6708E-01  1.5728E-01  7.1137E-01
                               -3.7490E-01  1.0662E+01 -4.7033E+01  2.5147E+03

           1    2.60024E+00    -3.0178E-03  5.5985E-03 -5.6795E-02  5.7150E-02
ac ID =   33377                -2.1396E-01  3.8552E-02  2.2888E-02  2.1861E-01
                               -3.7499E-01  1.0667E+01 -4.7043E+01  2.5147E+03

           1    2.70023E+00    -1.1026E-02 -1.8837E-03  3.4844E-02  3.6596E-02
ac ID =   33377                 8.6749E-02 -2.0087E-02  4.2537E-02  9.8682E-02
                               -3.7507E-01  1.0672E+01 -4.7054E+01  2.5147E+03

           1    2.80022E+00    -6.9019E-03 -5.3991E-03  7.2616E-02  7.3142E-02
ac ID =   33377                 3.7342E-01  4.3173E-02 -1.7065E-02  3.7629E-01
                               -3.7516E-01  1.0677E+01 -4.7065E+01  2.5147E+03

           1    2.90021E+00     9.1366E-03 -1.7859E-03 -6.9181E-03  1.1599E-02
ac ID =   33377                 1.1110E-01  5.6649E-01 -1.0892E-01  5.8747E-01
                               -3.7525E-01  1.0682E+01 -4.7075E+01  2.5147E+03

           1    3.00020E+00    -6.4271E-03  1.2404E-03 -7.2126E-02  7.2423E-02
ac ID =   33377                -1.5421E-02  2.3107E-01 -4.6155E-02  2.3614E-01
                               -3.7533E-01  1.0687E+01 -4.7085E+01  2.5147E+03

           1    3.10019E+00     1.4433E-03 -2.0177E-04  8.0846E-03  8.2149E-03
ac ID =   33377                 6.9515E-02 -6.3556E-02 -2.4734E-04  9.4190E-02
                               -3.7540E-01  1.0692E+01 -4.7096E+01  2.5147E+03

           1    3.20018E+00     1.1020E-02  2.4041E-03  7.0030E-02  7.0932E-02
ac ID =   33377                -1.9063E-02 -3.1157E-03  1.8817E-03  1.9407E-02
                               -3.7548E-01  1.0698E+01 -4.7108E+01  2.5147E+03

           1    3.30017E+00     1.3029E-02  7.2132E-04  2.2489E-03  1.3241E-02
ac ID =   33377                -1.9231E-01  3.2924E-03  1.0186E-01  2.1764E-01
                               -3.7556E-01  1.0703E+01 -4.7119E+01  2.5147E+03

           1    3.40016E+00     1.5189E-02  4.3346E-03 -1.2280E-01  1.2382E-01
ac ID =   33377                -3.5080E-01  4.1552E-01  1.1333E-01  5.5548E-01
                               -3.7566E-01  1.0709E+01 -4.7130E+01  2.5147E+03

           1    3.50015E+00     2.0166E-02  2.5853E-03 -1.5385E-01  1.5519E-01
ac ID =   33377                -1.5472E-01  9.4341E-01 -2.8182E-02  9.5643E-01
                               -3.7577E-01  1.0715E+01 -4.7142E+01  2.5147E+03

           1    3.60014E+00     3.0862E-02 -1.4690E-03 -8.0329E-02  8.6066E-02
ac ID =   33377                 6.8205E-02  1.3019E+00 -1.5709E-01  1.3132E+00
                               -3.7588E-01  1.0722E+01 -4.7154E+01  2.5147E+03

           1    3.70013E+00     2.0235E-02 -2.8931E-03 -7.4184E-02  7.6948E-02
ac ID =   33377                 2.4539E-01  1.4827E+00 -1.7505E-01  1.5131E+00
                               -3.7597E-01  1.0729E+01 -4.7166E+01  2.5147E+03

           1    3.80012E+00     5.9506E-02 -1.7784E-03 -1.8814E-01  1.9733E-01
ac ID =   33377                 1.7690E-01  2.4722E+00 -1.3370E-01  2.4821E+00
                               -3.7607E-01  1.0737E+01 -4.7178E+01  2.5147E+03

           1    3.90011E+00     4.1261E-02  1.0547E-03 -2.3802E-01  2.4157E-01
ac ID =   33377                 6.7326E-02  2.1520E+00 -1.4378E-01  2.1578E+00
                               -3.7616E-01  1.0745E+01 -4.7190E+01  2.5147E+03

           1    4.00010E+00     3.5697E-02  1.8887E-03 -2.0131E-01  2.0446E-01
ac ID =   33377                -1.9943E-01  1.7561E+00 -1.1073E-01  1.7708E+00
                               -3.7621E-01  1.0755E+01 -4.7202E+01  2.5147E+03

           1    4.10009E+00     4.6062E-02  1.4489E-03 -1.6978E-01  1.7593E-01
ac ID =   33377                -8.3435E-02  2.0251E+00 -1.6746E-01  2.0337E+00
                               -3.7626E-01  1.0765E+01 -4.7215E+01  2.5147E+03

           1    4.20008E+00     4.1266E-02  7.3342E-03 -2.2922E-01  2.3302E-01
ac ID =   33377                -2.8304E-01  1.4884E+00  1.7840E-01  1.5255E+00
                               -3.7636E-01  1.0775E+01 -4.7227E+01  2.5147E+03

           1    4.30007E+00     5.4940E-02  8.7992E-03 -3.3882E-01  3.4335E-01
ac ID =   33377                -4.8827E-01  2.3361E+00  9.9172E-02  2.3887E+00
                               -3.7647E-01  1.0786E+01 -4.7240E+01  2.5147E+03

           1    4.40006E+00     5.5100E-02  4.2044E-03 -2.9704E-01  3.0214E-01
ac ID =   33377                -2.7760E-01  2.3213E+00 -2.4599E-01  2.3508E+00
                               -3.7654E-01  1.0799E+01 -4.7252E+01  2.5147E+03

           1    4.50005E+00     9.2391E-02  2.0894E-03 -2.2339E-01  2.4175E-01
ac ID =   33377                 1.7218E-01  2.5444E+00 -3.6013E-01  2.5755E+00
                               -3.7663E-01  1.0813E+01 -4.7265E+01  2.5147E+03

           1    4.60004E+00     6.3974E-02  3.1889E-03 -2.8178E-01  2.8897E-01
ac ID =   33377                 1.5615E-01  2.4861E+00 -1.7851E-01  2.4974E+00
                               -3.7673E-01  1.0827E+01 -4.7277E+01  2.5147E+03

           1    4.70003E+00     7.2573E-02  6.3589E-03 -3.8487E-01  3.9171E-01
ac ID =   33377                -1.0504E-01  2.5935E+00 -2.4050E-02  2.5957E+00
                               -3.7677E-01  1.0842E+01 -4.7289E+01  2.5147E+03

           1    4.80002E+00     6.5341E-02 -7.9429E-03 -4.0431E-01  4.0963E-01
ac ID =   33377                 8.0324E-02  2.5205E+00 -1.3917E-01  2.5256E+00
                               -3.7679E-01  1.0859E+01 -4.7301E+01  2.5147E+03

           1    4.90001E+00     7.9516E-02  2.5684E-03 -3.4871E-01  3.5767E-01
ac ID =   33377                 1.1419E-03  2.2424E+00 -1.6593E-01  2.2486E+00
                               -3.7683E-01  1.0877E+01 -4.7314E+01  2.5147E+03

           1    5.00000E+00     7.1869E-02  1.0751E-03 -3.5430E-01  3.6152E-01
ac ID =   33377                -4.2159E-01  2.5618E+00  2.7215E-01  2.6105E+00
                               -3.7685E-01  1.0897E+01 -4.7326E+01  2.5147E+03

           1    5.10049E+00     7.3502E-02 -3.2917E-03 -4.3490E-01  4.4108E-01
ac ID =   33377                -3.4823E-01  2.3759E+00  2.3664E-01  2.4129E+00
                               -3.7687E-01  1.0917E+01 -4.7337E+01  2.5147E+03

           1    5.20048E+00     7.8581E-02 -2.6482E-03 -4.6851E-01  4.7506E-01
ac ID =   33377                -2.0009E-01  2.9595E+00 -2.2658E-01  2.9749E+00
                               -3.7695E-01  1.0939E+01 -4.7349E+01  2.5147E+03

           1    5.30047E+00     8.8689E-02  1.7973E-02 -4.6285E-01  4.7162E-01
ac ID =   33377                -3.0864E-01  3.0800E+00  1.0974E-01  3.0974E+00
                               -3.7703E-01  1.0963E+01 -4.7361E+01  2.5147E+03

           1    5.40046E+00     9.1507E-02 -1.5240E-02 -4.3681E-01  4.4655E-01
ac ID =   33377                 2.1299E-01  2.8525E+00  1.9936E-01  2.8674E+00
                               -3.7708E-01  1.0988E+01 -4.7372E+01  2.5147E+03

           1    5.50045E+00     9.7058E-02 -5.1259E-03 -5.5076E-01  5.5927E-01
ac ID =   33377                 8.6658E-02  2.6975E+00 -1.9888E-01  2.7062E+00
                               -3.7719E-01  1.1013E+01 -4.7383E+01  2.5147E+03

           1    5.60044E+00     5.7144E-02  4.1067E-03 -6.3230E-01  6.3489E-01
ac ID =   33377                 5.5145E-02  2.4632E+00 -4.4504E-01  2.5037E+00
                               -3.7729E-01  1.1041E+01 -4.7394E+01  2.5147E+03

           1    5.70043E+00     8.0780E-02  3.0258E-03 -6.3032E-01  6.3548E-01
ac ID =   33377                 3.3749E-02  2.4409E+00 -2.6911E-01  2.4559E+00
                               -3.7740E-01  1.1069E+01 -4.7404E+01  2.5147E+03

           1    5.80042E+00     9.1385E-02 -2.6343E-03 -5.9208E-01  5.9910E-01
ac ID =   33377                 6.6464E-02  2.4608E+00 -2.4074E-03  2.4617E+00
                               -3.7751E-01  1.1100E+01 -4.7414E+01  2.5147E+03

           1    5.90041E+00     9.3188E-02 -3.3695E-03 -6.3282E-01  6.3966E-01
ac ID =   33377                -1.5342E-01  2.0086E+00 -3.8176E-01  2.0503E+00
                               -3.7755E-01  1.1131E+01 -4.7424E+01  2.5147E+03

           1    6.00040E+00     9.6822E-02  2.5899E-02 -7.0661E-01  7.1368E-01
ac ID =   33377                -2.9376E-01  1.9958E+00 -9.8535E-01  2.2451E+00
                               -3.7766E-01  1.1164E+01 -4.7433E+01  2.5147E+03

           1    6.10039E+00     5.3185E-02 -2.3250E-02 -6.9450E-01  6.9693E-01
ac ID =   33377                 4.5764E-01  1.1018E+00 -2.2340E-01  1.2138E+00
                               -3.7768E-01  1.1198E+01 -4.7442E+01  2.5147E+03

           1    6.20038E+00     9.5645E-02 -8.1113E-03 -6.6478E-01  6.7168E-01
ac ID =   33377                 4.7247E-02  1.8691E+00  6.4626E-01  1.9782E+00
                               -3.7782E-01  1.1234E+01 -4.7451E+01  2.5147E+03

           1    6.30037E+00     7.2580E-02 -5.8756E-03 -6.9742E-01  7.0121E-01
ac ID =   33377                 1.7554E-01  1.5476E+00  2.6120E-01  1.5792E+00
                               -3.7788E-01  1.1272E+01 -4.7459E+01  2.5147E+03

           1    6.40036E+00     8.1761E-02 -3.1870E-02 -8.1555E-01  8.2026E-01
ac ID =   33377                 1.0111E+00  1.1024E+00  7.1550E-01  1.6582E+00
                               -3.7785E-01  1.1310E+01 -4.7467E+01  2.5147E+03

           1    6.50035E+00     8.3540E-02  7.3560E-03 -8.5016E-01  8.5429E-01
ac ID =   33377                 2.1474E-01  1.6512E+00  6.3464E-01  1.7820E+00
                               -3.7792E-01  1.1351E+01 -4.7474E+01  2.5147E+03

           1    6.60034E+00     1.0168E-01  1.9375E-03 -8.4842E-01  8.5449E-01
ac ID =   33377                -1.1256E-01  1.5542E+00 -3.8257E-02  1.5587E+00
                               -3.7790E-01  1.1393E+01 -4.7481E+01  2.5147E+03

           1    6.70033E+00     7.4613E-02  2.1301E-03 -8.5506E-01  8.5831E-01
ac ID =   33377                 6.3591E-01  1.3838E+00  4.6501E-01  1.5923E+00
                               -3.7780E-01  1.1437E+01 -4.7488E+01  2.5147E+03

           1    6.80032E+00     7.4818E-02 -1.9812E-02 -8.8668E-01  8.9005E-01
ac ID =   33377                 3.1371E-01  7.7687E-01  3.2818E-01  8.9980E-01
                               -3.7756E-01  1.1482E+01 -4.7494E+01  2.5147E+03

           1    6.90031E+00     1.2039E-01  2.9277E-02 -9.5293E-01  9.6096E-01
ac ID =   33377                 3.5457E-01  1.9576E+00 -7.8962E-01  2.1404E+00
                               -3.7761E-01  1.1529E+01 -4.7500E+01  2.5147E+03

           1    7.00030E+00     1.0339E-01 -1.8321E-04 -9.3130E-01  9.3702E-01
ac ID =   33377                -1.2764E-01  9.8685E-01  6.0700E-01  1.1656E+00
                               -3.7742E-01  1.1577E+01 -4.7505E+01  2.5147E+03

           1    7.10029E+00     6.4721E-02 -1.8219E-02 -1.0108E+00  1.0130E+00
ac ID =   33377                 8.2476E-01 -8.6895E-02  7.2598E-01  1.1022E+00
                               -3.7726E-01  1.1628E+01 -4.7511E+01  2.5147E+03

           1    7.20028E+00     8.7555E-02 -1.6740E-02 -1.1010E+00  1.1047E+00
ac ID =   33377                 3.8270E-01  8.3853E-01 -3.6413E-01  9.9105E-01
                               -3.7715E-01  1.1680E+01 -4.7515E+01  2.5147E+03

           1    7.30027E+00     1.1393E-01 -6.2108E-03 -1.1062E+00  1.1120E+00
ac ID =   33377                 7.8012E-01  6.2059E-01  2.1301E-01  1.0194E+00
                               -3.7701E-01  1.1733E+01 -4.7519E+01  2.5147E+03

           1    7.40026E+00     9.1769E-02  1.0237E-02 -1.1374E+00  1.1411E+00
ac ID =   33377                 6.6819E-01  4.6702E-01  4.1442E-01  9.1451E-01
                               -3.7685E-01  1.1789E+01 -4.7523E+01  2.5147E+03

           1    7.50025E+00     1.1613E-01 -6.6266E-04 -1.1009E+00  1.1071E+00
ac ID =   33377                 7.5459E-01  1.0369E+00 -4.7452E-01  1.3674E+00
                               -3.7656E-01  1.1846E+01 -4.7525E+01  2.5147E+03

           1    7.60024E+00     1.5237E-01  2.1697E-02 -1.2060E+00  1.2158E+00
ac ID =   33377                 1.9795E-01  1.5768E+00 -1.0300E+00  1.8938E+00
                               -3.7633E-01  1.1904E+01 -4.7528E+01  2.5147E+03

           1    7.70023E+00     1.3542E-01 -4.6269E-02 -1.1861E+00  1.1947E+00
ac ID =   33377                 7.8241E-01  2.2511E-01 -8.9734E-01  1.2116E+00
                               -3.7595E-01  1.1964E+01 -4.7529E+01  2.5147E+03

           1    7.80022E+00     1.2013E-01  2.4277E-02 -1.2126E+00  1.2187E+00
ac ID =   33377                 3.8730E-02  4.3806E-01 -3.4313E-01  5.5779E-01
                               -3.7573E-01  1.2026E+01 -4.7530E+01  2.5147E+03

           1    7.90021E+00     1.7211E-01  8.0607E-03 -1.1886E+00  1.2010E+00
ac ID =   33377                 1.1715E-01  1.1721E+00  6.8567E-01  1.3630E+00
                               -3.7536E-01  1.2089E+01 -4.7530E+01  2.5147E+03

           1    8.00020E+00     1.3336E-01 -3.7374E-03 -1.2412E+00  1.2484E+00
ac ID =   33377                 6.4396E-01  2.2734E-01  3.9626E-01  7.8955E-01
                               -3.7501E-01  1.2154E+01 -4.7529E+01  2.5147E+03

           1    8.10019E+00     1.6748E-01 -5.2361E-02 -1.3630E+00  1.3742E+00
ac ID =   33377                 8.4334E-01  1.5185E+00 -1.2304E-01  1.7413E+00
                               -3.7454E-01  1.2221E+01 -4.7527E+01  2.5147E+03

           1    8.20018E+00     2.0395E-01  2.6011E-02 -1.3601E+00  1.3755E+00
ac ID =   33377                 8.1018E-02  1.4348E+00  1.0588E-01  1.4409E+00
                               -3.7431E-01  1.2289E+01 -4.7525E+01  2.5147E+03

           1    8.30017E+00     1.8139E-01  1.8239E-03 -1.3361E+00  1.3484E+00
ac ID =   33377                 1.0123E+00  1.6144E+00  5.4842E-01  1.9829E+00
                               -3.7394E-01  1.2360E+01 -4.7521E+01  2.5147E+03

           1    8.40016E+00     1.5625E-01 -1.2828E-02 -1.4019E+00  1.4106E+00
ac ID =   33377                 2.5787E-01  1.4939E+00  1.8477E+00  2.3900E+00
                               -3.7333E-01  1.2432E+01 -4.7517E+01  2.5147E+03

           1    8.50015E+00     1.8825E-01 -9.0356E-03 -1.4625E+00  1.4746E+00
ac ID =   33377                 1.2727E+00  3.5222E+00  1.4909E-01  3.7480E+00
                               -3.7290E-01  1.2506E+01 -4.7511E+01  2.5147E+03

           1    8.60014E+00     2.0602E-01 -1.4803E-02 -1.4743E+00  1.4887E+00
ac ID =   33377                 8.3518E-01  2.3623E+00 -1.4637E+00  2.9018E+00
                               -3.7264E-01  1.2581E+01 -4.7505E+01  2.5147E+03

           1    8.70013E+00     2.0929E-01  3.7284E-02 -1.4880E+00  1.5032E+00
ac ID =   33377                -3.0268E-01  2.5438E+00  1.1990E-01  2.5645E+00
                               -3.7228E-01  1.2659E+01 -4.7498E+01  2.5147E+03

           1    8.80012E+00     2.2119E-01 -3.4978E-02 -1.4968E+00  1.5135E+00
ac ID =   33377                 7.8418E-01  2.7057E+00  4.4150E-01  2.8514E+00
                               -3.7183E-01  1.2738E+01 -4.7490E+01  2.5147E+03

           1    8.90011E+00     2.0258E-01  8.7296E-03 -1.6184E+00  1.6310E+00
ac ID =   33377                 6.6983E-01  3.6702E+00 -8.6294E-01  3.8294E+00
                               -3.7159E-01  1.2820E+01 -4.7480E+01  2.5147E+03

           1    9.00010E+00     2.5039E-01  1.4876E-02 -1.6718E+00  1.6905E+00
ac ID =   33377                 8.3100E-02  3.9188E+00  1.7346E-01  3.9235E+00
                               -3.7118E-01  1.2903E+01 -4.7469E+01  2.5147E+03

           1    9.10009E+00     2.5732E-01  5.2568E-03 -1.5846E+00  1.6054E+00
ac ID =   33377                 8.5367E-01  3.8193E+00 -2.2515E-02  3.9136E+00
                               -3.7094E-01  1.2988E+01 -4.7458E+01  2.5147E+03

           1    9.20008E+00     2.2812E-01 -2.1543E-02 -1.6234E+00  1.6395E+00
ac ID =   33377                 9.9908E-01  3.6124E+00 -1.3297E-01  3.7503E+00
                               -3.7067E-01  1.3074E+01 -4.7445E+01  2.5147E+03

           1    9.30007E+00     2.1622E-01 -2.9632E-03 -1.6955E+00  1.7092E+00
ac ID =   33377                -1.3893E-01  3.6615E+00  9.0258E-01  3.7737E+00
                               -3.7018E-01  1.3163E+01 -4.7431E+01  2.5147E+03

           1    9.40006E+00     2.8060E-01  2.8502E-02 -1.7497E+00  1.7723E+00
ac ID =   33377                 8.0500E-01  4.1566E+00 -3.0706E-01  4.2449E+00
                               -3.6984E-01  1.3253E+01 -4.7415E+01  2.5147E+03

           1    9.50005E+00     2.3744E-01 -3.9595E-02 -1.7501E+00  1.7666E+00
ac ID =   33377                 6.8445E-01  3.7331E+00 -1.2161E+00  3.9854E+00
                               -3.6936E-01  1.3345E+01 -4.7398E+01  2.5147E+03

           1    9.60004E+00     2.3835E-01  2.5594E-03 -1.7126E+00  1.7291E+00
ac ID =   33377                 6.5371E-02  4.5022E+00 -3.3564E-01  4.5152E+00
                               -3.6894E-01  1.3438E+01 -4.7380E+01  2.5147E+03

           1    9.70003E+00     2.8296E-01  2.9259E-02 -1.7669E+00  1.7897E+00
ac ID =   33377                -4.4292E-01  5.1197E+00  7.7575E-01  5.1970E+00
                               -3.6853E-01  1.3534E+01 -4.7361E+01  2.5147E+03

           1    9.80002E+00     2.6843E-01  1.7809E-03 -1.7970E+00  1.8169E+00
ac ID =   33377                 1.0058E+00  4.9798E+00  7.3492E-01  5.1332E+00
                               -3.6801E-01  1.3631E+01 -4.7340E+01  2.5147E+03

           1    9.90001E+00     2.5000E-01 -1.3827E-02 -1.8499E+00  1.8667E+00
ac ID =   33377                 5.8938E-02  4.4062E+00  2.9860E-01  4.4167E+00
                               -3.6735E-01  1.3729E+01 -4.7318E+01  2.5147E+03

           1    1.00005E+01     2.7075E-01 -6.0769E-03 -1.8437E+00  1.8635E+00
ac ID =   33377                 8.8901E-01  5.0194E+00 -7.1649E-01  5.1477E+00
                               -3.6687E-01  1.3830E+01 -4.7294E+01  2.5147E+03

           1    1.01005E+01     2.8426E-01  1.7677E-03 -1.8419E+00  1.8637E+00
ac ID =   33377                 1.7408E-01  5.2724E+00  2.2571E-01  5.2801E+00
                               -3.6630E-01  1.3933E+01 -4.7269E+01  2.5147E+03

           1    1.02005E+01     2.0935E-01 -2.3560E-02 -1.9478E+00  1.9592E+00
ac ID =   33377                 1.3596E+00  4.2233E+00  1.2680E+00  4.6144E+00
                               -3.6560E-01  1.4036E+01 -4.7243E+01  2.5147E+03

           1    1.03005E+01     3.1123E-01  4.1017E-02 -2.0182E+00  2.0425E+00
ac ID =   33377                -1.8078E-01  5.1906E+00 -2.6186E-01  5.2003E+00
                               -3.6480E-01  1.4142E+01 -4.7215E+01  2.5147E+03

           1    1.04005E+01     2.8786E-01 -4.9001E-02 -1.9898E+00  2.0111E+00
ac ID =   33377                 8.6918E-01  5.0609E+00 -1.7613E+00  5.4287E+00
                               -3.6394E-01  1.4249E+01 -4.7186E+01  2.5147E+03

           1    1.05004E+01     2.3890E-01 -1.0202E-02 -1.9770E+00  1.9915E+00
ac ID =   33377                 8.9038E-01  4.6503E+00 -4.9252E-01  4.7603E+00
                               -3.6313E-01  1.4358E+01 -4.7155E+01  2.5147E+03

           1    1.06004E+01     2.5471E-01 -1.2641E-02 -2.0297E+00  2.0456E+00
ac ID =   33377                 2.9754E-01  4.2699E+00  5.2477E-01  4.3123E+00
                               -3.6225E-01  1.4468E+01 -4.7122E+01  2.5147E+03

           1    1.07004E+01     3.2798E-01  4.3300E-02 -2.0671E+00  2.0934E+00
ac ID =   33377                 9.2854E-01  5.4143E+00  5.7194E-01  5.5230E+00
                               -3.6146E-01  1.4580E+01 -4.7088E+01  2.5147E+03

           1    1.08004E+01     2.6539E-01 -3.3840E-02 -2.0149E+00  2.0325E+00
ac ID =   33377                 1.5568E+00  3.4526E+00  9.2510E-01  3.8987E+00
                               -3.6024E-01  1.4694E+01 -4.7052E+01  2.5147E+03

           1    1.09004E+01     2.2226E-01 -1.6815E-02 -2.0342E+00  2.0464E+00
ac ID =   33377                 1.3445E+00  3.3970E+00 -4.5958E-01  3.6822E+00
                               -3.5938E-01  1.4809E+01 -4.7015E+01  2.5147E+03

           1    1.10004E+01     3.2098E-01  3.1554E-02 -2.1250E+00  2.1494E+00
ac ID =   33377                 8.3006E-01  5.2681E+00 -9.6030E-02  5.3340E+00
                               -3.5844E-01  1.4925E+01 -4.6976E+01  2.5147E+03

           1    1.11004E+01     2.5376E-01 -4.8974E-02 -2.1296E+00  2.1453E+00
ac ID =   33377                 1.6521E+00  3.5681E+00  1.4832E+00  4.2025E+00
                               -3.5718E-01  1.5042E+01 -4.6935E+01  2.5147E+03

           1    1.12004E+01     2.3757E-01 -2.3845E-02 -2.1501E+00  2.1633E+00
ac ID =   33377                 2.0743E+00  3.9031E+00  1.4150E-02  4.4200E+00
                               -3.5625E-01  1.5162E+01 -4.6893E+01  2.5147E+03

           1    1.13004E+01     3.1992E-01 -9.7284E-03 -2.0263E+00  2.0515E+00
ac ID =   33377                 6.4395E-01  4.7302E+00 -7.3627E-01  4.8302E+00
                               -3.5516E-01  1.5282E+01 -4.6848E+01  2.5147E+03

           1    1.14004E+01     2.8109E-01  2.8242E-02 -2.0547E+00  2.0740E+00
ac ID =   33377                 1.1013E+00  3.2865E+00 -3.7108E-02  3.4663E+00
                               -3.5392E-01  1.5404E+01 -4.6802E+01  2.5147E+03

           1    1.15003E+01     2.6156E-01 -5.2236E-02 -2.1574E+00  2.1739E+00
ac ID =   33377                 1.4457E+00  3.4465E+00  8.0149E-01  3.8224E+00
                               -3.5249E-01  1.5527E+01 -4.6753E+01  2.5147E+03

           1    1.16003E+01     2.9900E-01  2.1302E-02 -2.1214E+00  2.1424E+00
ac ID =   33377                 1.8046E+00  4.1918E+00 -1.2106E+00  4.7216E+00
                               -3.5145E-01  1.5651E+01 -4.6703E+01  2.5147E+03

           1    1.17003E+01     2.9803E-01  1.7477E-02 -2.0854E+00  2.1067E+00
ac ID =   33377                 1.2554E-01  2.7912E+00 -5.3117E-01  2.8441E+00
                               -3.4990E-01  1.5777E+01 -4.6651E+01  2.5147E+03

           1    1.18003E+01     2.7983E-01 -9.2949E-03 -2.1292E+00  2.1475E+00
ac ID =   33377                 1.9218E+00  2.7619E+00  7.4315E-01  3.4459E+00
                               -3.4829E-01  1.5905E+01 -4.6597E+01  2.5147E+03

           1    1.19003E+01     3.2044E-01 -3.7738E-02 -2.2183E+00  2.2417E+00
ac ID =   33377                 2.5761E+00  4.8382E+00  1.3856E+00  5.6537E+00
                               -3.4677E-01  1.6033E+01 -4.6541E+01  2.5147E+03

           1    1.20003E+01     2.9052E-01  3.1665E-02 -2.1842E+00  2.2036E+00
ac ID =   33377                 1.6976E-01  3.2712E+00  6.5135E-01  3.3397E+00
                               -3.4514E-01  1.6163E+01 -4.6482E+01  2.5147E+03

           1    1.21003E+01     2.9923E-01  2.1573E-03 -2.1896E+00  2.2099E+00
ac ID =   33377                 1.5930E+00  4.0625E+00 -1.1108E+00  4.5029E+00
                               -3.4337E-01  1.6295E+01 -4.6422E+01  2.5147E+03

           1    1.22003E+01     3.2367E-01 -1.0985E-01 -2.1201E+00  2.1475E+00
ac ID =   33377                 2.8087E+00  4.8361E+00 -5.1981E-01  5.6167E+00
                               -3.4126E-01  1.6428E+01 -4.6360E+01  2.5147E+03

           1    1.23003E+01     2.8640E-01  3.7237E-02 -2.1090E+00  2.1287E+00
ac ID =   33377                 1.8846E+00  3.0310E+00  4.2777E-01  3.5946E+00
                               -3.3958E-01  1.6562E+01 -4.6296E+01  2.5147E+03

           1    1.24003E+01     3.0945E-01  4.6875E-02 -2.2046E+00  2.2267E+00
ac ID =   33377                -7.4883E-01  3.4269E+00  1.3511E+00  3.7590E+00
                               -3.3727E-01  1.6697E+01 -4.6229E+01  2.5147E+03

           1    1.25002E+01     3.1418E-01 -6.7794E-02 -2.0769E+00  2.1016E+00
ac ID =   33377                 3.3304E+00  4.3807E+00 -1.8716E-01  5.5061E+00
                               -3.3511E-01  1.6833E+01 -4.6161E+01  2.5147E+03

           1    1.26002E+01     2.9604E-01 -5.1874E-02 -2.0779E+00  2.0995E+00
ac ID =   33377                 2.0272E+00  4.0842E+00 -6.9143E-01  4.6118E+00
                               -3.3293E-01  1.6970E+01 -4.6090E+01  2.5147E+03

           1    1.27002E+01     2.9321E-01  8.5449E-02 -2.0992E+00  2.1213E+00
ac ID =   33377                -5.1346E-02  4.3992E+00 -7.3579E-01  4.4606E+00
                               -3.3079E-01  1.7108E+01 -4.6017E+01  2.5147E+03

           1    1.28002E+01     3.2185E-01 -5.6471E-02 -2.0455E+00  2.0714E+00
ac ID =   33377                 2.2416E+00  4.8634E+00  9.5386E-01  5.4394E+00
                               -3.2821E-01  1.7247E+01 -4.5942E+01  2.5147E+03

           1    1.29002E+01     3.2326E-01 -4.1001E-02 -2.0246E+00  2.0507E+00
ac ID =   33377                 2.5626E+00  5.4431E+00  7.0386E-01  6.0572E+00
                               -3.2574E-01  1.7386E+01 -4.5864E+01  2.5147E+03

           1    1.30002E+01     3.0072E-01  2.9113E-02 -1.9841E+00  2.0070E+00
ac ID =   33377                -1.2998E-01  4.7872E+00 -5.5636E-01  4.8212E+00
                               -3.2320E-01  1.7527E+01 -4.5785E+01  2.5147E+03

           1    1.31002E+01     2.9564E-01 -1.5172E-02 -1.9332E+00  1.9558E+00
ac ID =   33377                 1.4015E+00  4.6875E+00 -1.3697E-01  4.8944E+00
                               -3.2070E-01  1.7667E+01 -4.5703E+01  2.5147E+03

           1    1.32002E+01     3.1656E-01 -5.6819E-02 -1.9394E+00  1.9658E+00
ac ID =   33377                 2.3442E+00  5.0714E+00  1.2277E+00  5.7203E+00
                               -3.1803E-01  1.7809E+01 -4.5618E+01  2.5147E+03

           1    1.33002E+01     2.9442E-01  2.5493E-02 -1.9278E+00  1.9504E+00
ac ID =   33377                 9.7587E-01  4.7289E+00  2.9510E-01  4.8375E+00
                               -3.1572E-01  1.7950E+01 -4.5532E+01  2.5147E+03

           1    1.34002E+01     3.2855E-01  4.4945E-02 -1.8629E+00  1.8922E+00
ac ID =   33377                -5.6726E-01  5.1679E+00  1.4348E-01  5.2009E+00
                               -3.1316E-01  1.8092E+01 -4.5444E+01  2.5147E+03

           1    1.35001E+01     2.7450E-01 -6.5529E-02 -1.9201E+00  1.9408E+00
ac ID =   33377                 3.1041E+00  5.3897E+00 -3.2584E-01  6.2282E+00
                               -3.1053E-01  1.8235E+01 -4.5353E+01  2.5147E+03

           1    1.36001E+01     2.9852E-01 -1.9566E-02 -1.8321E+00  1.8563E+00
ac ID =   33377                 1.2585E+00  5.8583E+00 -3.1715E-01  6.0004E+00
                               -3.0798E-01  1.8378E+01 -4.5261E+01  2.5147E+03

           1    1.37001E+01     3.2580E-01  9.2733E-02 -1.8146E+00  1.8459E+00
ac ID =   33377                -8.5464E-01  5.9398E+00  7.0131E-01  6.0418E+00
                               -3.0556E-01  1.8521E+01 -4.5166E+01  2.5147E+03

           1    1.38001E+01     2.9803E-01 -1.6353E-02 -1.8306E+00  1.8548E+00
ac ID =   33377                 1.7760E+00  5.4850E+00 -8.2782E-02  5.7659E+00
                               -3.0259E-01  1.8664E+01 -4.5070E+01  2.5147E+03

           1    1.39001E+01     2.9613E-01 -4.6046E-02 -1.7618E+00  1.7871E+00
ac ID =   33377                 1.5911E+00  5.1240E+00 -1.9173E-01  5.3688E+00
                               -2.9949E-01  1.8807E+01 -4.4972E+01  2.5147E+03

           1    1.40001E+01     3.0361E-01  3.7141E-02 -1.6742E+00  1.7019E+00
ac ID =   33377                 1.2367E-01  5.1594E+00 -7.1012E-01  5.2095E+00
                               -2.9678E-01  1.8951E+01 -4.4872E+01  2.5147E+03

           1    1.41001E+01     2.5834E-01  8.5253E-02 -1.6801E+00  1.7020E+00
ac ID =   33377                -1.2406E+00  4.4376E+00  7.5012E-01  4.6684E+00
                               -2.9360E-01  1.9095E+01 -4.4769E+01  2.5147E+03

           1    1.42001E+01     2.3943E-01 -5.8646E-02 -1.6425E+00  1.6609E+00
ac ID =   33377                 2.5472E+00  3.7582E+00 -1.1936E-02  4.5401E+00
                               -2.9011E-01  1.9238E+01 -4.4665E+01  2.5147E+03

           1    1.43001E+01     3.4818E-01  8.5797E-03 -1.6129E+00  1.6501E+00
ac ID =   33377                 2.9546E-01  4.8461E+00 -9.1169E-01  4.9400E+00
                               -2.8682E-01  1.9382E+01 -4.4559E+01  2.5147E+03

           1    1.44001E+01     2.5426E-01  8.8471E-02 -1.4756E+00  1.4999E+00
ac ID =   33377                -9.7599E-01  3.6067E+00  1.8330E-01  3.7409E+00
                               -2.8342E-01  1.9526E+01 -4.4451E+01  2.5147E+03

           1    1.45000E+01     2.8089E-01 -8.2288E-02 -1.4861E+00  1.5146E+00
ac ID =   33377                 2.1757E+00  3.5662E+00  4.3363E-02  4.1777E+00
                               -2.7991E-01  1.9670E+01 -4.4341E+01  2.5147E+03

           1    1.46000E+01     2.7335E-01 -2.5600E-02 -1.4414E+00  1.4673E+00
ac ID =   33377                 9.3212E-01  4.7519E+00  1.2883E+00  5.0109E+00
                               -2.7642E-01  1.9814E+01 -4.4229E+01  2.5147E+03

           1    1.47000E+01     2.6806E-01  6.2568E-02 -1.3656E+00  1.3931E+00
ac ID =   33377                -5.2654E-01  2.8193E+00 -1.1278E+00  3.0818E+00
                               -2.7330E-01  1.9958E+01 -4.4115E+01  2.5147E+03

           1    1.48005E+01     2.1461E-01  2.2394E-03 -1.3614E+00  1.3782E+00
ac ID =   33377                -6.3140E-02  2.6933E+00 -5.0155E-01  2.7403E+00
                               -2.6964E-01  2.0102E+01 -4.4000E+01  2.5147E+03

           1    1.49005E+01     2.6922E-01 -8.2240E-02 -1.2950E+00  1.3252E+00
ac ID =   33377                 2.8453E+00  2.3970E+00 -2.5307E-01  3.7290E+00
                               -2.6617E-01  2.0246E+01 -4.3883E+01  2.5147E+03

           1    1.50005E+01     2.3575E-01  9.4304E-02 -1.2643E+00  1.2895E+00
ac ID =   33377                -1.2536E+00  2.2761E+00 -3.8863E-02  2.5988E+00
                               -2.6280E-01  2.0390E+01 -4.3764E+01  2.5147E+03

           1    1.51005E+01     2.0510E-01 -2.6859E-02 -1.2652E+00  1.2820E+00
ac ID =   33377                -6.4135E-01  9.9078E-01  1.2587E+00  1.7255E+00
                               -2.5922E-01  2.0534E+01 -4.3644E+01  2.5147E+03

           1    1.52005E+01     2.5293E-01  1.6722E-02 -1.1479E+00  1.1756E+00
ac ID =   33377                 1.9101E+00  1.7148E+00 -4.9872E-01  2.6149E+00
                               -2.5608E-01  2.0678E+01 -4.3523E+01  2.5147E+03

           1    1.53005E+01     2.5643E-01 -1.1470E-02 -1.1143E+00  1.1435E+00
ac ID =   33377                -4.1979E-01  1.4205E+00 -8.3567E-01  1.7007E+00
                               -2.5220E-01  2.0822E+01 -4.3400E+01  2.5147E+03

           1    1.54005E+01     2.1071E-01  4.0262E-02 -1.0407E+00  1.0626E+00
ac ID =   33377                 5.7371E-03  6.0683E-01 -7.8364E-01  9.9114E-01
                               -2.4890E-01  2.0966E+01 -4.3276E+01  2.5147E+03

           1    1.55004E+01     1.9831E-01 -3.3063E-02 -1.0515E+00  1.0705E+00
ac ID =   33377                 1.4250E+00  1.1259E+00  2.0343E+00  2.7270E+00
                               -2.4531E-01  2.1111E+01 -4.3150E+01  2.5147E+03

           1    1.56004E+01     2.1343E-01  9.4103E-04 -1.0069E+00  1.0293E+00
ac ID =   33377                 3.7259E-01  1.0497E+00  4.0615E-01  1.1856E+00
                               -2.4173E-01  2.1255E+01 -4.3024E+01  2.5147E+03

           1    1.57004E+01     1.8316E-01  2.5887E-02 -8.9370E-01  9.1265E-01
ac ID =   33377                -6.3980E-01  1.8407E-02 -5.1708E-01  8.2284E-01
                               -2.3798E-01  2.1400E+01 -4.2897E+01  2.5147E+03

           1    1.58004E+01     1.8882E-01  4.9562E-03 -9.1366E-01  9.3298E-01
ac ID =   33377                 7.8315E-01  5.9590E-01 -9.6308E-01  1.3769E+00
                               -2.3435E-01  2.1545E+01 -4.2769E+01  2.5147E+03

           1    1.59004E+01     2.1168E-01 -1.5326E-02 -8.3595E-01  8.6247E-01
ac ID =   33377                 1.4212E+00  1.1936E+00 -6.2078E-01  1.9570E+00
                               -2.3052E-01  2.1691E+01 -4.2640E+01  2.5147E+03

           1    1.60004E+01     1.8470E-01  4.7315E-02 -7.1408E-01  7.3910E-01
ac ID =   33377                -6.5832E-01  1.2763E+00  5.5777E-01  1.5406E+00
                               -2.2659E-01  2.1836E+01 -4.2510E+01  2.5147E+03

           1    1.61004E+01     2.1539E-01  1.8241E-02 -7.0812E-01  7.4038E-01
ac ID =   33377                 3.5314E-01  2.1572E+00  4.4861E-01  2.2315E+00
                               -2.2273E-01  2.1982E+01 -4.2380E+01  2.5147E+03

           1    1.62004E+01     1.8073E-01 -4.8870E-02 -5.9234E-01  6.2122E-01
ac ID =   33377                 1.4384E+00  2.1630E+00 -6.1361E-01  2.6691E+00
                               -2.1878E-01  2.2128E+01 -4.2250E+01  2.5147E+03

           1    1.63004E+01     2.1027E-01  9.3481E-03 -5.2930E-01  5.6961E-01
ac ID =   33377                 7.7408E-01  1.6961E+00 -1.5499E+00  2.4245E+00
                               -2.1468E-01  2.2274E+01 -4.2118E+01  2.5147E+03

           1    1.64004E+01     1.6710E-01  5.0551E-02 -5.1272E-01  5.4163E-01
ac ID =   33377                -7.3298E-01  1.2105E+00 -2.0220E-02  1.4153E+00
                               -2.1044E-01  2.2421E+01 -4.1987E+01  2.5147E+03

           1    1.65003E+01     2.2884E-01 -3.7269E-02 -4.6251E-01  5.1738E-01
ac ID =   33377                 2.2566E+00  2.4034E+00 -2.4990E-01  3.3062E+00
                               -2.0614E-01  2.2567E+01 -4.1854E+01  2.5147E+03

           1    1.66003E+01     1.3190E-01 -3.4059E-02 -3.9369E-01  4.1660E-01
ac ID =   33377                 1.2663E+00  6.9936E-01  7.1194E-01  1.6123E+00
                               -2.0169E-01  2.2714E+01 -4.1722E+01  2.5147E+03

           1    1.67003E+01     1.5129E-01  3.5689E-02 -3.3794E-01  3.7198E-01
ac ID =   33377                 1.0628E-02  1.3726E+00 -2.6477E-02  1.3729E+00
                               -1.9738E-01  2.2861E+01 -4.1589E+01  2.5147E+03

           1    1.68003E+01     2.6136E-01 -1.6451E-02 -2.7328E-01  3.7850E-01
ac ID =   33377                 9.0379E-01  3.4144E+00 -1.3395E+00  3.7775E+00
                               -1.9305E-01  2.3007E+01 -4.1457E+01  2.5147E+03

           1    1.69003E+01     1.4737E-01 -5.6220E-02 -2.5559E-01  3.0034E-01
ac ID =   33377                 2.3158E+00  1.5756E+00 -1.2053E-01  2.8035E+00
                               -1.8868E-01  2.3154E+01 -4.1324E+01  2.5147E+03

           1    1.70003E+01     1.5870E-01  1.3560E-02 -1.6245E-01  2.2751E-01
ac ID =   33377                -2.3678E-02  1.9272E+00  5.4677E-01  2.0034E+00
                               -1.8454E-01  2.3302E+01 -4.1191E+01  2.5147E+03

           1    1.71003E+01     1.8810E-01 -5.4531E-03 -1.4135E-01  2.3535E-01
ac ID =   33377                 1.1371E+00  2.0677E+00  5.7413E-01  2.4286E+00
                               -1.8049E-01  2.3449E+01 -4.1058E+01  2.5147E+03

           1    1.72003E+01     1.5834E-01 -3.7369E-02 -9.4839E-02  1.8832E-01
ac ID =   33377                 1.3063E+00  1.7089E+00  3.9666E-01  2.1873E+00
                               -1.7642E-01  2.3596E+01 -4.0926E+01  2.5147E+03

           1    1.73003E+01     1.1704E-01 -1.9526E-02  1.8367E-02  1.2007E-01
ac ID =   33377                 1.8480E+00 -1.4807E-02 -8.7923E-01  2.0466E+00
                               -1.7270E-01  2.3744E+01 -4.0793E+01  2.5147E+03

           1    1.74003E+01     1.7882E-01 -1.0384E-02 -1.6276E-02  1.7986E-01
ac ID =   33377                 4.7652E-01  2.2330E+00 -1.0419E+00  2.5097E+00
                               -1.6881E-01  2.3892E+01 -4.0662E+01  2.5147E+03

           1    1.75002E+01     1.6999E-01  7.4989E-02  1.2137E-02  1.8619E-01
ac ID =   33377                -8.1664E-01  2.3672E+00 -9.2233E-02  2.5058E+00
                               -1.6507E-01  2.4040E+01 -4.0531E+01  2.5147E+03

           1    1.76002E+01     7.4654E-02 -1.1184E-01  1.8186E-01  2.2617E-01
ac ID =   33377                 3.2536E+00 -2.3649E-01  1.5124E+00  3.5957E+00
                               -1.6077E-01  2.4188E+01 -4.0400E+01  2.5147E+03

           1    1.77002E+01     2.1976E-01  5.0642E-02  1.5094E-01  2.7137E-01
ac ID =   33377                -6.2258E-01  2.9306E+00  1.0736E+00  3.1825E+00
                               -1.5697E-01  2.4337E+01 -4.0271E+01  2.5147E+03

           1    1.78002E+01     1.1966E-01  4.0451E-02  1.7432E-01  2.1528E-01
ac ID =   33377                -3.3934E-01  7.5906E-01 -6.6938E-01  1.0674E+00
                               -1.5291E-01  2.4486E+01 -4.0142E+01  2.5147E+03

           1    1.79002E+01     1.0734E-02 -8.0067E-03  2.8518E-01  2.8549E-01
ac ID =   33377                 4.3284E-01 -8.4005E-01 -1.0069E+00  1.3809E+00
                               -1.4848E-01  2.4635E+01 -4.0014E+01  2.5147E+03

           1    1.80002E+01     2.2204E-01 -4.2413E-02  3.4821E-01  4.1515E-01
ac ID =   33377                 1.2488E+00  2.1849E+00 -1.4367E+00  2.8979E+00
                               -1.4427E-01  2.4785E+01 -3.9887E+01  2.5147E+03

           1    1.81002E+01     7.4443E-02  5.7166E-03  3.0196E-01  3.1105E-01
ac ID =   33377                 2.3313E-01 -3.6135E-01  4.6679E-01  6.3468E-01
                               -1.4008E-01  2.4935E+01 -3.9760E+01  2.5147E+03

           1    1.82002E+01     1.2685E-01  8.1008E-02  3.6179E-01  3.9185E-01
ac ID =   33377                -1.5620E+00  8.1637E-01  1.0131E+00  2.0329E+00
                               -1.3566E-01  2.5085E+01 -3.9635E+01  2.5147E+03

           1    1.83002E+01     1.1427E-01 -1.1200E-01  4.9807E-01  5.2314E-01
ac ID =   33377                 2.6334E+00 -3.9267E-01 -2.8189E-01  2.6774E+00
                               -1.3120E-01  2.5236E+01 -3.9512E+01  2.5147E+03

           1    1.84002E+01     1.3883E-01  3.9269E-02  4.6270E-01  4.8467E-01
ac ID =   33377                -1.5646E-01  5.1121E-01 -5.5740E-01  7.7235E-01
                               -1.2715E-01  2.5387E+01 -3.9388E+01  2.5147E+03

           1    1.85001E+01     9.0119E-02  2.7867E-03  4.4712E-01  4.5612E-01
ac ID =   33377                -8.7112E-01 -3.9562E-01 -6.5646E-01  1.1603E+00
                               -1.2276E-01  2.5539E+01 -3.9267E+01  2.5147E+03

           1    1.86001E+01     6.9179E-02  3.2289E-02  5.8718E-01  5.9212E-01
ac ID =   33377                -1.9009E-01 -1.5068E+00  1.0126E-01  1.5222E+00
                               -1.1876E-01  2.5691E+01 -3.9146E+01  2.5147E+03

           1    1.87001E+01     2.0489E-01 -3.8497E-02  6.1596E-01  6.5029E-01
ac ID =   33377                 1.1308E+00  1.2606E+00  1.1503E+00  2.0472E+00
                               -1.1457E-01  2.5843E+01 -3.9027E+01  2.5147E+03

           1    1.88001E+01     1.2284E-02  3.5133E-02  5.2479E-01  5.2611E-01
ac ID =   33377                -1.4909E+00 -2.3749E+00  7.0886E-01  2.8923E+00
                               -1.1058E-01  2.5997E+01 -3.8909E+01  2.5147E+03

           1    1.89001E+01     6.4901E-02  5.4274E-02  6.5378E-01  6.5924E-01
ac ID =   33377                -1.3278E+00 -1.7740E+00 -1.0884E+00  2.4688E+00
                               -1.0691E-01  2.6150E+01 -3.8793E+01  2.5147E+03

           1    1.90001E+01     1.6128E-01 -1.6796E-02  7.2661E-01  7.4448E-01
ac ID =   33377                 9.0219E-01 -4.5591E-01 -1.1180E+00  1.5072E+00
                               -1.0284E-01  2.6305E+01 -3.8678E+01  2.5147E+03

           1    1.91001E+01     5.5454E-02 -4.6056E-02  6.6332E-01  6.6722E-01
ac ID =   33377                 8.9047E-02 -1.9603E+00 -2.9147E-01  1.9838E+00
                               -9.8740E-02  2.6460E+01 -3.8565E+01  2.5147E+03

           1    1.92001E+01     4.5458E-02  9.5244E-02  7.4704E-01  7.5446E-01
ac ID =   33377                -2.0883E+00 -2.4808E+00  2.8004E-01  3.2548E+00
                               -9.5073E-02  2.6615E+01 -3.8454E+01  2.5147E+03

           1    1.93001E+01     1.1242E-01 -1.3888E-02  7.9714E-01  8.0515E-01
ac ID =   33377                 1.4557E-01 -1.3290E+00  3.7352E-01  1.3881E+00
                               -9.0901E-02  2.6771E+01 -3.8344E+01  2.5147E+03

           1    1.94001E+01     9.3425E-02 -4.2820E-02  7.8576E-01  7.9245E-01
ac ID =   33377                 2.0260E-01 -1.9119E+00 -1.6893E-01  1.9300E+00
                               -8.6693E-02  2.6928E+01 -3.8236E+01  2.5147E+03

           1    1.95000E+01     3.8620E-03 -7.7827E-03  7.9020E-01  7.9025E-01
ac ID =   33377                -6.6457E-02 -3.6646E+00 -1.0094E+00  3.8017E+00
                               -8.2998E-02  2.7086E+01 -3.8129E+01  2.5147E+03

           1    1.96000E+01     7.6577E-02  7.9121E-02  8.2602E-01  8.3333E-01
ac ID =   33377                -2.0284E+00 -2.5337E+00  4.1346E-02  3.2459E+00
                               -7.9487E-02  2.7244E+01 -3.8025E+01  2.5147E+03

           1    1.97005E+01     1.0884E-01 -1.3938E-02  8.5665E-01  8.6365E-01
ac ID =   33377                 3.3780E-01 -2.0118E+00  1.3875E-01  2.0447E+00
                               -7.5625E-02  2.7403E+01 -3.7922E+01  2.5147E+03

           1    1.98005E+01    -2.8970E-02 -1.1251E-01  8.8252E-01  8.9013E-01
ac ID =   33377                 1.5819E+00 -5.0751E+00 -1.6641E-01  5.3185E+00
                               -7.2010E-02  2.7563E+01 -3.7821E+01  2.5147E+03

           1    1.99005E+01     6.8164E-02  8.4961E-02  8.5519E-01  8.6210E-01
ac ID =   33377                -1.8090E+00 -2.9566E+00 -2.1118E-01  3.4726E+00
                               -6.9281E-02  2.7722E+01 -3.7722E+01  2.5147E+03

           1    2.00005E+01     1.4197E-01  5.0168E-02  8.9987E-01  9.1238E-01
ac ID =   33377                -1.5577E+00 -2.3353E+00 -5.3563E-01  2.8578E+00
                               -6.6147E-02  2.7883E+01 -3.7626E+01  2.5147E+03

           1    2.01005E+01    -6.2962E-03 -1.0070E-01  9.7018E-01  9.7542E-01
ac ID =   33377                 1.6705E+00 -4.4560E+00 -4.2600E-01  4.7778E+00
                               -6.2821E-02  2.8044E+01 -3.7530E+01  2.5147E+03

           1    2.02005E+01     2.9978E-02 -7.4003E-03  8.9653E-01  8.9706E-01
ac ID =   33377                 1.6855E-01 -3.6015E+00  9.1725E-02  3.6066E+00
                               -6.0182E-02  2.8205E+01 -3.7437E+01  2.5147E+03

           1    2.03005E+01     9.2631E-02  1.3188E-01  9.0217E-01  9.1645E-01
ac ID =   33377                -3.3088E+00 -3.7706E+00  2.3783E-01  5.0222E+00
                               -5.7707E-02  2.8367E+01 -3.7345E+01  2.5147E+03

           1    2.04005E+01     4.6367E-02 -5.0270E-02  9.6766E-01  9.7007E-01
ac ID =   33377                 8.5962E-01 -4.6808E+00 -2.1227E-01  4.7639E+00
                               -5.4759E-02  2.8530E+01 -3.7256E+01  2.5147E+03

           1    2.05004E+01    -2.5461E-02 -5.7007E-02  9.5430E-01  9.5634E-01
ac ID =   33377                 4.8234E-01 -6.2842E+00 -2.6286E-01  6.3082E+00
                               -5.2023E-02  2.8694E+01 -3.7168E+01  2.5147E+03

           1    2.06004E+01     6.4112E-02  8.3787E-02  9.2255E-01  9.2856E-01
ac ID =   33377                -1.8827E+00 -4.8607E+00 -6.5321E-01  5.2533E+00
                               -4.9632E-02  2.8858E+01 -3.7082E+01  2.5147E+03

           1    2.07004E+01     5.7584E-02  3.5069E-02  8.8635E-01  8.8891E-01
ac ID =   33377                -1.4273E+00 -5.1831E+00 -5.6325E-03  5.3760E+00
                               -4.6866E-02  2.9022E+01 -3.6999E+01  2.5147E+03

           1    2.08004E+01    -5.8515E-03 -6.2369E-02  9.6176E-01  9.6380E-01
ac ID =   33377                 1.6835E+00 -6.2296E+00  5.1830E-01  6.4738E+00
                               -4.4195E-02  2.9188E+01 -3.6917E+01  2.5147E+03

           1    2.09004E+01     4.1498E-02  1.1850E-02  1.0137E+00  1.0146E+00
ac ID =   33377                -2.8593E-01 -5.7611E+00  3.8217E-01  5.7808E+00
                               -4.1570E-02  2.9354E+01 -3.6838E+01  2.5147E+03

           1    2.10004E+01     6.1143E-02  8.3323E-02  9.2333E-01  9.2909E-01
ac ID =   33377                -2.7246E+00 -5.6791E+00 -9.2191E-02  6.2995E+00
                               -3.8780E-02  2.9521E+01 -3.6761E+01  2.5147E+03

           1    2.11004E+01     5.8895E-04 -4.9556E-02  8.8398E-01  8.8537E-01
ac ID =   33377                 1.7290E+00 -6.4818E+00 -1.1111E+00  6.7998E+00
                               -3.6050E-02  2.9689E+01 -3.6686E+01  2.5147E+03

           1    2.12004E+01     3.2861E-02 -3.5489E-02  1.0056E+00  1.0068E+00
ac ID =   33377                 3.7733E-01 -6.5682E+00 -6.4346E-01  6.6104E+00
                               -3.3160E-02  2.9857E+01 -3.6613E+01  2.5147E+03

           1    2.13004E+01     4.5071E-02  7.7672E-02  9.6903E-01  9.7318E-01
ac ID =   33377                -1.9353E+00 -6.1597E+00  3.0815E-02  6.4566E+00
                               -3.0504E-02  3.0026E+01 -3.6543E+01  2.5147E+03

           1    2.14004E+01     2.6008E-02  1.7848E-02  8.9885E-01  8.9940E-01
ac ID =   33377                -3.8214E-01 -6.0232E+00  4.9854E-01  6.0559E+00
                               -2.7814E-02  3.0196E+01 -3.6474E+01  2.5147E+03

           1    2.15003E+01     4.4798E-02 -8.4188E-02  9.1740E-01  9.2235E-01
ac ID =   33377                 2.0669E+00 -5.8066E+00 -3.1140E-01  6.1714E+00
                               -2.4969E-02  3.0367E+01 -3.6407E+01  2.5147E+03

           1    2.16003E+01     3.7982E-02  2.9627E-02  9.4457E-01  9.4580E-01
ac ID =   33377                -1.1559E+00 -6.1308E+00 -1.2566E-01  6.2400E+00
                               -2.2405E-02  3.0538E+01 -3.6342E+01  2.5147E+03

           1    2.17003E+01     7.4707E-02  5.8742E-02  9.3824E-01  9.4304E-01
ac ID =   33377                -8.7040E-01 -5.5276E+00 -3.6523E-01  5.6076E+00
                               -2.0063E-02  3.0709E+01 -3.6279E+01  2.5147E+03

           1    2.18003E+01     6.3933E-02 -8.4573E-02  8.9539E-01  9.0165E-01
ac ID =   33377                 2.0200E+00 -5.4058E+00  1.5311E-02  5.7709E+00
                               -1.7457E-02  3.0882E+01 -3.6217E+01  2.5147E+03

           1    2.19003E+01     3.1709E-02 -2.8070E-02  8.4918E-01  8.5023E-01
ac ID =   33377                 6.2026E-01 -6.0212E+00  6.8553E-01  6.0918E+00
                               -1.5064E-02  3.1054E+01 -3.6157E+01  2.5147E+03

           1    2.20003E+01     4.8933E-02  6.5018E-02  8.4689E-01  8.5079E-01
ac ID =   33377                -1.5719E+00 -6.2823E+00  2.6978E-01  6.4816E+00
                               -1.3094E-02  3.1227E+01 -3.6100E+01  2.5147E+03

           1    2.21003E+01     6.4420E-02 -3.1856E-02  8.8681E-01  8.8972E-01
ac ID =   33377                 1.0577E+00 -5.8134E+00 -6.4067E-01  5.9435E+00
                               -1.1014E-02  3.1401E+01 -3.6044E+01  2.5147E+03

           1    2.22003E+01     7.9196E-02 -7.2731E-02  8.6301E-01  8.6968E-01
ac ID =   33377                 1.4768E+00 -5.5443E+00 -8.2002E-01  5.7960E+00
                               -8.9048E-03  3.1575E+01 -3.5989E+01  2.5147E+03

           1    2.23003E+01     3.2888E-02  4.5876E-02  7.3672E-01  7.3888E-01
ac ID =   33377                -1.2306E+00 -6.4032E+00  5.7767E-03  6.5204E+00
                               -7.2655E-03  3.1749E+01 -3.5937E+01  2.5147E+03

           1    2.24003E+01     7.4735E-02  1.9640E-02  7.5143E-01  7.5539E-01
ac ID =   33377                -3.6216E-01 -5.4637E+00  4.0454E-01  5.4906E+00
                               -5.5841E-03  3.1924E+01 -3.5886E+01  2.5147E+03

           1    2.25002E+01     1.0526E-01 -5.0724E-02  7.9176E-01  8.0034E-01
ac ID =   33377                 1.5845E+00 -5.3224E+00 -1.8228E-02  5.5532E+00
                               -3.7993E-03  3.2099E+01 -3.5837E+01  2.5147E+03

           1    2.26002E+01     3.7164E-02  5.4510E-04  7.7276E-01  7.7365E-01
ac ID =   33377                -4.9071E-03 -6.8963E+00 -6.7637E-01  6.9294E+00
                               -2.1327E-03  3.2274E+01 -3.5789E+01  2.5147E+03

           1    2.27002E+01     7.5089E-02  4.1510E-02  7.1283E-01  7.1798E-01
ac ID =   33377                -1.4383E+00 -5.9933E+00 -8.7014E-01  6.2246E+00
                               -4.6241E-04  3.2450E+01 -3.5743E+01  2.5147E+03

           1    2.28002E+01     9.3277E-02 -1.4632E-02  6.3395E-01  6.4094E-01
ac ID =   33377                 8.1804E-01 -5.9636E+00 -4.1718E-01  6.0339E+00
                                1.2486E-03  3.2626E+01 -3.5699E+01  2.5147E+03

           1    2.29002E+01     4.7854E-02 -4.1688E-02  6.7194E-01  6.7493E-01
ac ID =   33377                 6.9953E-01 -6.9648E+00  1.5545E-01  7.0016E+00
                                3.1544E-03  3.2802E+01 -3.5656E+01  2.5147E+03

           1    2.30002E+01     6.8606E-02  6.3803E-02  7.0445E-01  7.1066E-01
ac ID =   33377                -1.5495E+00 -7.0589E+00  1.2131E-01  7.2280E+00
                                4.8469E-03  3.2978E+01 -3.5615E+01  2.5147E+03

           1    2.31002E+01     1.1725E-01 -7.8205E-03  5.9905E-01  6.1046E-01
ac ID =   33377                -1.3849E-02 -5.8507E+00 -5.1942E-01  5.8738E+00
                                6.6313E-03  3.3155E+01 -3.5574E+01  2.5147E+03

           1    2.32002E+01     6.9338E-02 -2.3991E-02  5.2419E-01  5.2930E-01
ac ID =   33377                 4.2794E-01 -7.1137E+00 -1.0050E+00  7.1971E+00
                                8.5334E-03  3.3332E+01 -3.5535E+01  2.5147E+03

           1    2.33002E+01     8.4833E-02  7.2133E-03  5.5505E-01  5.6154E-01
ac ID =   33377                -9.0269E-01 -6.8459E+00 -4.6787E-01  6.9210E+00
                                1.0400E-02  3.3510E+01 -3.5498E+01  2.5147E+03

           1    2.34002E+01     9.9035E-02  3.9381E-02  5.5210E-01  5.6229E-01
ac ID =   33377                -7.2052E-01 -6.9808E+00  7.5431E-02  7.0182E+00
                                1.2023E-02  3.3687E+01 -3.5462E+01  2.5147E+03

           1    2.35001E+01     8.1973E-02 -2.6686E-02  4.9619E-01  5.0363E-01
ac ID =   33377                 4.1978E-01 -7.3231E+00 -1.0398E-01  7.3358E+00
                                1.3841E-02  3.3865E+01 -3.5426E+01  2.5147E+03

           1    2.36001E+01     7.9690E-02 -9.9418E-03  4.3490E-01  4.4226E-01
ac ID =   33377                 6.7326E-02 -7.5544E+00 -3.7022E-01  7.5638E+00
                                1.5492E-02  3.4043E+01 -3.5392E+01  2.5147E+03

           1    2.37001E+01     1.0200E-01  2.2134E-02  4.0044E-01  4.1382E-01
ac ID =   33377                -1.0086E+00 -7.3820E+00 -3.2502E-01  7.4577E+00
                                1.6985E-02  3.4221E+01 -3.5359E+01  2.5147E+03

           1    2.38001E+01     1.0749E-01  3.9950E-03  4.1415E-01  4.2789E-01
ac ID =   33377                -2.8260E-01 -7.0863E+00 -3.4339E-01  7.1002E+00
                                1.8324E-02  3.4399E+01 -3.5326E+01  2.5147E+03

           1    2.39001E+01     7.9179E-02 -2.2240E-02  3.9018E-01  3.9875E-01
ac ID =   33377                 2.9262E-01 -7.9283E+00 -3.4036E-01  7.9410E+00
                                1.9627E-02  3.4577E+01 -3.5295E+01  2.5147E+03

           1    2.40001E+01     1.2576E-01  2.1146E-03  3.2623E-01  3.4964E-01
ac ID =   33377                -7.2691E-01 -6.8374E+00 -2.5189E-01  6.8806E+00
                                2.0764E-02  3.4755E+01 -3.5264E+01  2.5147E+03

           1    2.41001E+01     1.2111E-01  2.7563E-02  2.7232E-01  2.9930E-01
ac ID =   33377                -7.7546E-01 -7.0476E+00 -5.3890E-01  7.1106E+00
                                2.1595E-02  3.4933E+01 -3.5233E+01  2.5147E+03

           1    2.42001E+01     8.9239E-02 -9.9494E-03  2.8877E-01  3.0241E-01
ac ID =   33377                -1.0061E-01 -7.5480E+00 -4.0367E-01  7.5595E+00
                                2.2476E-02  3.5111E+01 -3.5204E+01  2.5147E+03

           1    2.43001E+01     1.1873E-01 -3.9179E-03  2.6080E-01  2.8658E-01
ac ID =   33377                -2.0152E-01 -7.4045E+00 -3.7121E-01  7.4165E+00
                                2.3293E-02  3.5289E+01 -3.5175E+01  2.5147E+03

           1    2.44001E+01     1.2012E-01  2.2296E-02  1.8938E-01  2.2537E-01
ac ID =   33377                -1.0191E+00 -7.3040E+00 -1.4526E-01  7.3762E+00
                                2.3933E-02  3.5467E+01 -3.5146E+01  2.5147E+03

           1    2.45005E+01     1.1027E-01  2.6440E-02  1.5495E-01  1.9202E-01
ac ID =   33377                -6.6163E-01 -7.6617E+00 -2.5227E-01  7.6943E+00
                                2.4605E-02  3.5645E+01 -3.5118E+01  2.5147E+03

           1    2.46005E+01     1.3785E-01 -1.6623E-02  1.3927E-01  1.9666E-01
ac ID =   33377                 4.4693E-02 -7.3622E+00 -1.6031E-01  7.3641E+00
                                2.5439E-02  3.5822E+01 -3.5090E+01  2.5147E+03

           1    2.47005E+01     1.4752E-01  3.2948E-02  1.2012E-01  1.9307E-01
ac ID =   33377                -8.0558E-01 -7.0990E+00 -5.4680E-01  7.1654E+00
                                2.6121E-02  3.5999E+01 -3.5062E+01  2.5147E+03

           1    2.48005E+01     1.2721E-01  2.1220E-02  6.3919E-02  1.4394E-01
ac ID =   33377                -7.6621E-01 -7.3536E+00 -6.2599E-01  7.4198E+00
                                2.6860E-02  3.6175E+01 -3.5035E+01  2.5147E+03

           1    2.49005E+01     1.3056E-01 -5.5113E-03  4.4631E-02  1.3809E-01
ac ID =   33377                 5.8565E-02 -7.2748E+00 -2.0305E-01  7.2778E+00
                                2.7675E-02  3.6351E+01 -3.5007E+01  2.5147E+03

