 LSTC 50th% Full_FE H-III Dummy (Beta Version, February 17, 2019)        
                    ls-dyna smp s R16 R16.0_619_d222963 date 03/18/2025

{BEGIN LEGEND}
 Entity #        Title
    22626                                                                                     
{END LEGEND}




 n o d a l   p r i n t   o u t   f o r   t i m e  s t e p       1                              ( at time 0.0000000E+00 )

 nodal point  x-disp     y-disp      z-disp      x-vel       y-vel       z-vel      x-accl      y-accl      z-accl      x-coor      y-coor      z-coor
    22626  0.00000E+00 0.00000E+00 0.00000E+00 0.00000E+00 0.00000E+00 0.00000E+00 0.00000E+00 0.00000E+00 0.00000E+00 4.65938E+00-2.81908E+01-4.49817E+01



 n o d a l   p r i n t   o u t   f o r   t i m e  s t e p       1                              ( at time 0.0000000E+00 )

 nodal point  x-rot      y-rot       z-rot       x-rot vel   y-rot vel   z-rot vel   x-rot acc   y-rot acc   z-rot acc
    22626  0.00000E+00 0.00000E+00 0.00000E+00 0.00000E+00 0.00000E+00 0.00000E+00 0.00000E+00 0.00000E+00 0.00000E+00



 n o d a l   p r i n t   o u t   f o r   t i m e  s t e p     201                              ( at time 9.9989993E-02 )

 nodal point  x-disp     y-disp      z-disp      x-vel       y-vel       z-vel      x-accl      y-accl      z-accl      x-coor      y-coor      z-coor
    22626  2.73563E-07 1.73630E-06-5.34276E-05 4.19939E-05 2.55592E-04-1.46822E-03 4.19981E-04 2.55617E-03-1.46836E-02 4.65938E+00-2.81908E+01-4.49818E+01



 n o d a l   p r i n t   o u t   f o r   t i m e  s t e p     201                              ( at time 9.9989993E-02 )

 nodal point  x-rot      y-rot       z-rot       x-rot vel   y-rot vel   z-rot vel   x-rot acc   y-rot acc   z-rot acc
    22626 -5.99114E-08-8.37956E-09-5.45479E-09-5.87071E-06-9.70009E-07-9.27076E-07-5.87130E-05-9.70106E-06-9.27169E-06



 n o d a l   p r i n t   o u t   f o r   t i m e  s t e p     401                              ( at time 1.9997999E-01 )

 nodal point  x-disp     y-disp      z-disp      x-vel       y-vel       z-vel      x-accl      y-accl      z-accl      x-coor      y-coor      z-coor
    22626  1.73166E-05 3.61721E-04-6.67567E-04 3.16585E-05 7.81087E-03-1.21519E-02-1.03364E-04 7.55604E-02-1.06847E-01 4.65939E+00-2.81905E+01-4.49824E+01



 n o d a l   p r i n t   o u t   f o r   t i m e  s t e p     401                              ( at time 1.9997999E-01 )

 nodal point  x-rot      y-rot       z-rot       x-rot vel   y-rot vel   z-rot vel   x-rot acc   y-rot acc   z-rot acc
    22626 -2.82088E-06-3.37249E-07-3.34666E-07-3.94027E-05-1.77222E-06-2.29454E-06-3.35354E-04-8.02287E-06-1.36760E-05



 n o d a l   p r i n t   o u t   f o r   t i m e  s t e p     601                              ( at time 2.9996998E-01 )

 nodal point  x-disp     y-disp      z-disp      x-vel       y-vel       z-vel      x-accl      y-accl      z-accl      x-coor      y-coor      z-coor
    22626  2.73752E-05 1.23954E-03-2.33776E-03 4.21494E-04 8.44016E-03-1.92387E-02 3.89875E-03 6.29354E-03-7.08756E-02 4.65940E+00-2.81896E+01-4.49841E+01



 n o d a l   p r i n t   o u t   f o r   t i m e  s t e p     601                              ( at time 2.9996998E-01 )

 nodal point  x-rot      y-rot       z-rot       x-rot vel   y-rot vel   z-rot vel   x-rot acc   y-rot acc   z-rot acc
    22626 -5.39355E-06-3.90376E-07-6.41875E-07-1.55103E-05-5.45911E-06-6.68629E-06 2.38948E-04-3.68727E-05-4.39219E-05



 n o d a l   p r i n t   o u t   f o r   t i m e  s t e p     801                              ( at time 3.9995997E-01 )

 nodal point  x-disp     y-disp      z-disp      x-vel       y-vel       z-vel      x-accl      y-accl      z-accl      x-coor      y-coor      z-coor
    22626  2.60301E-05 2.16100E-03-4.28064E-03-3.14411E-04 1.07327E-02-2.10700E-02-7.35979E-03 2.29278E-02-1.83145E-02 4.65940E+00-2.81887E+01-4.49860E+01



 n o d a l   p r i n t   o u t   f o r   t i m e  s t e p     801                              ( at time 3.9995997E-01 )

 nodal point  x-rot      y-rot       z-rot       x-rot vel   y-rot vel   z-rot vel   x-rot acc   y-rot acc   z-rot acc
    22626 -7.63485E-06-1.25004E-06-9.83026E-07-4.50040E-05-6.25171E-06-1.52539E-06-2.94966E-04-7.92676E-06 5.16142E-05



 n o d a l   p r i n t   o u t   f o r   t i m e  s t e p    1001                              ( at time 4.9994997E-01 )

 nodal point  x-disp     y-disp      z-disp      x-vel       y-vel       z-vel      x-accl      y-accl      z-accl      x-coor      y-coor      z-coor
    22626  3.93385E-06 3.43440E-03-6.73962E-03-2.39784E-04 1.41278E-02-2.86598E-02 7.46347E-04 3.39541E-02-7.59056E-02 4.65938E+00-2.81874E+01-4.49885E+01



 n o d a l   p r i n t   o u t   f o r   t i m e  s t e p    1001                              ( at time 4.9994997E-01 )

 nodal point  x-rot      y-rot       z-rot       x-rot vel   y-rot vel   z-rot vel   x-rot acc   y-rot acc   z-rot acc
    22626 -1.35916E-05-1.16909E-06-9.53214E-07-8.45278E-05 3.21637E-06 4.17282E-06-3.95278E-04 9.46903E-05 5.69878E-05



 n o d a l   p r i n t   o u t   f o r   t i m e  s t e p    1201                              ( at time 5.9993996E-01 )

 nodal point  x-disp     y-disp      z-disp      x-vel       y-vel       z-vel      x-accl      y-accl      z-accl      x-coor      y-coor      z-coor
    22626 -1.27676E-06 5.00151E-03-9.69991E-03 3.92146E-05 1.65311E-02-3.07835E-02 2.79026E-03 2.40358E-02-2.12392E-02 4.65937E+00-2.81858E+01-4.49914E+01



 n o d a l   p r i n t   o u t   f o r   t i m e  s t e p    1201                              ( at time 5.9993996E-01 )

 nodal point  x-rot      y-rot       z-rot       x-rot vel   y-rot vel   z-rot vel   x-rot acc   y-rot acc   z-rot acc
    22626 -2.04568E-05-8.91566E-07-9.69076E-07-6.14348E-05 3.66381E-06-2.37740E-06 2.30954E-04 4.47488E-06-6.55087E-05



 n o d a l   p r i n t   o u t   f o r   t i m e  s t e p    1401                              ( at time 6.9992995E-01 )

 nodal point  x-disp     y-disp      z-disp      x-vel       y-vel       z-vel      x-accl      y-accl      z-accl      x-coor      y-coor      z-coor
    22626 -5.05928E-05 6.81287E-03-1.31191E-02-4.61225E-04 1.92910E-02-3.84301E-02-5.00489E-03 2.76015E-02-7.64738E-02 4.65932E+00-2.81840E+01-4.49948E+01



 n o d a l   p r i n t   o u t   f o r   t i m e  s t e p    1401                              ( at time 6.9992995E-01 )

 nodal point  x-rot      y-rot       z-rot       x-rot vel   y-rot vel   z-rot vel   x-rot acc   y-rot acc   z-rot acc
    22626 -2.67450E-05-9.71929E-07-7.23667E-07-7.56057E-05-8.76879E-07 2.57170E-06-1.41723E-04-4.54114E-05 4.94959E-05



 n o d a l   p r i n t   o u t   f o r   t i m e  s t e p    1601                              ( at time 7.9991994E-01 )

 nodal point  x-disp     y-disp      z-disp      x-vel       y-vel       z-vel      x-accl      y-accl      z-accl      x-coor      y-coor      z-coor
    22626 -7.53225E-05 8.90090E-03-1.73352E-02-4.38511E-04 2.15600E-02-4.40976E-02 2.27162E-04 2.26920E-02-5.66801E-02 4.65930E+00-2.81819E+01-4.49991E+01



 n o d a l   p r i n t   o u t   f o r   t i m e  s t e p    1601                              ( at time 7.9991994E-01 )

 nodal point  x-rot      y-rot       z-rot       x-rot vel   y-rot vel   z-rot vel   x-rot acc   y-rot acc   z-rot acc
    22626 -3.55284E-05-1.09269E-06-7.93751E-07-9.94364E-05-6.70656E-06-9.33178E-07-2.38331E-04-5.83026E-05-3.50522E-05



 n o d a l   p r i n t   o u t   f o r   t i m e  s t e p    1801                              ( at time 8.9990994E-01 )

 nodal point  x-disp     y-disp      z-disp      x-vel       y-vel       z-vel      x-accl      y-accl      z-accl      x-coor      y-coor      z-coor
    22626 -1.05813E-04 1.10906E-02-2.17284E-02-2.28190E-04 2.30737E-02-4.39118E-02 2.10342E-03 1.51388E-02 1.85728E-03 4.65927E+00-2.81797E+01-4.50034E+01



 n o d a l   p r i n t   o u t   f o r   t i m e  s t e p    1801                              ( at time 8.9990994E-01 )

 nodal point  x-rot      y-rot       z-rot       x-rot vel   y-rot vel   z-rot vel   x-rot acc   y-rot acc   z-rot acc
    22626 -4.49525E-05-1.43260E-06-1.14117E-06-9.50141E-05-1.49438E-06-5.53965E-06 4.42276E-05 5.21269E-05-4.60694E-05



 n o d a l   p r i n t   o u t   f o r   t i m e  s t e p    2001                              ( at time 9.9989993E-01 )

 nodal point  x-disp     y-disp      z-disp      x-vel       y-vel       z-vel      x-accl      y-accl      z-accl      x-coor      y-coor      z-coor
    22626 -1.32729E-04 1.35085E-02-2.62568E-02 1.06098E-04 2.51011E-02-4.74888E-02 3.34321E-03 2.02761E-02-3.57731E-02 4.65924E+00-2.81773E+01-4.50080E+01



 n o d a l   p r i n t   o u t   f o r   t i m e  s t e p    2001                              ( at time 9.9989993E-01 )

 nodal point  x-rot      y-rot       z-rot       x-rot vel   y-rot vel   z-rot vel   x-rot acc   y-rot acc   z-rot acc
    22626 -5.54954E-05-1.87528E-06-1.70744E-06-1.22770E-04-5.94194E-06-1.06304E-05-2.77590E-04-4.44800E-05-5.09128E-05



 n o d a l   p r i n t   o u t   f o r   t i m e  s t e p    2201                              ( at time 1.0998899E+00 )

 nodal point  x-disp     y-disp      z-disp      x-vel       y-vel       z-vel      x-accl      y-accl      z-accl      x-coor      y-coor      z-coor
    22626 -1.11710E-04 1.60935E-02-3.12877E-02 5.83663E-05 2.70887E-02-5.27033E-02-4.77361E-04 1.98779E-02-5.21503E-02 4.65926E+00-2.81747E+01-4.50130E+01



 n o d a l   p r i n t   o u t   f o r   t i m e  s t e p    2201                              ( at time 1.0998899E+00 )

 nodal point  x-rot      y-rot       z-rot       x-rot vel   y-rot vel   z-rot vel   x-rot acc   y-rot acc   z-rot acc
    22626 -6.84643E-05-2.92512E-06-3.04192E-06-1.25117E-04-1.94393E-05-1.45143E-05-2.34713E-05-1.34987E-04-3.88429E-05



 n o d a l   p r i n t   o u t   f o r   t i m e  s t e p    2401                              ( at time 1.1998799E+00 )

 nodal point  x-disp     y-disp      z-disp      x-vel       y-vel       z-vel      x-accl      y-accl      z-accl      x-coor      y-coor      z-coor
    22626 -1.00618E-04 1.88426E-02-3.67775E-02 2.18074E-04 2.80663E-02-5.68300E-02 1.59723E-03 9.77722E-03-4.12711E-02 4.65927E+00-2.81720E+01-4.50185E+01



 n o d a l   p r i n t   o u t   f o r   t i m e  s t e p    2401                              ( at time 1.1998799E+00 )

 nodal point  x-rot      y-rot       z-rot       x-rot vel   y-rot vel   z-rot vel   x-rot acc   y-rot acc   z-rot acc
    22626 -8.08489E-05-4.81810E-06-4.56011E-06-1.28773E-04-2.14595E-05-1.71761E-05-3.65598E-05-2.02036E-05-2.66207E-05



 n o d a l   p r i n t   o u t   f o r   t i m e  s t e p    2601                              ( at time 1.2998699E+00 )

 nodal point  x-disp     y-disp      z-disp      x-vel       y-vel       z-vel      x-accl      y-accl      z-accl      x-coor      y-coor      z-coor
    22626 -9.04149E-05 2.17529E-02-4.25686E-02 2.15680E-04 3.01049E-02-5.86252E-02-2.39425E-05 2.03883E-02-1.79541E-02 4.65928E+00-2.81691E+01-4.50243E+01



 n o d a l   p r i n t   o u t   f o r   t i m e  s t e p    2601                              ( at time 1.2998699E+00 )

 nodal point  x-rot      y-rot       z-rot       x-rot vel   y-rot vel   z-rot vel   x-rot acc   y-rot acc   z-rot acc
    22626 -9.46446E-05-6.89093E-06-6.41973E-06-1.59915E-04-1.68909E-05-2.07580E-05-3.11457E-04 4.56904E-05-3.58222E-05



 n o d a l   p r i n t   o u t   f o r   t i m e  s t e p    2801                              ( at time 1.3998599E+00 )

 nodal point  x-disp     y-disp      z-disp      x-vel       y-vel       z-vel      x-accl      y-accl      z-accl      x-coor      y-coor      z-coor
    22626 -5.79631E-05 2.48309E-02-4.84582E-02 3.57329E-04 3.11480E-02-5.99091E-02 1.41664E-03 1.04312E-02-1.28399E-02 4.65932E+00-2.81660E+01-4.50302E+01



 n o d a l   p r i n t   o u t   f o r   t i m e  s t e p    2801                              ( at time 1.3998599E+00 )

 nodal point  x-rot      y-rot       z-rot       x-rot vel   y-rot vel   z-rot vel   x-rot acc   y-rot acc   z-rot acc
    22626 -1.11505E-04-8.90601E-06-8.69204E-06-1.79862E-04-2.51772E-05-2.04008E-05-1.99487E-04-8.28713E-05 3.57240E-06



 n o d a l   p r i n t   o u t   f o r   t i m e  s t e p    3001                              ( at time 1.4998499E+00 )

 nodal point  x-disp     y-disp      z-disp      x-vel       y-vel       z-vel      x-accl      y-accl      z-accl      x-coor      y-coor      z-coor
    22626 -1.80642E-05 2.80400E-02-5.47081E-02 3.00975E-04 3.28314E-02-6.54854E-02-5.63596E-04 1.68365E-02-5.57690E-02 4.65936E+00-2.81628E+01-4.50364E+01



 n o d a l   p r i n t   o u t   f o r   t i m e  s t e p    3001                              ( at time 1.4998499E+00 )

 nodal point  x-rot      y-rot       z-rot       x-rot vel   y-rot vel   z-rot vel   x-rot acc   y-rot acc   z-rot acc
    22626 -1.29594E-04-1.14997E-05-1.09567E-05-1.79809E-04-2.72936E-05-2.75628E-05 5.28142E-07-2.11658E-05-7.16274E-05



 n o d a l   p r i n t   o u t   f o r   t i m e  s t e p    3201                              ( at time 1.5998399E+00 )

 nodal point  x-disp     y-disp      z-disp      x-vel       y-vel       z-vel      x-accl      y-accl      z-accl      x-coor      y-coor      z-coor
    22626  5.25501E-06 3.14312E-02-6.14954E-02 5.37629E-04 3.46005E-02-6.93985E-02 2.36677E-03 1.76920E-02-3.91345E-02 4.65938E+00-2.81594E+01-4.50432E+01



 n o d a l   p r i n t   o u t   f o r   t i m e  s t e p    3201                              ( at time 1.5998399E+00 )

 nodal point  x-rot      y-rot       z-rot       x-rot vel   y-rot vel   z-rot vel   x-rot acc   y-rot acc   z-rot acc
    22626 -1.48521E-04-1.43879E-05-1.37430E-05-2.05452E-04-3.40492E-05-3.13040E-05-2.56455E-04-6.75632E-05-3.74156E-05



 n o d a l   p r i n t   o u t   f o r   t i m e  s t e p    3401                              ( at time 1.6998299E+00 )

 nodal point  x-disp     y-disp      z-disp      x-vel       y-vel       z-vel      x-accl      y-accl      z-accl      x-coor      y-coor      z-coor
    22626  4.33751E-05 3.49569E-02-6.85417E-02-1.17471E-05 3.57411E-02-7.13947E-02-5.49431E-03 1.14080E-02-1.99638E-02 4.65942E+00-2.81559E+01-4.50503E+01



 n o d a l   p r i n t   o u t   f o r   t i m e  s t e p    3401                              ( at time 1.6998299E+00 )

 nodal point  x-rot      y-rot       z-rot       x-rot vel   y-rot vel   z-rot vel   x-rot acc   y-rot acc   z-rot acc
    22626 -1.70412E-04-1.74257E-05-1.70140E-05-2.31859E-04-2.68022E-05-2.90112E-05-2.64099E-04 7.24772E-05 2.29303E-05



 n o d a l   p r i n t   o u t   f o r   t i m e  s t e p    3601                              ( at time 1.7998199E+00 )

 nodal point  x-disp     y-disp      z-disp      x-vel       y-vel       z-vel      x-accl      y-accl      z-accl      x-coor      y-coor      z-coor
    22626  5.35407E-05 3.85212E-02-7.57556E-02 3.15405E-04 3.61190E-02-7.29030E-02 3.27185E-03 3.77939E-03-1.50854E-02 4.65943E+00-2.81523E+01-4.50575E+01



 n o d a l   p r i n t   o u t   f o r   t i m e  s t e p    3601                              ( at time 1.7998199E+00 )

 nodal point  x-rot      y-rot       z-rot       x-rot vel   y-rot vel   z-rot vel   x-rot acc   y-rot acc   z-rot acc
    22626 -1.94307E-04-2.01571E-05-2.03573E-05-2.40001E-04-3.02457E-05-4.10947E-05-8.14215E-05-3.44383E-05-1.20848E-04



 n o d a l   p r i n t   o u t   f o r   t i m e  s t e p    3801                              ( at time 1.8998099E+00 )

 nodal point  x-disp     y-disp      z-disp      x-vel       y-vel       z-vel      x-accl      y-accl      z-accl      x-coor      y-coor      z-coor
    22626  7.96030E-05 4.22912E-02-8.32439E-02 4.45141E-04 3.91796E-02-7.71162E-02 1.29749E-03 3.06089E-02-4.21355E-02 4.65945E+00-2.81485E+01-4.50650E+01



 n o d a l   p r i n t   o u t   f o r   t i m e  s t e p    3801                              ( at time 1.8998099E+00 )

 nodal point  x-rot      y-rot       z-rot       x-rot vel   y-rot vel   z-rot vel   x-rot acc   y-rot acc   z-rot acc
    22626 -2.17914E-04-2.30402E-05-2.43195E-05-2.35788E-04-3.24956E-05-4.11228E-05 4.21330E-05-2.25011E-05-2.81244E-07



 n o d a l   p r i n t   o u t   f o r   t i m e  s t e p    4001                              ( at time 1.9997999E+00 )

 nodal point  x-disp     y-disp      z-disp      x-vel       y-vel       z-vel      x-accl      y-accl      z-accl      x-coor      y-coor      z-coor
    22626  1.12864E-04 4.62381E-02-9.11898E-02 1.73704E-04 4.01949E-02-8.16933E-02-2.71464E-03 1.01534E-02-4.57754E-02 4.65949E+00-2.81446E+01-4.50729E+01



 n o d a l   p r i n t   o u t   f o r   t i m e  s t e p    4001                              ( at time 1.9997999E+00 )

 nodal point  x-rot      y-rot       z-rot       x-rot vel   y-rot vel   z-rot vel   x-rot acc   y-rot acc   z-rot acc
    22626 -2.41553E-04-2.60869E-05-2.81940E-05-2.45691E-04-3.10790E-05-3.80178E-05-9.90415E-05 1.41673E-05 3.10535E-05



 n o d a l   p r i n t   o u t   f o r   t i m e  s t e p    4201                              ( at time 2.0997899E+00 )

 nodal point  x-disp     y-disp      z-disp      x-vel       y-vel       z-vel      x-accl      y-accl      z-accl      x-coor      y-coor      z-coor
    22626  1.31793E-04 5.02853E-02-9.94858E-02 3.90491E-04 4.08851E-02-8.41254E-02 2.16808E-03 6.90283E-03-2.43240E-02 4.65951E+00-2.81405E+01-4.50812E+01



 n o d a l   p r i n t   o u t   f o r   t i m e  s t e p    4201                              ( at time 2.0997899E+00 )

 nodal point  x-rot      y-rot       z-rot       x-rot vel   y-rot vel   z-rot vel   x-rot acc   y-rot acc   z-rot acc
    22626 -2.65812E-04-2.98470E-05-3.26572E-05-2.44126E-04-4.41389E-05-4.07400E-05 1.56471E-05-1.30612E-04-2.72250E-05



 n o d a l   p r i n t   o u t   f o r   t i m e  s t e p    4401                              ( at time 2.1997798E+00 )

 nodal point  x-disp     y-disp      z-disp      x-vel       y-vel       z-vel      x-accl      y-accl      z-accl      x-coor      y-coor      z-coor
    22626  2.23496E-04 5.44013E-02-1.07972E-01 1.44651E-03 4.11360E-02-8.56861E-02 1.05612E-02 2.50957E-03-1.56089E-02 4.65960E+00-2.81364E+01-4.50897E+01



 n o d a l   p r i n t   o u t   f o r   t i m e  s t e p    4401                              ( at time 2.1997798E+00 )

 nodal point  x-rot      y-rot       z-rot       x-rot vel   y-rot vel   z-rot vel   x-rot acc   y-rot acc   z-rot acc
    22626 -2.91120E-04-3.46916E-05-3.67055E-05-2.70980E-04-4.64903E-05-3.74930E-05-2.68565E-04-2.35169E-05 3.24732E-05



 n o d a l   p r i n t   o u t   f o r   t i m e  s t e p    4601                              ( at time 2.2997698E+00 )

 nodal point  x-disp     y-disp      z-disp      x-vel       y-vel       z-vel      x-accl      y-accl      z-accl      x-coor      y-coor      z-coor
    22626  3.68885E-04 5.85474E-02-1.16639E-01 1.23153E-03 4.22697E-02-8.84876E-02-2.14998E-03 1.13381E-02-2.80176E-02 4.65974E+00-2.81323E+01-4.50984E+01



 n o d a l   p r i n t   o u t   f o r   t i m e  s t e p    4601                              ( at time 2.2997698E+00 )

 nodal point  x-rot      y-rot       z-rot       x-rot vel   y-rot vel   z-rot vel   x-rot acc   y-rot acc   z-rot acc
    22626 -3.17850E-04-3.93584E-05-4.02071E-05-2.65602E-04-4.61696E-05-3.45363E-05 5.37912E-05 3.20741E-06 2.95699E-05



 n o d a l   p r i n t   o u t   f o r   t i m e  s t e p    4801                              ( at time 2.3997598E+00 )

 nodal point  x-disp     y-disp      z-disp      x-vel       y-vel       z-vel      x-accl      y-accl      z-accl      x-coor      y-coor      z-coor
    22626  4.49855E-04 6.28718E-02-1.25741E-01-1.41665E-04 4.41006E-02-9.29805E-02-1.37333E-02 1.83112E-02-4.49333E-02 4.65982E+00-2.81280E+01-4.51075E+01



 n o d a l   p r i n t   o u t   f o r   t i m e  s t e p    4801                              ( at time 2.3997598E+00 )

 nodal point  x-rot      y-rot       z-rot       x-rot vel   y-rot vel   z-rot vel   x-rot acc   y-rot acc   z-rot acc
    22626 -3.44203E-04-4.30820E-05-4.35257E-05-2.63086E-04-2.78087E-05-3.14759E-05 2.51552E-05 1.83628E-04 3.06069E-05



 n o d a l   p r i n t   o u t   f o r   t i m e  s t e p    5001                              ( at time 2.4997498E+00 )

 nodal point  x-disp     y-disp      z-disp      x-vel       y-vel       z-vel      x-accl      y-accl      z-accl      x-coor      y-coor      z-coor
    22626  3.95403E-04 6.73985E-02-1.35235E-01-7.51811E-04 4.61780E-02-9.68348E-02-6.10206E-03 2.07759E-02-3.85468E-02 4.65977E+00-2.81234E+01-4.51170E+01



 n o d a l   p r i n t   o u t   f o r   t i m e  s t e p    5001                              ( at time 2.4997498E+00 )

 nodal point  x-rot      y-rot       z-rot       x-rot vel   y-rot vel   z-rot vel   x-rot acc   y-rot acc   z-rot acc
    22626 -3.69869E-04-4.48847E-05-4.62491E-05-2.58820E-04-1.02670E-05-2.18964E-05 4.26661E-05 1.75435E-04 9.58052E-05



 n o d a l   p r i n t   o u t   f o r   t i m e  s t e p    5201                              ( at time 2.5997398E+00 )

 nodal point  x-disp     y-disp      z-disp      x-vel       y-vel       z-vel      x-accl      y-accl      z-accl      x-coor      y-coor      z-coor
    22626  2.67400E-04 7.20496E-02-1.44923E-01-1.76764E-03 4.64413E-02-9.67523E-02-1.01593E-02 2.63315E-03 8.25235E-04 4.65964E+00-2.81188E+01-4.51266E+01



 n o d a l   p r i n t   o u t   f o r   t i m e  s t e p    5201                              ( at time 2.5997398E+00 )

 nodal point  x-rot      y-rot       z-rot       x-rot vel   y-rot vel   z-rot vel   x-rot acc   y-rot acc   z-rot acc
    22626 -3.94801E-04-4.58346E-05-4.82424E-05-2.49285E-04-6.09867E-06-1.58564E-05 9.53599E-05 4.16872E-05 6.04054E-05



 n o d a l   p r i n t   o u t   f o r   t i m e  s t e p    5401                              ( at time 2.6997298E+00 )

 nodal point  x-disp     y-disp      z-disp      x-vel       y-vel       z-vel      x-accl      y-accl      z-accl      x-coor      y-coor      z-coor
    22626  1.94133E-04 7.66099E-02-1.54619E-01 3.72652E-04 4.53270E-02-9.74449E-02 2.14050E-02-1.11439E-02-6.92645E-03 4.65957E+00-2.81142E+01-4.51363E+01



 n o d a l   p r i n t   o u t   f o r   t i m e  s t e p    5401                              ( at time 2.6997298E+00 )

 nodal point  x-rot      y-rot       z-rot       x-rot vel   y-rot vel   z-rot vel   x-rot acc   y-rot acc   z-rot acc
    22626 -4.21399E-04-4.68282E-05-5.01362E-05-2.78234E-04-1.41258E-05-2.18227E-05-2.89515E-04-8.02789E-05-5.96691E-05



 n o d a l   p r i n t   o u t   f o r   t i m e  s t e p    5601                              ( at time 2.7997198E+00 )

 nodal point  x-disp     y-disp      z-disp      x-vel       y-vel       z-vel      x-accl      y-accl      z-accl      x-coor      y-coor      z-coor
    22626  2.40309E-04 8.11751E-02-1.64457E-01 4.42747E-04 4.60680E-02-9.94391E-02 7.01019E-04 7.41043E-03-1.99448E-02 4.65962E+00-2.81097E+01-4.51462E+01



 n o d a l   p r i n t   o u t   f o r   t i m e  s t e p    5601                              ( at time 2.7997198E+00 )

 nodal point  x-rot      y-rot       z-rot       x-rot vel   y-rot vel   z-rot vel   x-rot acc   y-rot acc   z-rot acc
    22626 -4.48266E-04-4.92315E-05-5.27115E-05-2.56518E-04-3.11339E-05-2.59894E-05 2.17180E-04-1.70099E-04-4.16711E-05



 n o d a l   p r i n t   o u t   f o r   t i m e  s t e p    5801                              ( at time 2.8997098E+00 )

 nodal point  x-disp     y-disp      z-disp      x-vel       y-vel       z-vel      x-accl      y-accl      z-accl      x-coor      y-coor      z-coor
    22626  2.87830E-04 8.57661E-02-1.74507E-01 3.07112E-04 4.60600E-02-1.01723E-01-1.35649E-03-7.98038E-05-2.28391E-02 4.65966E+00-2.81051E+01-4.51562E+01



 n o d a l   p r i n t   o u t   f o r   t i m e  s t e p    5801                              ( at time 2.8997098E+00 )

 nodal point  x-rot      y-rot       z-rot       x-rot vel   y-rot vel   z-rot vel   x-rot acc   y-rot acc   z-rot acc
    22626 -4.73186E-04-5.21361E-05-5.54251E-05-2.47904E-04-2.56404E-05-2.34537E-05 8.61467E-05 5.49411E-05 2.53601E-05



 n o d a l   p r i n t   o u t   f o r   t i m e  s t e p    6001                              ( at time 2.9996998E+00 )

 nodal point  x-disp     y-disp      z-disp      x-vel       y-vel       z-vel      x-accl      y-accl      z-accl      x-coor      y-coor      z-coor
    22626  2.65009E-04 9.03660E-02-1.84744E-01-3.88810E-04 4.54393E-02-1.02236E-01-6.95990E-03-6.20799E-03-5.13575E-03 4.65964E+00-2.81005E+01-4.51665E+01



 n o d a l   p r i n t   o u t   f o r   t i m e  s t e p    6001                              ( at time 2.9996998E+00 )

 nodal point  x-rot      y-rot       z-rot       x-rot vel   y-rot vel   z-rot vel   x-rot acc   y-rot acc   z-rot acc
    22626 -4.99531E-04-5.42482E-05-5.84095E-05-2.73490E-04-2.21054E-05-3.12290E-05-2.55882E-04 3.53528E-05-7.77607E-05



 n o d a l   p r i n t   o u t   f o r   t i m e  s t e p    6201                              ( at time 3.0996898E+00 )

 nodal point  x-disp     y-disp      z-disp      x-vel       y-vel       z-vel      x-accl      y-accl      z-accl      x-coor      y-coor      z-coor
    22626  2.21848E-04 9.48988E-02-1.94886E-01-2.87812E-04 4.57417E-02-1.01774E-01 1.01008E-03 3.02472E-03 4.62385E-03 4.65960E+00-2.80959E+01-4.51766E+01



 n o d a l   p r i n t   o u t   f o r   t i m e  s t e p    6201                              ( at time 3.0996898E+00 )

 nodal point  x-rot      y-rot       z-rot       x-rot vel   y-rot vel   z-rot vel   x-rot acc   y-rot acc   z-rot acc
    22626 -5.26122E-04-5.61620E-05-6.07829E-05-2.66255E-04-1.29634E-05-1.90103E-05 7.23589E-05 9.14293E-05 1.22199E-04



 n o d a l   p r i n t   o u t   f o r   t i m e  s t e p    6401                              ( at time 3.1996798E+00 )

 nodal point  x-disp     y-disp      z-disp      x-vel       y-vel       z-vel      x-accl      y-accl      z-accl      x-coor      y-coor      z-coor
    22626  1.83064E-04 9.94993E-02-2.05216E-01-5.06230E-04 4.61076E-02-1.04742E-01-2.18439E-03 3.65893E-03-2.96849E-02 4.65956E+00-2.80913E+01-4.51869E+01



 n o d a l   p r i n t   o u t   f o r   t i m e  s t e p    6401                              ( at time 3.1996798E+00 )

 nodal point  x-rot      y-rot       z-rot       x-rot vel   y-rot vel   z-rot vel   x-rot acc   y-rot acc   z-rot acc
    22626 -5.52540E-04-5.72268E-05-6.28321E-05-2.59858E-04-1.08466E-05-1.67902E-05 6.39710E-05 2.11703E-05 2.22030E-05



 n o d a l   p r i n t   o u t   f o r   t i m e  s t e p    6601                              ( at time 3.2996698E+00 )

 nodal point  x-disp     y-disp      z-disp      x-vel       y-vel       z-vel      x-accl      y-accl      z-accl      x-coor      y-coor      z-coor
    22626  1.56167E-04 1.04081E-01-2.15843E-01-3.34550E-04 4.57281E-02-1.07398E-01 1.71698E-03-3.79523E-03-2.65622E-02 4.65953E+00-2.80868E+01-4.51976E+01



 n o d a l   p r i n t   o u t   f o r   t i m e  s t e p    6601                              ( at time 3.2996698E+00 )

 nodal point  x-rot      y-rot       z-rot       x-rot vel   y-rot vel   z-rot vel   x-rot acc   y-rot acc   z-rot acc
    22626 -5.79112E-04-5.85058E-05-6.50526E-05-2.65697E-04-1.02600E-05-1.98457E-05-5.83911E-05 5.86666E-06-3.05582E-05



 n o d a l   p r i n t   o u t   f o r   t i m e  s t e p    6801                              ( at time 3.3996598E+00 )

 nodal point  x-disp     y-disp      z-disp      x-vel       y-vel       z-vel      x-accl      y-accl      z-accl      x-coor      y-coor      z-coor
    22626  9.19634E-05 1.08660E-01-2.26597E-01-3.37216E-04 4.56525E-02-1.07856E-01-2.66609E-05-7.55936E-04-4.58234E-03 4.65947E+00-2.80822E+01-4.52083E+01



 n o d a l   p r i n t   o u t   f o r   t i m e  s t e p    6801                              ( at time 3.3996598E+00 )

 nodal point  x-rot      y-rot       z-rot       x-rot vel   y-rot vel   z-rot vel   x-rot acc   y-rot acc   z-rot acc
    22626 -6.05369E-04-5.98637E-05-6.71519E-05-2.56633E-04-1.63991E-05-2.18052E-05 9.06418E-05-6.13969E-05-1.95963E-05



 n o d a l   p r i n t   o u t   f o r   t i m e  s t e p    7001                              ( at time 3.4996498E+00 )

 nodal point  x-disp     y-disp      z-disp      x-vel       y-vel       z-vel      x-accl      y-accl      z-accl      x-coor      y-coor      z-coor
    22626  5.80987E-05 1.13218E-01-2.37361E-01-7.72061E-04 4.50827E-02-1.07045E-01-4.34890E-03-5.69897E-03 8.11376E-03 4.65943E+00-2.80776E+01-4.52191E+01



 n o d a l   p r i n t   o u t   f o r   t i m e  s t e p    7001                              ( at time 3.4996498E+00 )

 nodal point  x-rot      y-rot       z-rot       x-rot vel   y-rot vel   z-rot vel   x-rot acc   y-rot acc   z-rot acc
    22626 -6.31968E-04-6.12742E-05-6.94908E-05-2.63622E-04-1.17096E-05-1.97704E-05-6.98976E-05 4.68994E-05 2.03493E-05



 n o d a l   p r i n t   o u t   f o r   t i m e  s t e p    7201                              ( at time 3.5996397E+00 )

 nodal point  x-disp     y-disp      z-disp      x-vel       y-vel       z-vel      x-accl      y-accl      z-accl      x-coor      y-coor      z-coor
    22626  1.20207E-05 1.17660E-01-2.47987E-01 1.04029E-04 4.38224E-02-1.06194E-01 8.76179E-03-1.26044E-02 8.51374E-03 4.65939E+00-2.80732E+01-4.52297E+01



 n o d a l   p r i n t   o u t   f o r   t i m e  s t e p    7201                              ( at time 3.5996397E+00 )

 nodal point  x-rot      y-rot       z-rot       x-rot vel   y-rot vel   z-rot vel   x-rot acc   y-rot acc   z-rot acc
    22626 -6.58682E-04-6.19746E-05-7.13869E-05-2.68010E-04-1.04292E-05-2.42799E-05-4.38817E-05 1.28056E-05-4.50989E-05



 n o d a l   p r i n t   o u t   f o r   t i m e  s t e p    7401                              ( at time 3.6996297E+00 )

 nodal point  x-disp     y-disp      z-disp      x-vel       y-vel       z-vel      x-accl      y-accl      z-accl      x-coor      y-coor      z-coor
    22626 -3.62692E-05 1.21964E-01-2.58657E-01-9.30772E-04 4.23890E-02-1.06992E-01-1.03490E-02-1.43351E-02-7.98066E-03 4.65934E+00-2.80689E+01-4.52404E+01



 n o d a l   p r i n t   o u t   f o r   t i m e  s t e p    7401                              ( at time 3.6996297E+00 )

 nodal point  x-rot      y-rot       z-rot       x-rot vel   y-rot vel   z-rot vel   x-rot acc   y-rot acc   z-rot acc
    22626 -6.85417E-04-6.32083E-05-7.40030E-05-2.62570E-04-1.45371E-05-2.63114E-05 5.44062E-05-4.10831E-05-2.03175E-05



 n o d a l   p r i n t   o u t   f o r   t i m e  s t e p    7601                              ( at time 3.7996197E+00 )

 nodal point  x-disp     y-disp      z-disp      x-vel       y-vel       z-vel      x-accl      y-accl      z-accl      x-coor      y-coor      z-coor
    22626 -7.74520E-05 1.26140E-01-2.69366E-01 1.37602E-04 4.11570E-02-1.06765E-01 1.06848E-02-1.23214E-02 2.26886E-03 4.65930E+00-2.80647E+01-4.52511E+01



 n o d a l   p r i n t   o u t   f o r   t i m e  s t e p    7601                              ( at time 3.7996197E+00 )

 nodal point  x-rot      y-rot       z-rot       x-rot vel   y-rot vel   z-rot vel   x-rot acc   y-rot acc   z-rot acc
    22626 -7.12160E-04-6.42547E-05-7.63500E-05-2.62706E-04-9.28397E-06-2.64578E-05-1.36161E-06 5.25364E-05-1.46369E-06



 n o d a l   p r i n t   o u t   f o r   t i m e  s t e p    7801                              ( at time 3.8996097E+00 )

 nodal point  x-disp     y-disp      z-disp      x-vel       y-vel       z-vel      x-accl      y-accl      z-accl      x-coor      y-coor      z-coor
    22626 -1.13244E-04 1.30177E-01-2.80028E-01-3.97324E-04 3.96981E-02-1.06106E-01-5.34979E-03-1.45903E-02 6.58450E-03 4.65926E+00-2.80607E+01-4.52617E+01



 n o d a l   p r i n t   o u t   f o r   t i m e  s t e p    7801                              ( at time 3.8996097E+00 )

 nodal point  x-rot      y-rot       z-rot       x-rot vel   y-rot vel   z-rot vel   x-rot acc   y-rot acc   z-rot acc
    22626 -7.38522E-04-6.54836E-05-7.88453E-05-2.72351E-04-1.44656E-05-2.72498E-05-9.64538E-05-5.18216E-05-7.92077E-06



 n o d a l   p r i n t   o u t   f o r   t i m e  s t e p    8001                              ( at time 3.9995997E+00 )

 nodal point  x-disp     y-disp      z-disp      x-vel       y-vel       z-vel      x-accl      y-accl      z-accl      x-coor      y-coor      z-coor
    22626 -8.25946E-05 1.34063E-01-2.90427E-01 7.09552E-04 3.78971E-02-1.02731E-01 1.10699E-02-1.80115E-02 3.37584E-02 4.65929E+00-2.80568E+01-4.52721E+01



 n o d a l   p r i n t   o u t   f o r   t i m e  s t e p    8001                              ( at time 3.9995997E+00 )

 nodal point  x-rot      y-rot       z-rot       x-rot vel   y-rot vel   z-rot vel   x-rot acc   y-rot acc   z-rot acc
    22626 -7.65531E-04-6.75906E-05-8.17590E-05-2.65974E-04-2.00694E-05-3.15680E-05 6.37744E-05-5.60436E-05-4.31869E-05



 n o d a l   p r i n t   o u t   f o r   t i m e  s t e p    8201                              ( at time 4.0995897E+00 )

 nodal point  x-disp     y-disp      z-disp      x-vel       y-vel       z-vel      x-accl      y-accl      z-accl      x-coor      y-coor      z-coor
    22626 -8.46233E-05 1.37799E-01-3.00722E-01-6.35614E-04 3.68203E-02-1.03057E-01-1.34530E-02-1.07694E-02-3.26114E-03 4.65929E+00-2.80530E+01-4.52824E+01



 n o d a l   p r i n t   o u t   f o r   t i m e  s t e p    8201                              ( at time 4.0995897E+00 )

 nodal point  x-rot      y-rot       z-rot       x-rot vel   y-rot vel   z-rot vel   x-rot acc   y-rot acc   z-rot acc
    22626 -7.91292E-04-6.83059E-05-8.38730E-05-2.41761E-04 2.75452E-06-2.44819E-05 2.42154E-04 2.28262E-04 7.08681E-05



 n o d a l   p r i n t   o u t   f o r   t i m e  s t e p    8401                              ( at time 4.1995797E+00 )

 nodal point  x-disp     y-disp      z-disp      x-vel       y-vel       z-vel      x-accl      y-accl      z-accl      x-coor      y-coor      z-coor
    22626 -1.75217E-04 1.41411E-01-3.11000E-01-1.46713E-03 3.48124E-02-1.02578E-01-8.31598E-03-2.00807E-02 4.79508E-03 4.65920E+00-2.80494E+01-4.52927E+01



 n o d a l   p r i n t   o u t   f o r   t i m e  s t e p    8401                              ( at time 4.1995797E+00 )

 nodal point  x-rot      y-rot       z-rot       x-rot vel   y-rot vel   z-rot vel   x-rot acc   y-rot acc   z-rot acc
    22626 -8.15950E-04-6.80208E-05-8.59150E-05-2.44115E-04 1.96249E-06-1.89475E-05-2.35392E-05-7.92108E-06 5.53493E-05



 n o d a l   p r i n t   o u t   f o r   t i m e  s t e p    8601                              ( at time 4.2995697E+00 )

 nodal point  x-disp     y-disp      z-disp      x-vel       y-vel       z-vel      x-accl      y-accl      z-accl      x-coor      y-coor      z-coor
    22626 -3.06887E-04 1.44848E-01-3.21172E-01-1.13369E-03 3.39163E-02-1.00403E-01 3.33470E-03-8.96243E-03 2.17452E-02 4.65907E+00-2.80460E+01-4.53029E+01



 n o d a l   p r i n t   o u t   f o r   t i m e  s t e p    8601                              ( at time 4.2995697E+00 )

 nodal point  x-rot      y-rot       z-rot       x-rot vel   y-rot vel   z-rot vel   x-rot acc   y-rot acc   z-rot acc
    22626 -8.40225E-04-6.72203E-05-8.73339E-05-2.27154E-04 9.19413E-06-9.28321E-06 1.69627E-04 7.23237E-05 9.66531E-05



 n o d a l   p r i n t   o u t   f o r   t i m e  s t e p    8801                              ( at time 4.3995597E+00 )

 nodal point  x-disp     y-disp      z-disp      x-vel       y-vel       z-vel      x-accl      y-accl      z-accl      x-coor      y-coor      z-coor
    22626 -3.67934E-04 1.48110E-01-3.31038E-01 2.96015E-05 3.10354E-02-9.72346E-02 1.16341E-02-2.88116E-02 3.16906E-02 4.65901E+00-2.80427E+01-4.53128E+01



 n o d a l   p r i n t   o u t   f o r   t i m e  s t e p    8801                              ( at time 4.3995597E+00 )

 nodal point  x-rot      y-rot       z-rot       x-rot vel   y-rot vel   z-rot vel   x-rot acc   y-rot acc   z-rot acc
    22626 -8.63486E-04-6.68844E-05-8.87564E-05-2.25171E-04 3.59577E-06-1.73797E-05 1.98270E-05-5.59893E-05-8.09729E-05



 n o d a l   p r i n t   o u t   f o r   t i m e  s t e p    9001                              ( at time 4.4995497E+00 )

 nodal point  x-disp     y-disp      z-disp      x-vel       y-vel       z-vel      x-accl      y-accl      z-accl      x-coor      y-coor      z-coor
    22626 -3.99890E-04 1.51140E-01-3.40670E-01-4.72722E-04 2.97988E-02-9.56950E-02-5.02372E-03-1.23667E-02 1.53975E-02 4.65898E+00-2.80397E+01-4.53224E+01



 n o d a l   p r i n t   o u t   f o r   t i m e  s t e p    9001                              ( at time 4.4995497E+00 )

 nodal point  x-rot      y-rot       z-rot       x-rot vel   y-rot vel   z-rot vel   x-rot acc   y-rot acc   z-rot acc
    22626 -8.86637E-04-6.67363E-05-9.01163E-05-2.19060E-04-1.69924E-08-1.32424E-05 6.11187E-05-3.61311E-05 4.13773E-05



 n o d a l   p r i n t   o u t   f o r   t i m e  s t e p    9201                              ( at time 4.5995397E+00 )

 nodal point  x-disp     y-disp      z-disp      x-vel       y-vel       z-vel      x-accl      y-accl      z-accl      x-coor      y-coor      z-coor
    22626 -4.38047E-04 1.53998E-01-3.50189E-01-9.50544E-04 2.74634E-02-9.44281E-02-4.77871E-03-2.33565E-02 1.26698E-02 4.65894E+00-2.80368E+01-4.53319E+01



 n o d a l   p r i n t   o u t   f o r   t i m e  s t e p    9201                              ( at time 4.5995397E+00 )

 nodal point  x-rot      y-rot       z-rot       x-rot vel   y-rot vel   z-rot vel   x-rot acc   y-rot acc   z-rot acc
    22626 -9.08312E-04-6.62261E-05-9.20270E-05-2.02112E-04 5.68683E-06-2.51986E-05 1.69499E-04 5.70440E-05-1.19575E-04



 n o d a l   p r i n t   o u t   f o r   t i m e  s t e p    9401                              ( at time 4.6995297E+00 )

 nodal point  x-disp     y-disp      z-disp      x-vel       y-vel       z-vel      x-accl      y-accl      z-accl      x-coor      y-coor      z-coor
    22626 -5.32421E-04 1.56665E-01-3.59551E-01-5.53192E-04 2.58140E-02-9.25187E-02 3.97392E-03-1.64959E-02 1.90957E-02 4.65884E+00-2.80342E+01-4.53413E+01



 n o d a l   p r i n t   o u t   f o r   t i m e  s t e p    9401                              ( at time 4.6995297E+00 )

 nodal point  x-rot      y-rot       z-rot       x-rot vel   y-rot vel   z-rot vel   x-rot acc   y-rot acc   z-rot acc
    22626 -9.28660E-04-6.59640E-05-9.40201E-05-2.00487E-04 4.70296E-06-2.18578E-05 1.62470E-05-9.83973E-06 3.34116E-05



 n o d a l   p r i n t   o u t   f o r   t i m e  s t e p    9601                              ( at time 4.7995197E+00 )

 nodal point  x-disp     y-disp      z-disp      x-vel       y-vel       z-vel      x-accl      y-accl      z-accl      x-coor      y-coor      z-coor
    22626 -5.86264E-04 1.59104E-01-3.68686E-01-4.10820E-04 2.35102E-02-9.02929E-02 1.42386E-03-2.30405E-02 2.22610E-02 4.65879E+00-2.80317E+01-4.53504E+01



 n o d a l   p r i n t   o u t   f o r   t i m e  s t e p    9601                              ( at time 4.7995197E+00 )

 nodal point  x-rot      y-rot       z-rot       x-rot vel   y-rot vel   z-rot vel   x-rot acc   y-rot acc   z-rot acc
    22626 -9.48678E-04-6.65764E-05-9.62039E-05-2.07560E-04-7.72363E-06-2.00711E-05-7.07324E-05-1.24278E-04 1.78690E-05



 n o d a l   p r i n t   o u t   f o r   t i m e  s t e p    9801                              ( at time 4.8995097E+00 )

 nodal point  x-disp     y-disp      z-disp      x-vel       y-vel       z-vel      x-accl      y-accl      z-accl      x-coor      y-coor      z-coor
    22626 -5.38862E-04 1.61325E-01-3.77452E-01 6.11701E-04 2.06246E-02-8.56201E-02 1.02262E-02-2.88584E-02 4.67327E-02 4.65884E+00-2.80295E+01-4.53592E+01



 n o d a l   p r i n t   o u t   f o r   t i m e  s t e p    9801                              ( at time 4.8995097E+00 )

 nodal point  x-rot      y-rot       z-rot       x-rot vel   y-rot vel   z-rot vel   x-rot acc   y-rot acc   z-rot acc
    22626 -9.68147E-04-6.76671E-05-9.89160E-05-1.78048E-04-5.07570E-06-2.54359E-05 2.95147E-04 2.64820E-05-5.36538E-05



 n o d a l   p r i n t   o u t   f o r   t i m e  s t e p   10001                              ( at time 4.9994997E+00 )

 nodal point  x-disp     y-disp      z-disp      x-vel       y-vel       z-vel      x-accl      y-accl      z-accl      x-coor      y-coor      z-coor
    22626 -5.02651E-04 1.63313E-01-3.85971E-01 2.66316E-04 1.91910E-02-8.47141E-02-3.45418E-03-1.43376E-02 9.06041E-03 4.65887E+00-2.80275E+01-4.53677E+01



 n o d a l   p r i n t   o u t   f o r   t i m e  s t e p   10001                              ( at time 4.9994997E+00 )

 nodal point  x-rot      y-rot       z-rot       x-rot vel   y-rot vel   z-rot vel   x-rot acc   y-rot acc   z-rot acc
    22626 -9.85592E-04-6.88674E-05-1.01575E-04-1.57438E-04-1.86681E-05-3.10632E-05 2.06114E-04-1.35937E-04-5.62784E-05



 n o d a l   p r i n t   o u t   f o r   t i m e  s t e p   10202                              ( at time 5.0999896E+00 )

 nodal point  x-disp     y-disp      z-disp      x-vel       y-vel       z-vel      x-accl      y-accl      z-accl      x-coor      y-coor      z-coor
    22626 -5.03568E-04 1.65166E-01-3.94431E-01-8.65793E-04 1.69111E-02-8.29297E-02-1.12659E-02-2.26885E-02 1.77570E-02 4.65887E+00-2.80257E+01-4.53762E+01



 n o d a l   p r i n t   o u t   f o r   t i m e  s t e p   10202                              ( at time 5.0999896E+00 )

 nodal point  x-rot      y-rot       z-rot       x-rot vel   y-rot vel   z-rot vel   x-rot acc   y-rot acc   z-rot acc
    22626 -1.00173E-03-7.02326E-05-1.04326E-04-1.60946E-04-9.16451E-06-2.21509E-05-3.49037E-05 9.45729E-05 8.86891E-05



 n o d a l   p r i n t   o u t   f o r   t i m e  s t e p   10402                              ( at time 5.1999796E+00 )

 nodal point  x-disp     y-disp      z-disp      x-vel       y-vel       z-vel      x-accl      y-accl      z-accl      x-coor      y-coor      z-coor
    22626 -5.45667E-04 1.66738E-01-4.02593E-01-4.36738E-05 1.45471E-02-7.98753E-02 8.22198E-03-2.36415E-02 3.05476E-02 4.65883E+00-2.80241E+01-4.53843E+01



 n o d a l   p r i n t   o u t   f o r   t i m e  s t e p   10402                              ( at time 5.1999796E+00 )

 nodal point  x-rot      y-rot       z-rot       x-rot vel   y-rot vel   z-rot vel   x-rot acc   y-rot acc   z-rot acc
    22626 -1.01783E-03-7.05467E-05-1.06513E-04-1.57366E-04-8.94236E-06-2.92452E-05 3.58041E-05 2.22171E-06-7.09497E-05



 n o d a l   p r i n t   o u t   f o r   t i m e  s t e p   10602                              ( at time 5.2999696E+00 )

 nodal point  x-disp     y-disp      z-disp      x-vel       y-vel       z-vel      x-accl      y-accl      z-accl      x-coor      y-coor      z-coor
    22626 -5.45162E-04 1.68046E-01-4.10369E-01 8.87300E-04 1.17682E-02-7.63292E-02 9.31068E-03-2.77921E-02 3.54638E-02 4.65883E+00-2.80228E+01-4.53921E+01



 n o d a l   p r i n t   o u t   f o r   t i m e  s t e p   10602                              ( at time 5.2999696E+00 )

 nodal point  x-rot      y-rot       z-rot       x-rot vel   y-rot vel   z-rot vel   x-rot acc   y-rot acc   z-rot acc
    22626 -1.03243E-03-7.22404E-05-1.09100E-04-1.39863E-04-1.07768E-05-2.63393E-05 1.75044E-04-1.83457E-05 2.90617E-05



 n o d a l   p r i n t   o u t   f o r   t i m e  s t e p   10802                              ( at time 5.3999596E+00 )

 nodal point  x-disp     y-disp      z-disp      x-vel       y-vel       z-vel      x-accl      y-accl      z-accl      x-coor      y-coor      z-coor
    22626 -5.14114E-04 1.69153E-01-4.17873E-01-5.91724E-05 1.03204E-02-7.41971E-02-9.46569E-03-1.44796E-02 2.13236E-02 4.65886E+00-2.80217E+01-4.53996E+01



 n o d a l   p r i n t   o u t   f o r   t i m e  s t e p   10802                              ( at time 5.3999596E+00 )

 nodal point  x-rot      y-rot       z-rot       x-rot vel   y-rot vel   z-rot vel   x-rot acc   y-rot acc   z-rot acc
    22626 -1.04584E-03-7.33797E-05-1.11382E-04-1.29411E-04-2.26956E-05-2.37359E-05 1.04530E-04-1.19201E-04 2.60361E-05



 n o d a l   p r i n t   o u t   f o r   t i m e  s t e p   11002                              ( at time 5.4999496E+00 )

 nodal point  x-disp     y-disp      z-disp      x-vel       y-vel       z-vel      x-accl      y-accl      z-accl      x-coor      y-coor      z-coor
    22626 -4.37835E-04 1.70008E-01-4.25157E-01 8.70205E-04 7.13097E-03-7.11793E-02 9.29472E-03-3.18974E-02 3.01807E-02 4.65894E+00-2.80208E+01-4.54069E+01



 n o d a l   p r i n t   o u t   f o r   t i m e  s t e p   11002                              ( at time 5.4999496E+00 )

 nodal point  x-rot      y-rot       z-rot       x-rot vel   y-rot vel   z-rot vel   x-rot acc   y-rot acc   z-rot acc
    22626 -1.05778E-03-7.55099E-05-1.14555E-04-1.06540E-04-2.27327E-05-3.62453E-05 2.28741E-04-3.70875E-07-1.25106E-04



 n o d a l   p r i n t   o u t   f o r   t i m e  s t e p   11202                              ( at time 5.5999396E+00 )

 nodal point  x-disp     y-disp      z-disp      x-vel       y-vel       z-vel      x-accl      y-accl      z-accl      x-coor      y-coor      z-coor
    22626 -4.07955E-04 1.70577E-01-4.32089E-01 3.18643E-04 4.10614E-03-6.70558E-02-5.51618E-03-3.02514E-02 4.12399E-02 4.65897E+00-2.80203E+01-4.54138E+01



 n o d a l   p r i n t   o u t   f o r   t i m e  s t e p   11202                              ( at time 5.5999396E+00 )

 nodal point  x-rot      y-rot       z-rot       x-rot vel   y-rot vel   z-rot vel   x-rot acc   y-rot acc   z-rot acc
    22626 -1.06839E-03-7.76657E-05-1.17034E-04-1.00545E-04-1.84442E-05-1.87421E-05 5.99543E-05 4.28893E-05 1.75050E-04



 n o d a l   p r i n t   o u t   f o r   t i m e  s t e p   11402                              ( at time 5.6999296E+00 )

 nodal point  x-disp     y-disp      z-disp      x-vel       y-vel       z-vel      x-accl      y-accl      z-accl      x-coor      y-coor      z-coor
    22626 -3.39444E-04 1.70854E-01-4.38567E-01 8.07559E-04 1.36733E-03-6.26999E-02 4.88963E-03-2.73907E-02 4.35624E-02 4.65904E+00-2.80200E+01-4.54203E+01



 n o d a l   p r i n t   o u t   f o r   t i m e  s t e p   11402                              ( at time 5.6999296E+00 )

 nodal point  x-rot      y-rot       z-rot       x-rot vel   y-rot vel   z-rot vel   x-rot acc   y-rot acc   z-rot acc
    22626 -1.07786E-03-7.97322E-05-1.19624E-04-9.26190E-05-2.08835E-05-2.58450E-05 7.92646E-05-2.43953E-05-7.10354E-05



 n o d a l   p r i n t   o u t   f o r   t i m e  s t e p   11602                              ( at time 5.7999195E+00 )

 nodal point  x-disp     y-disp      z-disp      x-vel       y-vel       z-vel      x-accl      y-accl      z-accl      x-coor      y-coor      z-coor
    22626 -2.81661E-04 1.70879E-01-4.44560E-01 3.63310E-04-1.23196E-03-5.77638E-02-4.44295E-03-2.59956E-02 4.93662E-02 4.65909E+00-2.80200E+01-4.54263E+01



 n o d a l   p r i n t   o u t   f o r   t i m e  s t e p   11602                              ( at time 5.7999195E+00 )

 nodal point  x-rot      y-rot       z-rot       x-rot vel   y-rot vel   z-rot vel   x-rot acc   y-rot acc   z-rot acc
    22626 -1.08612E-03-8.13015E-05-1.21951E-04-7.71255E-05-1.52505E-05-2.14259E-05 1.54950E-04 5.63362E-05 4.41956E-05



 n o d a l   p r i n t   o u t   f o r   t i m e  s t e p   11802                              ( at time 5.8999095E+00 )

 nodal point  x-disp     y-disp      z-disp      x-vel       y-vel       z-vel      x-accl      y-accl      z-accl      x-coor      y-coor      z-coor
    22626 -2.50604E-04 1.70651E-01-4.50196E-01 5.43961E-04-2.86240E-03-5.46991E-02 1.80670E-03-1.63061E-02 3.06505E-02 4.65912E+00-2.80202E+01-4.54319E+01



 n o d a l   p r i n t   o u t   f o r   t i m e  s t e p   11802                              ( at time 5.8999095E+00 )

 nodal point  x-rot      y-rot       z-rot       x-rot vel   y-rot vel   z-rot vel   x-rot acc   y-rot acc   z-rot acc
    22626 -1.09306E-03-8.28809E-05-1.23486E-04-6.71997E-05-1.98896E-05-1.97711E-05 9.92682E-05-4.63963E-05 1.65490E-05



 n o d a l   p r i n t   o u t   f o r   t i m e  s t e p   12002                              ( at time 5.9998995E+00 )

 nodal point  x-disp     y-disp      z-disp      x-vel       y-vel       z-vel      x-accl      y-accl      z-accl      x-coor      y-coor      z-coor
    22626 -2.29777E-04 1.70308E-01-4.55516E-01-1.44561E-04-3.55562E-03-5.10431E-02-6.88592E-03-6.93281E-03 3.65631E-02 4.65915E+00-2.80205E+01-4.54372E+01



 n o d a l   p r i n t   o u t   f o r   t i m e  s t e p   12002                              ( at time 5.9998995E+00 )

 nodal point  x-rot      y-rot       z-rot       x-rot vel   y-rot vel   z-rot vel   x-rot acc   y-rot acc   z-rot acc
    22626 -1.09904E-03-8.39115E-05-1.25575E-04-6.38298E-05-1.05631E-05-1.17930E-05 3.37028E-05 9.32742E-05 7.97894E-05



 n o d a l   p r i n t   o u t   f o r   t i m e  s t e p   12202                              ( at time 6.0998895E+00 )

 nodal point  x-disp     y-disp      z-disp      x-vel       y-vel       z-vel      x-accl      y-accl      z-accl      x-coor      y-coor      z-coor
    22626 -2.65285E-04 1.69822E-01-4.60427E-01-2.51244E-04-5.08013E-03-4.72932E-02-1.06693E-03-1.52466E-02 3.75027E-02 4.65911E+00-2.80210E+01-4.54421E+01



 n o d a l   p r i n t   o u t   f o r   t i m e  s t e p   12202                              ( at time 6.0998895E+00 )

 nodal point  x-rot      y-rot       z-rot       x-rot vel   y-rot vel   z-rot vel   x-rot acc   y-rot acc   z-rot acc
    22626 -1.10530E-03-8.47122E-05-1.27012E-04-7.60195E-05-7.64971E-06-1.41333E-05-1.21908E-04 2.91371E-05-2.34057E-05



 n o d a l   p r i n t   o u t   f o r   t i m e  s t e p   12402                              ( at time 6.1998795E+00 )

 nodal point  x-disp     y-disp      z-disp      x-vel       y-vel       z-vel      x-accl      y-accl      z-accl      x-coor      y-coor      z-coor
    22626 -3.44726E-04 1.69319E-01-4.64959E-01-9.10832E-04-4.80415E-03-4.36151E-02-6.59655E-03 2.76001E-03 3.67850E-02 4.65903E+00-2.80215E+01-4.54467E+01



 n o d a l   p r i n t   o u t   f o r   t i m e  s t e p   12402                              ( at time 6.1998795E+00 )

 nodal point  x-rot      y-rot       z-rot       x-rot vel   y-rot vel   z-rot vel   x-rot acc   y-rot acc   z-rot acc
    22626 -1.11143E-03-8.56258E-05-1.28989E-04-6.13555E-05-1.13270E-05-1.56019E-05 1.46654E-04-3.67770E-05-1.46866E-05



 n o d a l   p r i n t   o u t   f o r   t i m e  s t e p   12602                              ( at time 6.2998695E+00 )

 nodal point  x-disp     y-disp      z-disp      x-vel       y-vel       z-vel      x-accl      y-accl      z-accl      x-coor      y-coor      z-coor
    22626 -4.12833E-04 1.68911E-01-4.69250E-01-8.54389E-04-3.32498E-03-4.23339E-02 5.64487E-04 1.47933E-02 1.28132E-02 4.65896E+00-2.80219E+01-4.54510E+01



 n o d a l   p r i n t   o u t   f o r   t i m e  s t e p   12602                              ( at time 6.2998695E+00 )

 nodal point  x-rot      y-rot       z-rot       x-rot vel   y-rot vel   z-rot vel   x-rot acc   y-rot acc   z-rot acc
    22626 -1.11663E-03-8.61861E-05-1.31086E-04-5.16965E-05-1.27351E-05-2.24558E-05 9.66001E-05-1.40822E-05-6.85468E-05



 n o d a l   p r i n t   o u t   f o r   t i m e  s t e p   12802                              ( at time 6.3998595E+00 )

 nodal point  x-disp     y-disp      z-disp      x-vel       y-vel       z-vel      x-accl      y-accl      z-accl      x-coor      y-coor      z-coor
    22626 -4.64366E-04 1.68643E-01-4.73378E-01 8.76104E-05-1.67990E-03-3.96423E-02 9.42094E-03 1.64524E-02 2.69186E-02 4.65891E+00-2.80222E+01-4.54551E+01



 n o d a l   p r i n t   o u t   f o r   t i m e  s t e p   12802                              ( at time 6.3998595E+00 )

 nodal point  x-rot      y-rot       z-rot       x-rot vel   y-rot vel   z-rot vel   x-rot acc   y-rot acc   z-rot acc
    22626 -1.12111E-03-8.77023E-05-1.33670E-04-4.92376E-05-1.49167E-05-2.75529E-05 2.45909E-05-2.18184E-05-5.09754E-05



 n o d a l   p r i n t   o u t   f o r   t i m e  s t e p   13002                              ( at time 6.4998495E+00 )

 nodal point  x-disp     y-disp      z-disp      x-vel       y-vel       z-vel      x-accl      y-accl      z-accl      x-coor      y-coor      z-coor
    22626 -5.17776E-04 1.68551E-01-4.77119E-01-6.55635E-04 2.36979E-04-3.53060E-02-7.43320E-03 1.91708E-02 4.33672E-02 4.65886E+00-2.80223E+01-4.54588E+01



 n o d a l   p r i n t   o u t   f o r   t i m e  s t e p   13002                              ( at time 6.4998495E+00 )

 nodal point  x-rot      y-rot       z-rot       x-rot vel   y-rot vel   z-rot vel   x-rot acc   y-rot acc   z-rot acc
    22626 -1.12707E-03-8.99629E-05-1.36183E-04-8.24017E-05-1.73225E-05-1.67684E-05-3.31675E-04-2.40599E-05 1.07856E-04



 n o d a l   p r i n t   o u t   f o r   t i m e  s t e p   13202                              ( at time 6.5998395E+00 )

 nodal point  x-disp     y-disp      z-disp      x-vel       y-vel       z-vel      x-accl      y-accl      z-accl      x-coor      y-coor      z-coor
    22626 -5.63706E-04 1.68772E-01-4.80457E-01-8.45117E-04 4.25434E-03-3.19608E-02-1.89500E-03 4.01775E-02 3.34552E-02 4.65881E+00-2.80221E+01-4.54622E+01



 n o d a l   p r i n t   o u t   f o r   t i m e  s t e p   13202                              ( at time 6.5998395E+00 )

 nodal point  x-rot      y-rot       z-rot       x-rot vel   y-rot vel   z-rot vel   x-rot acc   y-rot acc   z-rot acc
    22626 -1.13531E-03-9.16999E-05-1.39118E-04-9.76735E-05-1.32861E-05-3.06174E-05-1.52732E-04 4.03673E-05-1.38504E-04



 n o d a l   p r i n t   o u t   f o r   t i m e  s t e p   13402                              ( at time 6.6998295E+00 )

 nodal point  x-disp     y-disp      z-disp      x-vel       y-vel       z-vel      x-accl      y-accl      z-accl      x-coor      y-coor      z-coor
    22626 -7.01786E-04 1.69404E-01-4.83532E-01-1.49316E-03 8.52154E-03-2.96175E-02-6.48107E-03 4.26763E-02 2.34360E-02 4.65867E+00-2.80214E+01-4.54653E+01



 n o d a l   p r i n t   o u t   f o r   t i m e  s t e p   13402                              ( at time 6.6998295E+00 )

 nodal point  x-rot      y-rot       z-rot       x-rot vel   y-rot vel   z-rot vel   x-rot acc   y-rot acc   z-rot acc
    22626 -1.14547E-03-9.35323E-05-1.42077E-04-1.28220E-04-2.16887E-05-3.57656E-05-3.05496E-04-8.40339E-05-5.14868E-05



 n o d a l   p r i n t   o u t   f o r   t i m e  s t e p   13602                              ( at time 6.7998195E+00 )

 nodal point  x-disp     y-disp      z-disp      x-vel       y-vel       z-vel      x-accl      y-accl      z-accl      x-coor      y-coor      z-coor
    22626 -8.68107E-04 1.70557E-01-4.86365E-01-2.00112E-03 1.49554E-02-2.71024E-02-5.08013E-03 6.43448E-02 2.51535E-02 4.65851E+00-2.80203E+01-4.54681E+01



 n o d a l   p r i n t   o u t   f o r   t i m e  s t e p   13602                              ( at time 6.7998195E+00 )

 nodal point  x-rot      y-rot       z-rot       x-rot vel   y-rot vel   z-rot vel   x-rot acc   y-rot acc   z-rot acc
    22626 -1.15948E-03-9.58596E-05-1.45928E-04-1.68477E-04-3.11309E-05-4.81671E-05-4.02610E-04-9.44313E-05-1.24028E-04



 n o d a l   p r i n t   o u t   f o r   t i m e  s t e p   13802                              ( at time 6.8998095E+00 )

 nodal point  x-disp     y-disp      z-disp      x-vel       y-vel       z-vel      x-accl      y-accl      z-accl      x-coor      y-coor      z-coor
    22626 -1.04466E-03 1.72450E-01-4.88997E-01-1.70965E-03 2.32353E-02-2.51621E-02 2.91497E-03 8.28077E-02 1.94045E-02 4.65833E+00-2.80184E+01-4.54707E+01



 n o d a l   p r i n t   o u t   f o r   t i m e  s t e p   13802                              ( at time 6.8998095E+00 )

 nodal point  x-rot      y-rot       z-rot       x-rot vel   y-rot vel   z-rot vel   x-rot acc   y-rot acc   z-rot acc
    22626 -1.17832E-03-9.85888E-05-1.50614E-04-2.17259E-04-3.32304E-05-4.86190E-05-4.87873E-04-2.09980E-05-4.51985E-06



 n o d a l   p r i n t   o u t   f o r   t i m e  s t e p   14002                              ( at time 6.9997995E+00 )

 nodal point  x-disp     y-disp      z-disp      x-vel       y-vel       z-vel      x-accl      y-accl      z-accl      x-coor      y-coor      z-coor
    22626 -1.21468E-03 1.75210E-01-4.91402E-01-1.67828E-03 3.18252E-02-2.32088E-02 3.13786E-04 8.59076E-02 1.95354E-02 4.65816E+00-2.80156E+01-4.54731E+01



 n o d a l   p r i n t   o u t   f o r   t i m e  s t e p   14002                              ( at time 6.9997995E+00 )

 nodal point  x-rot      y-rot       z-rot       x-rot vel   y-rot vel   z-rot vel   x-rot acc   y-rot acc   z-rot acc
    22626 -1.20323E-03-1.02437E-04-1.55654E-04-2.94792E-04-4.26175E-05-5.73786E-05-7.75407E-04-9.38798E-05-8.76047E-05



 n o d a l   p r i n t   o u t   f o r   t i m e  s t e p   14202                              ( at time 7.0997895E+00 )

 nodal point  x-disp     y-disp      z-disp      x-vel       y-vel       z-vel      x-accl      y-accl      z-accl      x-coor      y-coor      z-coor
    22626 -1.40089E-03 1.78932E-01-4.93569E-01-1.97510E-03 4.30499E-02-2.06686E-02-2.96854E-03 1.12258E-01 2.54039E-02 4.65797E+00-2.80119E+01-4.54753E+01



 n o d a l   p r i n t   o u t   f o r   t i m e  s t e p   14202                              ( at time 7.0997895E+00 )

 nodal point  x-rot      y-rot       z-rot       x-rot vel   y-rot vel   z-rot vel   x-rot acc   y-rot acc   z-rot acc
    22626 -1.23512E-03-1.06711E-04-1.61185E-04-3.52840E-04-4.65212E-05-5.10479E-05-5.80532E-04-3.90405E-05 6.33131E-05



 n o d a l   p r i n t   o u t   f o r   t i m e  s t e p   14402                              ( at time 7.1997794E+00 )

 nodal point  x-disp     y-disp      z-disp      x-vel       y-vel       z-vel      x-accl      y-accl      z-accl      x-coor      y-coor      z-coor
    22626 -1.58408E-03 1.83885E-01-4.95639E-01-1.88250E-03 5.56035E-02-2.04573E-02 9.26119E-04 1.25548E-01 2.11320E-03 4.65779E+00-2.80069E+01-4.54774E+01



 n o d a l   p r i n t   o u t   f o r   t i m e  s t e p   14402                              ( at time 7.1997794E+00 )

 nodal point  x-rot      y-rot       z-rot       x-rot vel   y-rot vel   z-rot vel   x-rot acc   y-rot acc   z-rot acc
    22626 -1.27465E-03-1.11287E-04-1.66429E-04-4.35574E-04-5.15433E-05-6.61897E-05-8.27422E-04-5.02268E-05-1.51433E-04



 n o d a l   p r i n t   o u t   f o r   t i m e  s t e p   14602                              ( at time 7.2997694E+00 )

 nodal point  x-disp     y-disp      z-disp      x-vel       y-vel       z-vel      x-accl      y-accl      z-accl      x-coor      y-coor      z-coor
    22626 -1.79330E-03 1.90100E-01-4.97601E-01-2.21417E-03 6.90839E-02-1.84143E-02-3.31703E-03 1.34818E-01 2.04324E-02 4.65758E+00-2.80007E+01-4.54793E+01



 n o d a l   p r i n t   o u t   f o r   t i m e  s t e p   14602                              ( at time 7.2997694E+00 )

 nodal point  x-rot      y-rot       z-rot       x-rot vel   y-rot vel   z-rot vel   x-rot acc   y-rot acc   z-rot acc
    22626 -1.32258E-03-1.16668E-04-1.72827E-04-5.25722E-04-4.98801E-05-6.60117E-05-9.01576E-04 1.66334E-05 1.78002E-06



 n o d a l   p r i n t   o u t   f o r   t i m e  s t e p   14802                              ( at time 7.3997594E+00 )

 nodal point  x-disp     y-disp      z-disp      x-vel       y-vel       z-vel      x-accl      y-accl      z-accl      x-coor      y-coor      z-coor
    22626 -2.03827E-03 1.97703E-01-4.99311E-01-2.41158E-03 8.34014E-02-1.60696E-02-1.97431E-03 1.43190E-01 2.34495E-02 4.65734E+00-2.79931E+01-4.54810E+01



 n o d a l   p r i n t   o u t   f o r   t i m e  s t e p   14802                              ( at time 7.3997594E+00 )

 nodal point  x-rot      y-rot       z-rot       x-rot vel   y-rot vel   z-rot vel   x-rot acc   y-rot acc   z-rot acc
    22626 -1.37977E-03-1.21941E-04-1.79369E-04-6.26310E-04-5.14339E-05-6.61366E-05-1.00598E-03-1.55389E-05-1.24897E-06



 n o d a l   p r i n t   o u t   f o r   t i m e  s t e p   15002                              ( at time 7.4997494E+00 )

 nodal point  x-disp     y-disp      z-disp      x-vel       y-vel       z-vel      x-accl      y-accl      z-accl      x-coor      y-coor      z-coor
    22626 -2.29598E-03 2.06911E-01-5.00901E-01-2.87730E-03 1.00888E-01-1.58744E-02-4.65761E-03 1.74878E-01 1.95217E-03 4.65708E+00-2.79839E+01-4.54826E+01



 n o d a l   p r i n t   o u t   f o r   t i m e  s t e p   15002                              ( at time 7.4997494E+00 )

 nodal point  x-rot      y-rot       z-rot       x-rot vel   y-rot vel   z-rot vel   x-rot acc   y-rot acc   z-rot acc
    22626 -1.44787E-03-1.26890E-04-1.86095E-04-7.34585E-04-4.40332E-05-7.19806E-05-1.08285E-03 7.40137E-05-5.84463E-05



 n o d a l   p r i n t   o u t   f o r   t i m e  s t e p   15202                              ( at time 7.5997394E+00 )

 nodal point  x-disp     y-disp      z-disp      x-vel       y-vel       z-vel      x-accl      y-accl      z-accl      x-coor      y-coor      z-coor
    22626 -2.60463E-03 2.17841E-01-5.02462E-01-3.40424E-03 1.18882E-01-1.50273E-02-5.26994E-03 1.79967E-01 8.47204E-03 4.65677E+00-2.79730E+01-4.54842E+01



 n o d a l   p r i n t   o u t   f o r   t i m e  s t e p   15202                              ( at time 7.5997394E+00 )

 nodal point  x-rot      y-rot       z-rot       x-rot vel   y-rot vel   z-rot vel   x-rot acc   y-rot acc   z-rot acc
    22626 -1.52652E-03-1.31338E-04-1.92828E-04-8.36397E-04-5.24457E-05-6.88356E-05-1.01822E-03-8.41331E-05 3.14539E-05



 n o d a l   p r i n t   o u t   f o r   t i m e  s t e p   15402                              ( at time 7.6997294E+00 )

 nodal point  x-disp     y-disp      z-disp      x-vel       y-vel       z-vel      x-accl      y-accl      z-accl      x-coor      y-coor      z-coor
    22626 -2.93340E-03 2.30701E-01-5.04051E-01-3.61023E-03 1.38523E-01-1.59061E-02-2.06018E-03 1.96425E-01-8.78911E-03 4.65644E+00-2.79601E+01-4.54858E+01



 n o d a l   p r i n t   o u t   f o r   t i m e  s t e p   15402                              ( at time 7.6997294E+00 )

 nodal point  x-rot      y-rot       z-rot       x-rot vel   y-rot vel   z-rot vel   x-rot acc   y-rot acc   z-rot acc
    22626 -1.61788E-03-1.37029E-04-2.00401E-04-9.74261E-04-4.86761E-05-6.98698E-05-1.37879E-03 3.76999E-05-1.03435E-05



 n o d a l   p r i n t   o u t   f o r   t i m e  s t e p   15602                              ( at time 7.7997194E+00 )

 nodal point  x-disp     y-disp      z-disp      x-vel       y-vel       z-vel      x-accl      y-accl      z-accl      x-coor      y-coor      z-coor
    22626 -3.30551E-03 2.45608E-01-5.05730E-01-3.93314E-03 1.60114E-01-1.75942E-02-3.22936E-03 2.15928E-01-1.68824E-02 4.65607E+00-2.79452E+01-4.54874E+01



 n o d a l   p r i n t   o u t   f o r   t i m e  s t e p   15602                              ( at time 7.7997194E+00 )

 nodal point  x-rot      y-rot       z-rot       x-rot vel   y-rot vel   z-rot vel   x-rot acc   y-rot acc   z-rot acc
    22626 -1.72273E-03-1.41681E-04-2.07587E-04-1.11804E-03-3.91187E-05-6.96281E-05-1.43792E-03 9.55837E-05 2.41761E-06



 n o d a l   p r i n t   o u t   f o r   t i m e  s t e p   15802                              ( at time 7.8997094E+00 )

 nodal point  x-disp     y-disp      z-disp      x-vel       y-vel       z-vel      x-accl      y-accl      z-accl      x-coor      y-coor      z-coor
    22626 -3.72274E-03 2.62768E-01-5.07516E-01-4.51191E-03 1.82793E-01-1.85170E-02-5.78830E-03 2.26820E-01-9.22954E-03 4.65565E+00-2.79281E+01-4.54892E+01



 n o d a l   p r i n t   o u t   f o r   t i m e  s t e p   15802                              ( at time 7.8997094E+00 )

 nodal point  x-rot      y-rot       z-rot       x-rot vel   y-rot vel   z-rot vel   x-rot acc   y-rot acc   z-rot acc
    22626 -1.84107E-03-1.46687E-04-2.15531E-04-1.25554E-03-5.47739E-05-8.96292E-05-1.37516E-03-1.56568E-04-2.00032E-04



 n o d a l   p r i n t   o u t   f o r   t i m e  s t e p   16002                              ( at time 7.9996994E+00 )

 nodal point  x-disp     y-disp      z-disp      x-vel       y-vel       z-vel      x-accl      y-accl      z-accl      x-coor      y-coor      z-coor
    22626 -4.21829E-03 2.82292E-01-5.09464E-01-5.46528E-03 2.07761E-01-2.13892E-02-9.53462E-03 2.49697E-01-2.87244E-02 4.65516E+00-2.79085E+01-4.54912E+01



 n o d a l   p r i n t   o u t   f o r   t i m e  s t e p   16002                              ( at time 7.9996994E+00 )

 nodal point  x-rot      y-rot       z-rot       x-rot vel   y-rot vel   z-rot vel   x-rot acc   y-rot acc   z-rot acc
    22626 -1.97349E-03-1.52189E-04-2.24487E-04-1.39869E-03-5.53412E-05-8.53726E-05-1.43165E-03-5.67390E-06 4.25703E-05



 n o d a l   p r i n t   o u t   f o r   t i m e  s t e p   16202                              ( at time 8.0996894E+00 )

 nodal point  x-disp     y-disp      z-disp      x-vel       y-vel       z-vel      x-accl      y-accl      z-accl      x-coor      y-coor      z-coor
    22626 -4.74747E-03 3.04332E-01-5.11750E-01-5.26335E-03 2.33563E-01-2.38971E-02 2.01952E-03 2.58051E-01-2.50814E-02 4.65463E+00-2.78865E+01-4.54935E+01



 n o d a l   p r i n t   o u t   f o r   t i m e  s t e p   16202                              ( at time 8.0996894E+00 )

 nodal point  x-rot      y-rot       z-rot       x-rot vel   y-rot vel   z-rot vel   x-rot acc   y-rot acc   z-rot acc
    22626 -2.12070E-03-1.58149E-04-2.33772E-04-1.54691E-03-6.44226E-05-9.71587E-05-1.48228E-03-9.08228E-05-1.17873E-04



 n o d a l   p r i n t   o u t   f o r   t i m e  s t e p   16402                              ( at time 8.1996794E+00 )

 nodal point  x-disp     y-disp      z-disp      x-vel       y-vel       z-vel      x-accl      y-accl      z-accl      x-coor      y-coor      z-coor
    22626 -5.28592E-03 3.28998E-01-5.14223E-01-5.62882E-03 2.59617E-01-2.49312E-02-3.65504E-03 2.60566E-01-1.03421E-02 4.65409E+00-2.78618E+01-4.54959E+01



 n o d a l   p r i n t   o u t   f o r   t i m e  s t e p   16402                              ( at time 8.1996794E+00 )

 nodal point  x-rot      y-rot       z-rot       x-rot vel   y-rot vel   z-rot vel   x-rot acc   y-rot acc   z-rot acc
    22626 -2.28479E-03-1.65131E-04-2.44400E-04-1.71918E-03-6.96962E-05-1.04873E-04-1.72294E-03-5.27414E-05-7.71491E-05



 n o d a l   p r i n t   o u t   f o r   t i m e  s t e p   16602                              ( at time 8.2996694E+00 )

 nodal point  x-disp     y-disp      z-disp      x-vel       y-vel       z-vel      x-accl      y-accl      z-accl      x-coor      y-coor      z-coor
    22626 -5.89059E-03 3.56328E-01-5.16906E-01-6.05125E-03 2.87597E-01-2.87294E-02-4.22481E-03 2.79824E-01-3.79862E-02 4.65348E+00-2.78345E+01-4.54986E+01



 n o d a l   p r i n t   o u t   f o r   t i m e  s t e p   16602                              ( at time 8.2996694E+00 )

 nodal point  x-rot      y-rot       z-rot       x-rot vel   y-rot vel   z-rot vel   x-rot acc   y-rot acc   z-rot acc
    22626 -2.46527E-03-1.72367E-04-2.55416E-04-1.88719E-03-7.72039E-05-1.16021E-04-1.68024E-03-7.50846E-05-1.11494E-04



 n o d a l   p r i n t   o u t   f o r   t i m e  s t e p   16802                              ( at time 8.3996594E+00 )

 nodal point  x-disp     y-disp      z-disp      x-vel       y-vel       z-vel      x-accl      y-accl      z-accl      x-coor      y-coor      z-coor
    22626 -6.51680E-03 3.86530E-01-5.19940E-01-6.87638E-03 3.16283E-01-3.18335E-02-8.25207E-03 2.86889E-01-3.10443E-02 4.65286E+00-2.78043E+01-4.55017E+01



 n o d a l   p r i n t   o u t   f o r   t i m e  s t e p   16802                              ( at time 8.3996594E+00 )

 nodal point  x-rot      y-rot       z-rot       x-rot vel   y-rot vel   z-rot vel   x-rot acc   y-rot acc   z-rot acc
    22626 -2.66271E-03-1.79873E-04-2.67404E-04-2.07453E-03-7.73875E-05-1.20039E-04-1.87360E-03-1.83664E-06-4.01839E-05



 n o d a l   p r i n t   o u t   f o r   t i m e  s t e p   17002                              ( at time 8.4996494E+00 )

 nodal point  x-disp     y-disp      z-disp      x-vel       y-vel       z-vel      x-accl      y-accl      z-accl      x-coor      y-coor      z-coor
    22626 -7.25127E-03 4.19671E-01-5.23306E-01-7.17211E-03 3.46600E-01-3.51341E-02-2.95766E-03 3.03199E-01-3.30085E-02 4.65212E+00-2.77712E+01-4.55050E+01



 n o d a l   p r i n t   o u t   f o r   t i m e  s t e p   17002                              ( at time 8.4996494E+00 )

 nodal point  x-rot      y-rot       z-rot       x-rot vel   y-rot vel   z-rot vel   x-rot acc   y-rot acc   z-rot acc
    22626 -2.87925E-03-1.86883E-04-2.79240E-04-2.25842E-03-6.88198E-05-1.23782E-04-1.83905E-03 8.56863E-05-3.74335E-05



 n o d a l   p r i n t   o u t   f o r   t i m e  s t e p   17202                              ( at time 8.5996394E+00 )

 nodal point  x-disp     y-disp      z-disp      x-vel       y-vel       z-vel      x-accl      y-accl      z-accl      x-coor      y-coor      z-coor
    22626 -7.98656E-03 4.55879E-01-5.27007E-01-7.45371E-03 3.77972E-01-3.84523E-02-2.81623E-03 3.13756E-01-3.31863E-02 4.65139E+00-2.77350E+01-4.55087E+01



 n o d a l   p r i n t   o u t   f o r   t i m e  s t e p   17202                              ( at time 8.5996394E+00 )

 nodal point  x-rot      y-rot       z-rot       x-rot vel   y-rot vel   z-rot vel   x-rot acc   y-rot acc   z-rot acc
    22626 -3.11530E-03-1.93908E-04-2.90922E-04-2.46871E-03-6.12337E-05-1.08507E-04-2.10310E-03 7.58684E-05 1.52768E-04



 n o d a l   p r i n t   o u t   f o r   t i m e  s t e p   17402                              ( at time 8.6996293E+00 )

 nodal point  x-disp     y-disp      z-disp      x-vel       y-vel       z-vel      x-accl      y-accl      z-accl      x-coor      y-coor      z-coor
    22626 -8.71921E-03 4.95266E-01-5.30985E-01-7.51450E-03 4.09778E-01-4.07608E-02-6.07990E-04 3.18089E-01-2.30871E-02 4.65066E+00-2.76956E+01-4.55127E+01



 n o d a l   p r i n t   o u t   f o r   t i m e  s t e p   17402                              ( at time 8.6996293E+00 )

 nodal point  x-rot      y-rot       z-rot       x-rot vel   y-rot vel   z-rot vel   x-rot acc   y-rot acc   z-rot acc
    22626 -3.37141E-03-2.00197E-04-3.01792E-04-2.66285E-03-6.47715E-05-1.06470E-04-1.94163E-03-3.53816E-05 2.03654E-05



 n o d a l   p r i n t   o u t   f o r   t i m e  s t e p   17602                              ( at time 8.7996193E+00 )

 nodal point  x-disp     y-disp      z-disp      x-vel       y-vel       z-vel      x-accl      y-accl      z-accl      x-coor      y-coor      z-coor
    22626 -9.42117E-03 5.37836E-01-5.35157E-01-6.79970E-03 4.42158E-01-4.28251E-02 7.14872E-03 3.23837E-01-2.06441E-02 4.64995E+00-2.76530E+01-4.55169E+01



 n o d a l   p r i n t   o u t   f o r   t i m e  s t e p   17602                              ( at time 8.7996193E+00 )

 nodal point  x-rot      y-rot       z-rot       x-rot vel   y-rot vel   z-rot vel   x-rot acc   y-rot acc   z-rot acc
    22626 -3.64767E-03-2.07489E-04-3.13222E-04-2.86816E-03-7.57554E-05-1.15326E-04-2.05329E-03-1.09849E-04-8.85670E-05



 n o d a l   p r i n t   o u t   f o r   t i m e  s t e p   17802                              ( at time 8.8996093E+00 )

 nodal point  x-disp     y-disp      z-disp      x-vel       y-vel       z-vel      x-accl      y-accl      z-accl      x-coor      y-coor      z-coor
    22626 -1.01473E-02 5.83752E-01-5.39634E-01-7.43075E-03 4.75620E-01-4.63109E-02-6.31112E-03 3.34651E-01-3.48622E-02 4.64923E+00-2.76071E+01-4.55214E+01



 n o d a l   p r i n t   o u t   f o r   t i m e  s t e p   17802                              ( at time 8.8996093E+00 )

 nodal point  x-rot      y-rot       z-rot       x-rot vel   y-rot vel   z-rot vel   x-rot acc   y-rot acc   z-rot acc
    22626 -3.94481E-03-2.15109E-04-3.24807E-04-3.08326E-03-8.35358E-05-1.22119E-04-2.15124E-03-7.78122E-05-6.79349E-05



 n o d a l   p r i n t   o u t   f o r   t i m e  s t e p   18002                              ( at time 8.9995993E+00 )

 nodal point  x-disp     y-disp      z-disp      x-vel       y-vel       z-vel      x-accl      y-accl      z-accl      x-coor      y-coor      z-coor
    22626 -1.08782E-02 6.32976E-01-5.44337E-01-7.45102E-03 5.09075E-01-4.76946E-02-2.02723E-04 3.34579E-01-1.38380E-02 4.64850E+00-2.75579E+01-4.55261E+01



 n o d a l   p r i n t   o u t   f o r   t i m e  s t e p   18002                              ( at time 8.9995993E+00 )

 nodal point  x-rot      y-rot       z-rot       x-rot vel   y-rot vel   z-rot vel   x-rot acc   y-rot acc   z-rot acc
    22626 -4.26381E-03-2.22721E-04-3.36949E-04-3.30499E-03-7.64977E-05-1.20724E-04-2.21750E-03 7.03883E-05 1.39563E-05



 n o d a l   p r i n t   o u t   f o r   t i m e  s t e p   18202                              ( at time 9.0995893E+00 )

 nodal point  x-disp     y-disp      z-disp      x-vel       y-vel       z-vel      x-accl      y-accl      z-accl      x-coor      y-coor      z-coor
    22626 -1.16718E-02 6.85570E-01-5.49194E-01-8.05915E-03 5.43239E-01-4.92327E-02-6.08191E-03 3.41679E-01-1.53828E-02 4.64770E+00-2.75053E+01-4.55309E+01



 n o d a l   p r i n t   o u t   f o r   t i m e  s t e p   18202                              ( at time 9.0995893E+00 )

 nodal point  x-rot      y-rot       z-rot       x-rot vel   y-rot vel   z-rot vel   x-rot acc   y-rot acc   z-rot acc
    22626 -4.60551E-03-2.30718E-04-3.49172E-04-3.53095E-03-8.63784E-05-1.24001E-04-2.25986E-03-9.88173E-05-3.27776E-05



 n o d a l   p r i n t   o u t   f o r   t i m e  s t e p   18402                              ( at time 9.1995793E+00 )

 nodal point  x-disp     y-disp      z-disp      x-vel       y-vel       z-vel      x-accl      y-accl      z-accl      x-coor      y-coor      z-coor
    22626 -1.25064E-02 7.41638E-01-5.54172E-01-8.09454E-03 5.77802E-01-5.06915E-02-3.53938E-04 3.45658E-01-1.45890E-02 4.64687E+00-2.74492E+01-4.55359E+01



 n o d a l   p r i n t   o u t   f o r   t i m e  s t e p   18402                              ( at time 9.1995793E+00 )

 nodal point  x-rot      y-rot       z-rot       x-rot vel   y-rot vel   z-rot vel   x-rot acc   y-rot acc   z-rot acc
    22626 -4.96940E-03-2.39805E-04-3.62110E-04-3.76305E-03-8.83743E-05-1.30056E-04-2.32121E-03-1.99613E-05-6.05587E-05



 n o d a l   p r i n t   o u t   f o r   t i m e  s t e p   18602                              ( at time 9.2995693E+00 )

 nodal point  x-disp     y-disp      z-disp      x-vel       y-vel       z-vel      x-accl      y-accl      z-accl      x-coor      y-coor      z-coor
    22626 -1.33401E-02 8.01164E-01-5.59259E-01-8.61957E-03 6.13034E-01-5.14978E-02-5.25078E-03 3.52357E-01-8.06383E-03 4.64603E+00-2.73897E+01-4.55410E+01



 n o d a l   p r i n t   o u t   f o r   t i m e  s t e p   18602                              ( at time 9.2995693E+00 )

 nodal point  x-rot      y-rot       z-rot       x-rot vel   y-rot vel   z-rot vel   x-rot acc   y-rot acc   z-rot acc
    22626 -5.35629E-03-2.48899E-04-3.75912E-04-3.98678E-03-9.54284E-05-1.33950E-04-2.23751E-03-7.05478E-05-3.89390E-05



 n o d a l   p r i n t   o u t   f o r   t i m e  s t e p   18802                              ( at time 9.3995593E+00 )

 nodal point  x-disp     y-disp      z-disp      x-vel       y-vel       z-vel      x-accl      y-accl      z-accl      x-coor      y-coor      z-coor
    22626 -1.41806E-02 8.64213E-01-5.64463E-01-8.38785E-03 6.47805E-01-5.25739E-02 2.31736E-03 3.47745E-01-1.07629E-02 4.64519E+00-2.73266E+01-4.55462E+01



 n o d a l   p r i n t   o u t   f o r   t i m e  s t e p   18802                              ( at time 9.3995593E+00 )

 nodal point  x-rot      y-rot       z-rot       x-rot vel   y-rot vel   z-rot vel   x-rot acc   y-rot acc   z-rot acc
    22626 -5.76551E-03-2.58915E-04-3.89590E-04-4.20235E-03-1.02062E-04-1.39271E-04-2.15592E-03-6.63378E-05-5.32162E-05



 n o d a l   p r i n t   o u t   f o r   t i m e  s t e p   19002                              ( at time 9.4995493E+00 )

 nodal point  x-disp     y-disp      z-disp      x-vel       y-vel       z-vel      x-accl      y-accl      z-accl      x-coor      y-coor      z-coor
    22626 -1.50919E-02 9.30856E-01-5.69793E-01-9.98722E-03 6.84676E-01-5.31875E-02-1.59953E-02 3.68756E-01-6.13576E-03 4.64428E+00-2.72600E+01-4.55515E+01



 n o d a l   p r i n t   o u t   f o r   t i m e  s t e p   19002                              ( at time 9.4995493E+00 )

 nodal point  x-rot      y-rot       z-rot       x-rot vel   y-rot vel   z-rot vel   x-rot acc   y-rot acc   z-rot acc
    22626 -6.19774E-03-2.70134E-04-4.04558E-04-4.43481E-03-1.17941E-04-1.61800E-04-2.32481E-03-1.58809E-04-2.25319E-04



 n o d a l   p r i n t   o u t   f o r   t i m e  s t e p   19202                              ( at time 9.5995393E+00 )

 nodal point  x-disp     y-disp      z-disp      x-vel       y-vel       z-vel      x-accl      y-accl      z-accl      x-coor      y-coor      z-coor
    22626 -1.61135E-02 1.00102E+00-5.75070E-01-1.01857E-02 7.19086E-01-5.27777E-02-1.98538E-03 3.44123E-01 4.09760E-03 4.64326E+00-2.71898E+01-4.55568E+01



 n o d a l   p r i n t   o u t   f o r   t i m e  s t e p   19202                              ( at time 9.5995393E+00 )

 nodal point  x-rot      y-rot       z-rot       x-rot vel   y-rot vel   z-rot vel   x-rot acc   y-rot acc   z-rot acc
    22626 -6.65181E-03-2.81972E-04-4.20611E-04-4.64326E-03-1.15257E-04-1.54122E-04-2.08476E-03 2.68454E-05 7.67898E-05



 n o d a l   p r i n t   o u t   f o r   t i m e  s t e p   19402                              ( at time 9.6995293E+00 )

 nodal point  x-disp     y-disp      z-disp      x-vel       y-vel       z-vel      x-accl      y-accl      z-accl      x-coor      y-coor      z-coor
    22626 -1.71060E-02 1.07478E+00-5.80443E-01-1.02808E-02 7.56377E-01-5.43560E-02-9.50427E-04 3.72948E-01-1.57840E-02 4.64227E+00-2.71161E+01-4.55622E+01



 n o d a l   p r i n t   o u t   f o r   t i m e  s t e p   19402                              ( at time 9.6995293E+00 )

 nodal point  x-rot      y-rot       z-rot       x-rot vel   y-rot vel   z-rot vel   x-rot acc   y-rot acc   z-rot acc
    22626 -7.12729E-03-2.93054E-04-4.35905E-04-4.86794E-03-1.13883E-04-1.63198E-04-2.24704E-03 1.37396E-05-9.07687E-05



 n o d a l   p r i n t   o u t   f o r   t i m e  s t e p   19602                              ( at time 9.7995193E+00 )

 nodal point  x-disp     y-disp      z-disp      x-vel       y-vel       z-vel      x-accl      y-accl      z-accl      x-coor      y-coor      z-coor
    22626 -1.82274E-02 1.15214E+00-5.85807E-01-1.18570E-02 7.91198E-01-5.32553E-02-1.57634E-02 3.48246E-01 1.10084E-02 4.64115E+00-2.70387E+01-4.55675E+01



 n o d a l   p r i n t   o u t   f o r   t i m e  s t e p   19602                              ( at time 9.7995193E+00 )

 nodal point  x-rot      y-rot       z-rot       x-rot vel   y-rot vel   z-rot vel   x-rot acc   y-rot acc   z-rot acc
    22626 -7.62500E-03-3.05126E-04-4.52441E-04-5.09720E-03-1.31351E-04-1.74270E-04-2.29282E-03-1.74703E-04-1.10725E-04



 n o d a l   p r i n t   o u t   f o r   t i m e  s t e p   19802                              ( at time 9.8995093E+00 )

 nodal point  x-disp     y-disp      z-disp      x-vel       y-vel       z-vel      x-accl      y-accl      z-accl      x-coor      y-coor      z-coor
    22626 -1.94357E-02 1.23308E+00-5.91073E-01-1.24683E-02 8.27078E-01-5.24734E-02-6.11363E-03 3.58844E-01 7.81921E-03 4.63994E+00-2.69578E+01-4.55728E+01



 n o d a l   p r i n t   o u t   f o r   t i m e  s t e p   19802                              ( at time 9.8995093E+00 )

 nodal point  x-rot      y-rot       z-rot       x-rot vel   y-rot vel   z-rot vel   x-rot acc   y-rot acc   z-rot acc
    22626 -8.14469E-03-3.17713E-04-4.69861E-04-5.31149E-03-1.23690E-04-1.75896E-04-2.14310E-03 7.66198E-05-1.62624E-05



 n o d a l   p r i n t   o u t   f o r   t i m e  s t e p   20003                              ( at time 9.9999992E+00 )

 nodal point  x-disp     y-disp      z-disp      x-vel       y-vel       z-vel      x-accl      y-accl      z-accl      x-coor      y-coor      z-coor
[...]
    22626 -3.82516E-02-8.81426E-04-1.66693E-03-8.00619E-03-1.89875E-04-4.76178E-04 6.14949E-04 2.66863E-05-2.80644E-04



 n o d a l   p r i n t   o u t   f o r   t i m e  s t e p   27803                              ( at time 1.3899609E+01 )

 nodal point  x-disp     y-disp      z-disp      x-vel       y-vel       z-vel      x-accl      y-accl      z-accl      x-coor      y-coor      z-coor
    22626 -1.49167E-01 6.34753E+00 5.18367E-01-5.30504E-02 1.34719E+00 9.46549E-01 3.49132E-03-1.03619E-01 4.35050E-01 4.51021E+00-2.18433E+01-4.44634E+01



 n o d a l   p r i n t   o u t   f o r   t i m e  s t e p   27803                              ( at time 1.3899609E+01 )

 nodal point  x-rot      y-rot       z-rot       x-rot vel   y-rot vel   z-rot vel   x-rot acc   y-rot acc   z-rot acc
    22626 -3.90470E-02-9.00431E-04-1.71310E-03-7.93452E-03-1.88718E-04-4.45628E-04 7.16697E-04 1.15678E-05 3.05531E-04



 n o d a l   p r i n t   o u t   f o r   t i m e  s t e p   28003                              ( at time 1.3999599E+01 )

 nodal point  x-disp     y-disp      z-disp      x-vel       y-vel       z-vel      x-accl      y-accl      z-accl      x-coor      y-coor      z-coor
    22626 -1.54533E-01 6.48171E+00 6.15296E-01-5.47161E-02 1.33691E+00 9.90272E-01-1.66588E-02-1.02865E-01 4.37279E-01 4.50484E+00-2.17091E+01-4.43664E+01



 n o d a l   p r i n t   o u t   f o r   t i m e  s t e p   28003                              ( at time 1.3999599E+01 )

 nodal point  x-rot      y-rot       z-rot       x-rot vel   y-rot vel   z-rot vel   x-rot acc   y-rot acc   z-rot acc
    22626 -3.98353E-02-9.20837E-04-1.75888E-03-7.85764E-03-2.11566E-04-4.79910E-04 7.68940E-04-2.28498E-04-3.42861E-04



 n o d a l   p r i n t   o u t   f o r   t i m e  s t e p   28203                              ( at time 1.4099589E+01 )

 nodal point  x-disp     y-disp      z-disp      x-vel       y-vel       z-vel      x-accl      y-accl      z-accl      x-coor      y-coor      z-coor
    22626 -1.60061E-01 6.61489E+00 7.16422E-01-5.51718E-02 1.32679E+00 1.03339E+00-4.55716E-03-1.01188E-01 4.31230E-01 4.49931E+00-2.15759E+01-4.42653E+01



 n o d a l   p r i n t   o u t   f o r   t i m e  s t e p   28203                              ( at time 1.4099589E+01 )

 nodal point  x-rot      y-rot       z-rot       x-rot vel   y-rot vel   z-rot vel   x-rot acc   y-rot acc   z-rot acc
    22626 -4.06172E-02-9.42318E-04-1.80753E-03-7.77222E-03-2.10441E-04-4.83333E-04 8.54222E-04 1.12517E-05-3.42307E-05



 n o d a l   p r i n t   o u t   f o r   t i m e  s t e p   28403                              ( at time 1.4199579E+01 )

 nodal point  x-disp     y-disp      z-disp      x-vel       y-vel       z-vel      x-accl      y-accl      z-accl      x-coor      y-coor      z-coor
    22626 -1.65562E-01 6.74701E+00 8.21929E-01-5.51475E-02 1.31742E+00 1.07665E+00 2.43174E-04-9.37557E-02 4.32583E-01 4.49381E+00-2.14438E+01-4.41598E+01



 n o d a l   p r i n t   o u t   f o r   t i m e  s t e p   28403                              ( at time 1.4199579E+01 )

 nodal point  x-rot      y-rot       z-rot       x-rot vel   y-rot vel   z-rot vel   x-rot acc   y-rot acc   z-rot acc
    22626 -4.13929E-02-9.62254E-04-1.85470E-03-7.74122E-03-2.02591E-04-4.67863E-04 3.10041E-04 7.84991E-05 1.54720E-04



 n o d a l   p r i n t   o u t   f o r   t i m e  s t e p   28603                              ( at time 1.4299569E+01 )

 nodal point  x-disp     y-disp      z-disp      x-vel       y-vel       z-vel      x-accl      y-accl      z-accl      x-coor      y-coor      z-coor
    22626 -1.71107E-01 6.87815E+00 9.31710E-01-5.53176E-02 1.30576E+00 1.11957E+00-1.70196E-03-1.16567E-01 4.29312E-01 4.48827E+00-2.13127E+01-4.40500E+01



 n o d a l   p r i n t   o u t   f o r   t i m e  s t e p   28603                              ( at time 1.4299569E+01 )

 nodal point  x-rot      y-rot       z-rot       x-rot vel   y-rot vel   z-rot vel   x-rot acc   y-rot acc   z-rot acc
    22626 -4.21643E-02-9.83582E-04-1.90201E-03-7.66321E-03-2.29696E-04-4.80704E-04 7.80225E-04-2.71070E-04-1.28424E-04



 n o d a l   p r i n t   o u t   f o r   t i m e  s t e p   28803                              ( at time 1.4399559E+01 )

 nodal point  x-disp     y-disp      z-disp      x-vel       y-vel       z-vel      x-accl      y-accl      z-accl      x-coor      y-coor      z-coor
    22626 -1.76742E-01 7.00811E+00 1.04572E+00-5.75009E-02 1.29536E+00 1.16155E+00-2.18347E-02-1.03982E-01 4.19772E-01 4.48263E+00-2.11827E+01-4.39360E+01



 n o d a l   p r i n t   o u t   f o r   t i m e  s t e p   28803                              ( at time 1.4399559E+01 )

 nodal point  x-rot      y-rot       z-rot       x-rot vel   y-rot vel   z-rot vel   x-rot acc   y-rot acc   z-rot acc
    22626 -4.29284E-02-1.00562E-03-1.95029E-03-7.57788E-03-2.20623E-04-4.82383E-04 8.53387E-04 9.07377E-05-1.67932E-05



 n o d a l   p r i n t   o u t   f o r   t i m e  s t e p   29003                              ( at time 1.4499549E+01 )

 nodal point  x-disp     y-disp      z-disp      x-vel       y-vel       z-vel      x-accl      y-accl      z-accl      x-coor      y-coor      z-coor
    22626 -1.82510E-01 7.13695E+00 1.16384E+00-5.70196E-02 1.28323E+00 1.20161E+00 4.81285E-03-1.21389E-01 4.00693E-01 4.47687E+00-2.10539E+01-4.38179E+01



 n o d a l   p r i n t   o u t   f o r   t i m e  s t e p   29003                              ( at time 1.4499549E+01 )

 nodal point  x-rot      y-rot       z-rot       x-rot vel   y-rot vel   z-rot vel   x-rot acc   y-rot acc   z-rot acc
    22626 -4.36859E-02-1.02684E-03-1.99958E-03-7.56602E-03-2.07656E-04-4.82406E-04 1.18583E-04 1.29685E-04-2.31399E-07



 n o d a l   p r i n t   o u t   f o r   t i m e  s t e p   29203                              ( at time 1.4599539E+01 )

 nodal point  x-disp     y-disp      z-disp      x-vel       y-vel       z-vel      x-accl      y-accl      z-accl      x-coor      y-coor      z-coor
    22626 -1.88239E-01 7.26482E+00 1.28605E+00-5.78360E-02 1.27378E+00 1.24227E+00-8.16409E-03-9.44257E-02 4.06687E-01 4.47114E+00-2.09260E+01-4.36957E+01



 n o d a l   p r i n t   o u t   f o r   t i m e  s t e p   29203                              ( at time 1.4599539E+01 )

 nodal point  x-rot      y-rot       z-rot       x-rot vel   y-rot vel   z-rot vel   x-rot acc   y-rot acc   z-rot acc
    22626 -4.44406E-02-1.04826E-03-2.04750E-03-7.53885E-03-2.15183E-04-4.68366E-04 2.71694E-04-7.52803E-05 1.40415E-04



 n o d a l   p r i n t   o u t   f o r   t i m e  s t e p   29403                              ( at time 1.4699529E+01 )

 nodal point  x-disp     y-disp      z-disp      x-vel       y-vel       z-vel      x-accl      y-accl      z-accl      x-coor      y-coor      z-coor
    22626 -1.94056E-01 7.39168E+00 1.41228E+00-5.83617E-02 1.26300E+00 1.28158E+00-5.25740E-03-1.07893E-01 3.93082E-01 4.46532E+00-2.07992E+01-4.35694E+01



 n o d a l   p r i n t   o u t   f o r   t i m e  s t e p   29403                              ( at time 1.4699529E+01 )

 nodal point  x-rot      y-rot       z-rot       x-rot vel   y-rot vel   z-rot vel   x-rot acc   y-rot acc   z-rot acc
    22626 -4.51894E-02-1.07050E-03-2.09629E-03-7.46604E-03-2.22971E-04-4.98059E-04 7.28210E-04-7.78919E-05-2.96959E-04



 n o d a l   p r i n t   o u t   f o r   t i m e  s t e p   29604                              ( at time 1.4800019E+01 )

 nodal point  x-disp     y-disp      z-disp      x-vel       y-vel       z-vel      x-accl      y-accl      z-accl      x-coor      y-coor      z-coor
    22626 -1.99985E-01 7.51809E+00 1.54306E+00-5.93122E-02 1.25336E+00 1.32010E+00-9.45890E-03-9.58699E-02 3.83377E-01 4.45939E+00-2.06727E+01-4.34387E+01



 n o d a l   p r i n t   o u t   f o r   t i m e  s t e p   29604                              ( at time 1.4800019E+01 )

 nodal point  x-rot      y-rot       z-rot       x-rot vel   y-rot vel   z-rot vel   x-rot acc   y-rot acc   z-rot acc
    22626 -4.59355E-02-1.09367E-03-2.14633E-03-7.40219E-03-2.26406E-04-5.04751E-04 6.35351E-04-3.41752E-05-6.65976E-05



 n o d a l   p r i n t   o u t   f o r   t i m e  s t e p   29804                              ( at time 1.4900009E+01 )

 nodal point  x-disp     y-disp      z-disp      x-vel       y-vel       z-vel      x-accl      y-accl      z-accl      x-coor      y-coor      z-coor
    22626 -2.05954E-01 7.64298E+00 1.67690E+00-5.97206E-02 1.24589E+00 1.35795E+00-4.08478E-03-7.47661E-02 3.78450E-01 4.45342E+00-2.05479E+01-4.33048E+01



 n o d a l   p r i n t   o u t   f o r   t i m e  s t e p   29804                              ( at time 1.4900009E+01 )

 nodal point  x-rot      y-rot       z-rot       x-rot vel   y-rot vel   z-rot vel   x-rot acc   y-rot acc   z-rot acc
    22626 -4.66745E-02-1.11631E-03-2.19632E-03-7.36645E-03-2.18370E-04-4.91188E-04 3.57473E-04 8.03645E-05 1.35647E-04



 n o d a l   p r i n t   o u t   f o r   t i m e  s t e p   30004                              ( at time 1.4999999E+01 )

 nodal point  x-disp     y-disp      z-disp      x-vel       y-vel       z-vel      x-accl      y-accl      z-accl      x-coor      y-coor      z-coor
    22626 -2.11926E-01 7.76696E+00 1.81449E+00-6.07659E-02 1.23543E+00 1.39438E+00-1.04534E-02-1.04540E-01 3.64408E-01 4.44745E+00-2.04239E+01-4.31672E+01



 n o d a l   p r i n t   o u t   f o r   t i m e  s t e p   30004                              ( at time 1.4999999E+01 )

 nodal point  x-rot      y-rot       z-rot       x-rot vel   y-rot vel   z-rot vel   x-rot acc   y-rot acc   z-rot acc
    22626 -4.74094E-02-1.13848E-03-2.24583E-03-7.32637E-03-2.41949E-04-5.06366E-04 4.00840E-04-2.35817E-04-1.51796E-04



 n o d a l   p r i n t   o u t   f o r   t i m e  s t e p   30204                              ( at time 1.5099989E+01 )

 nodal point  x-disp     y-disp      z-disp      x-vel       y-vel       z-vel      x-accl      y-accl      z-accl      x-coor      y-coor      z-coor
    22626 -2.18077E-01 7.89008E+00 1.95552E+00-6.23831E-02 1.22774E+00 1.42669E+00-1.61743E-02-7.69669E-02 3.23083E-01 4.44130E+00-2.03008E+01-4.30262E+01



 n o d a l   p r i n t   o u t   f o r   t i m e  s t e p   30204                              ( at time 1.5099989E+01 )

 nodal point  x-rot      y-rot       z-rot       x-rot vel   y-rot vel   z-rot vel   x-rot acc   y-rot acc   z-rot acc
    22626 -4.81395E-02-1.16343E-03-2.29740E-03-7.28234E-03-2.46620E-04-5.22999E-04 4.40327E-04-4.67062E-05-1.66344E-04



 n o d a l   p r i n t   o u t   f o r   t i m e  s t e p   30404                              ( at time 1.5199979E+01 )

 nodal point  x-disp     y-disp      z-disp      x-vel       y-vel       z-vel      x-accl      y-accl      z-accl      x-coor      y-coor      z-coor
    22626 -2.24329E-01 8.01249E+00 2.09987E+00-6.21586E-02 1.22014E+00 1.46043E+00 2.24565E-03-7.59535E-02 3.37473E-01 4.43505E+00-2.01783E+01-4.28819E+01



 n o d a l   p r i n t   o u t   f o r   t i m e  s t e p   30404                              ( at time 1.5199979E+01 )

 nodal point  x-rot      y-rot       z-rot       x-rot vel   y-rot vel   z-rot vel   x-rot acc   y-rot acc   z-rot acc
    22626 -4.88653E-02-1.18710E-03-2.34952E-03-7.22992E-03-2.33004E-04-5.21071E-04 5.24243E-04 1.36172E-04 1.92803E-05



 n o d a l   p r i n t   o u t   f o r   t i m e  s t e p   30604                              ( at time 1.5299969E+01 )

 nodal point  x-disp     y-disp      z-disp      x-vel       y-vel       z-vel      x-accl      y-accl      z-accl      x-coor      y-coor      z-coor
    22626 -2.30542E-01 8.13423E+00 2.24747E+00-6.30035E-02 1.21419E+00 1.49070E+00-8.45000E-03-5.95523E-02 3.02682E-01 4.42883E+00-2.00566E+01-4.27342E+01



 n o d a l   p r i n t   o u t   f o r   t i m e  s t e p   30604                              ( at time 1.5299969E+01 )

 nodal point  x-rot      y-rot       z-rot       x-rot vel   y-rot vel   z-rot vel   x-rot acc   y-rot acc   z-rot acc
    22626 -4.95882E-02-1.21145E-03-2.40286E-03-7.21700E-03-2.52708E-04-5.38231E-04 1.29215E-04-1.97061E-04-1.71622E-04



 n o d a l   p r i n t   o u t   f o r   t i m e  s t e p   30804                              ( at time 1.5399959E+01 )

 nodal point  x-disp     y-disp      z-disp      x-vel       y-vel       z-vel      x-accl      y-accl      z-accl      x-coor      y-coor      z-coor
    22626 -2.36937E-01 8.25548E+00 2.39794E+00-6.47733E-02 1.20993E+00 1.51848E+00-1.76998E-02-4.25608E-02 2.77891E-01 4.42244E+00-1.99353E+01-4.25838E+01



 n o d a l   p r i n t   o u t   f o r   t i m e  s t e p   30804                              ( at time 1.5399959E+01 )

 nodal point  x-rot      y-rot       z-rot       x-rot vel   y-rot vel   z-rot vel   x-rot acc   y-rot acc   z-rot acc
    22626 -5.03077E-02-1.23848E-03-2.45756E-03-7.17607E-03-2.76590E-04-5.63439E-04 4.09316E-04-2.38848E-04-2.52099E-04



 n o d a l   p r i n t   o u t   f o r   t i m e  s t e p   31004                              ( at time 1.5499949E+01 )

 nodal point  x-disp     y-disp      z-disp      x-vel       y-vel       z-vel      x-accl      y-accl      z-accl      x-coor      y-coor      z-coor
    22626 -2.43501E-01 8.37620E+00 2.55130E+00-6.64686E-02 1.20473E+00 1.54769E+00-1.69552E-02-5.20580E-02 2.92055E-01 4.41587E+00-1.98146E+01-4.24304E+01



 n o d a l   p r i n t   o u t   f o r   t i m e  s t e p   31004                              ( at time 1.5499949E+01 )

 nodal point  x-rot      y-rot       z-rot       x-rot vel   y-rot vel   z-rot vel   x-rot acc   y-rot acc   z-rot acc
    22626 -5.10234E-02-1.26576E-03-2.51430E-03-7.13765E-03-2.77766E-04-5.80784E-04 3.84233E-04-1.17556E-05-1.73469E-04



 n o d a l   p r i n t   o u t   f o r   t i m e  s t e p   31204                              ( at time 1.5599939E+01 )

 nodal point  x-disp     y-disp      z-disp      x-vel       y-vel       z-vel      x-accl      y-accl      z-accl      x-coor      y-coor      z-coor
    22626 -2.50084E-01 8.49654E+00 2.70736E+00-6.58500E-02 1.20182E+00 1.57334E+00 6.18662E-03-2.90924E-02 2.56515E-01 4.40929E+00-1.96943E+01-4.22744E+01



 n o d a l   p r i n t   o u t   f o r   t i m e  s t e p   31204                              ( at time 1.5599939E+01 )

 nodal point  x-rot      y-rot       z-rot       x-rot vel   y-rot vel   z-rot vel   x-rot acc   y-rot acc   z-rot acc
    22626 -5.17367E-02-1.29330E-03-2.57296E-03-7.12034E-03-2.79655E-04-5.90158E-04 1.73160E-04-1.88993E-05-9.37494E-05



 n o d a l   p r i n t   o u t   f o r   t i m e  s t e p   31404                              ( at time 1.5699929E+01 )

 nodal point  x-disp     y-disp      z-disp      x-vel       y-vel       z-vel      x-accl      y-accl      z-accl      x-coor      y-coor      z-coor
    22626 -2.56825E-01 8.61660E+00 2.86596E+00-6.82764E-02 1.19923E+00 1.59738E+00-2.42657E-02-2.58996E-02 2.40438E-01 4.40255E+00-1.95742E+01-4.21158E+01



 n o d a l   p r i n t   o u t   f o r   t i m e  s t e p   31404                              ( at time 1.5699929E+01 )

 nodal point  x-rot      y-rot       z-rot       x-rot vel   y-rot vel   z-rot vel   x-rot acc   y-rot acc   z-rot acc
    22626 -5.24476E-02-1.32291E-03-2.63334E-03-7.09891E-03-3.06347E-04-6.12461E-04 2.14305E-04-2.66942E-04-2.23057E-04



 n o d a l   p r i n t   o u t   f o r   t i m e  s t e p   31604                              ( at time 1.5799919E+01 )

 nodal point  x-disp     y-disp      z-disp      x-vel       y-vel       z-vel      x-accl      y-accl      z-accl      x-coor      y-coor      z-coor
    22626 -2.63754E-01 8.73641E+00 3.02677E+00-6.94790E-02 1.19771E+00 1.61860E+00-1.20269E-02-1.51875E-02 2.12260E-01 4.39562E+00-1.94544E+01-4.19549E+01



 n o d a l   p r i n t   o u t   f o r   t i m e  s t e p   31604                              ( at time 1.5799919E+01 )

 nodal point  x-rot      y-rot       z-rot       x-rot vel   y-rot vel   z-rot vel   x-rot acc   y-rot acc   z-rot acc
    22626 -5.31559E-02-1.35527E-03-2.69694E-03-7.08378E-03-3.28616E-04-6.57771E-04 1.51340E-04-2.22709E-04-4.53143E-04



 n o d a l   p r i n t   o u t   f o r   t i m e  s t e p   31804                              ( at time 1.5899909E+01 )

 nodal point  x-disp     y-disp      z-disp      x-vel       y-vel       z-vel      x-accl      y-accl      z-accl      x-coor      y-coor      z-coor
    22626 -2.70726E-01 8.85616E+00 3.18969E+00-7.07035E-02 1.19721E+00 1.63908E+00-1.22463E-02-4.96318E-03 2.04864E-01 4.38865E+00-1.93347E+01-4.17920E+01



 n o d a l   p r i n t   o u t   f o r   t i m e  s t e p   31804                              ( at time 1.5899909E+01 )

 nodal point  x-rot      y-rot       z-rot       x-rot vel   y-rot vel   z-rot vel   x-rot acc   y-rot acc   z-rot acc
    22626 -5.38630E-02-1.38712E-03-2.76221E-03-7.06247E-03-3.18783E-04-6.61951E-04 2.13131E-04 9.83378E-05-4.17997E-05



 n o d a l   p r i n t   o u t   f o r   t i m e  s t e p   32004                              ( at time 1.5999899E+01 )

 nodal point  x-disp     y-disp      z-disp      x-vel       y-vel       z-vel      x-accl      y-accl      z-accl      x-coor      y-coor      z-coor
    22626 -2.77853E-01 8.97591E+00 3.35453E+00-7.13891E-02 1.19751E+00 1.65710E+00-6.85702E-03 2.96027E-03 1.80173E-01 4.38152E+00-1.92149E+01-4.16272E+01



 n o d a l   p r i n t   o u t   f o r   t i m e  s t e p   32004                              ( at time 1.5999899E+01 )

 nodal point  x-rot      y-rot       z-rot       x-rot vel   y-rot vel   z-rot vel   x-rot acc   y-rot acc   z-rot acc
    22626 -5.45686E-02-1.42126E-03-2.82980E-03-7.04562E-03-3.64714E-04-7.01761E-04 1.68535E-04-4.59353E-04-3.98136E-04



 n o d a l   p r i n t   o u t   f o r   t i m e  s t e p   32204                              ( at time 1.6099889E+01 )

 nodal point  x-disp     y-disp      z-disp      x-vel       y-vel       z-vel      x-accl      y-accl      z-accl      x-coor      y-coor      z-coor
    22626 -2.85122E-01 9.09579E+00 3.52104E+00-7.44836E-02 1.19970E+00 1.67319E+00-3.09485E-02 2.19202E-02 1.60922E-01 4.37425E+00-1.90950E+01-4.14607E+01



 n o d a l   p r i n t   o u t   f o r   t i m e  s t e p   32204                              ( at time 1.6099889E+01 )

 nodal point  x-rot      y-rot       z-rot       x-rot vel   y-rot vel   z-rot vel   x-rot acc   y-rot acc   z-rot acc
    22626 -5.52739E-02-1.45892E-03-2.90083E-03-7.04224E-03-3.66561E-04-7.18316E-04 3.37921E-05-1.84774E-05-1.65577E-04



 n o d a l   p r i n t   o u t   f o r   t i m e  s t e p   32404                              ( at time 1.6199879E+01 )

 nodal point  x-disp     y-disp      z-disp      x-vel       y-vel       z-vel      x-accl      y-accl      z-accl      x-coor      y-coor      z-coor
    22626 -2.92579E-01 9.21566E+00 3.68916E+00-7.45385E-02 1.19904E+00 1.68890E+00-5.49158E-04-6.56069E-03 1.57099E-01 4.36680E+00-1.89752E+01-4.12926E+01



 n o d a l   p r i n t   o u t   f o r   t i m e  s t e p   32404                              ( at time 1.6199879E+01 )

 nodal point  x-rot      y-rot       z-rot       x-rot vel   y-rot vel   z-rot vel   x-rot acc   y-rot acc   z-rot acc
    22626 -5.59777E-02-1.49562E-03-2.97363E-03-7.02753E-03-3.66334E-04-7.28700E-04 1.47107E-04 2.27525E-06-1.03843E-04



 n o d a l   p r i n t   o u t   f o r   t i m e  s t e p   32604                              ( at time 1.6299869E+01 )

 nodal point  x-disp     y-disp      z-disp      x-vel       y-vel       z-vel      x-accl      y-accl      z-accl      x-coor      y-coor      z-coor
    22626 -3.00023E-01 9.33571E+00 3.85876E+00-7.52981E-02 1.19928E+00 1.70525E+00-7.59679E-03 2.32003E-03 1.63522E-01 4.35935E+00-1.88551E+01-4.11230E+01



 n o d a l   p r i n t   o u t   f o r   t i m e  s t e p   32604                              ( at time 1.6299869E+01 )

 nodal point  x-rot      y-rot       z-rot       x-rot vel   y-rot vel   z-rot vel   x-rot acc   y-rot acc   z-rot acc
    22626 -5.66841E-02-1.53249E-03-3.04526E-03-7.05057E-03-3.61550E-04-7.03192E-04-2.30402E-04 4.78441E-05 2.55099E-04
