 LSTC 50th% Full_FE H-III Dummy (Beta Version, February 17, 2019)        
                    ls-dyna smp s R16 R16.0_619_d222963 date 03/18/2025

{BEGIN LEGEND}
 Entity #        Title
        1     Upper_Neck_Force_INJURY                                              
{END LEGEND}



 line#1  section#     time        x-force     y-force     z-force    magnitude
 line#2  resultant  moments       x-moment    y-moment    z-moment   magnitude
 line#3  centroids                x           y           z            area  
           1    0.00000E+00     0.0000E+00  0.0000E+00  0.0000E+00  0.0000E+00
ac ID =   33377                 0.0000E+00  0.0000E+00  0.0000E+00  0.0000E+00
                               -3.7437E-01  1.0501E+01 -4.6940E+01  0.0000E+00

           1    1.00490E-01     1.6352E-04 -4.9925E-03  2.5986E-01  2.5991E-01
ac ID =   33377                 4.2543E-01 -1.2519E+00 -2.7211E-02  1.3225E+00
                               -3.7387E-01  1.0590E+01 -4.6886E+01  2.5147E+03

           1    2.00480E-01    -4.4462E-02  7.1896E-04  4.4105E-01  4.4329E-01
ac ID =   33377                 3.0327E-01 -1.5963E+00  2.1711E-02  1.6250E+00
                               -3.7386E-01  1.0591E+01 -4.6888E+01  2.5147E+03

           1    3.00470E-01     1.4530E-02 -3.1911E-03  2.1773E-01  2.1824E-01
ac ID =   33377                 2.4911E-02 -3.4017E-01  6.5896E-02  3.4739E-01
                               -3.7382E-01  1.0591E+01 -4.6889E+01  2.5147E+03

           1    4.00460E-01     2.9613E-03  1.0995E-02  8.8230E-02  8.8962E-02
ac ID =   33377                -4.9589E-01 -9.5176E-01  3.3857E-03  1.0732E+00
                               -3.7383E-01  1.0592E+01 -4.6890E+01  2.5147E+03

           1    5.00450E-01    -4.0530E-02  4.1079E-03  1.6203E-01  1.6707E-01
ac ID =   33377                -3.9655E-01 -1.5004E+00 -1.0949E-01  1.5558E+00
                               -3.7385E-01  1.0594E+01 -4.6893E+01  2.5147E+03

           1    6.00440E-01    -1.2060E-02  4.1593E-03  3.4449E-01  3.4472E-01
ac ID =   33377                 9.4606E-02 -1.3485E+00 -3.4934E-02  1.3523E+00
                               -3.7385E-01  1.0595E+01 -4.6897E+01  2.5147E+03

           1    7.00430E-01     8.3344E-04 -4.8113E-03  2.9872E-01  2.9876E-01
ac ID =   33377                 1.2018E-01 -5.8235E-01  7.6167E-02  5.9947E-01
                               -3.7389E-01  1.0597E+01 -4.6901E+01  2.5147E+03

           1    8.00420E-01    -3.1104E-02 -1.1981E-05  1.0554E-01  1.1003E-01
ac ID =   33377                 5.4492E-02 -1.1071E+00  4.2756E-02  1.1092E+00
                               -3.7393E-01  1.0599E+01 -4.6905E+01  2.5147E+03

           1    9.00410E-01    -4.0254E-02  1.7189E-03  6.7428E-02  7.8549E-02
ac ID =   33377                 6.7519E-02 -1.1252E+00 -8.2039E-03  1.1273E+00
                               -3.7395E-01  1.0601E+01 -4.6909E+01  2.5147E+03

           1    1.00040E+00     1.1441E-02 -2.8140E-03  2.2718E-01  2.2749E-01
ac ID =   33377                 3.2865E-01 -3.8669E-01 -6.8900E-02  5.1214E-01
                               -3.7393E-01  1.0604E+01 -4.6915E+01  2.5147E+03

           1    1.10039E+00     5.1668E-04  3.8183E-03  2.8121E-01  2.8123E-01
ac ID =   33377                 1.7218E-01 -9.6974E-01  4.5506E-03  9.8492E-01
                               -3.7387E-01  1.0606E+01 -4.6921E+01  2.5147E+03

           1    1.20038E+00    -3.1168E-02  2.4457E-03  1.3740E-01  1.4091E-01
ac ID =   33377                -2.3910E-01 -1.1673E+00  1.8769E-02  1.1917E+00
                               -3.7381E-01  1.0609E+01 -4.6926E+01  2.5147E+03

           1    1.30037E+00    -1.2175E-02  5.2354E-03  8.6322E-02  8.7334E-02
ac ID =   33377                -3.3255E-01 -1.0135E+00  3.4676E-02  1.0673E+00
                               -3.7372E-01  1.0612E+01 -4.6932E+01  2.5147E+03

           1    1.40036E+00     4.5576E-03  1.4372E-02  1.8634E-01  1.8695E-01
ac ID =   33377                -5.5704E-01 -8.9002E-01  7.5205E-02  1.0527E+00
                               -3.7361E-01  1.0615E+01 -4.6939E+01  2.5147E+03

           1    1.50035E+00    -3.6395E-02  1.0135E-02  3.5256E-01  3.5458E-01
ac ID =   33377                -2.0698E-01 -1.9859E+00  7.5046E-03  1.9967E+00
                               -3.7347E-01  1.0618E+01 -4.6946E+01  2.5147E+03

           1    1.60034E+00    -2.5746E-02 -3.4017E-03  2.4337E-01  2.4475E-01
ac ID =   33377                -2.4950E-02 -1.7016E+00 -2.2927E-02  1.7019E+00
                               -3.7330E-01  1.0622E+01 -4.6954E+01  2.5147E+03

           1    1.70033E+00    -6.6024E-03  3.9977E-03  7.3990E-02  7.4391E-02
ac ID =   33377                -1.9191E-01 -9.9035E-01  3.1227E-02  1.0093E+00
                               -3.7316E-01  1.0625E+01 -4.6961E+01  2.5147E+03

           1    1.80032E+00    -3.0411E-02  2.9856E-03  8.7022E-02  9.2231E-02
ac ID =   33377                -1.2873E-02 -1.5092E+00  1.1767E-01  1.5138E+00
                               -3.7300E-01  1.0628E+01 -4.6969E+01  2.5147E+03

           1    1.90031E+00    -7.6568E-03  6.2614E-03  1.9553E-01  1.9578E-01
ac ID =   33377                 4.8358E-02 -1.0365E+00  2.3954E-02  1.0379E+00
                               -3.7282E-01  1.0632E+01 -4.6978E+01  2.5147E+03

           1    2.00030E+00    -3.9508E-03 -1.0595E-02  1.7004E-01  1.7041E-01
ac ID =   33377                 1.8928E-01 -6.2790E-01 -2.1001E-01  6.8861E-01
                               -3.7261E-01  1.0636E+01 -4.6987E+01  2.5147E+03

           1    2.10029E+00    -3.2378E-02  6.6839E-03  1.3073E-02  3.5552E-02
ac ID =   33377                -1.7212E-01 -9.1950E-01  2.9582E-02  9.3594E-01
                               -3.7245E-01  1.0640E+01 -4.6996E+01  2.5147E+03

           1    2.20028E+00    -2.7206E-02  2.5714E-02  1.8219E-02  4.1633E-02
ac ID =   33377                -9.0644E-01 -1.0473E+00  1.6411E-01  1.3948E+00
                               -3.7220E-01  1.0644E+01 -4.7005E+01  2.5147E+03

           1    2.30027E+00    -1.4472E-03  7.9864E-03  1.5665E-01  1.5686E-01
ac ID =   33377                -4.0223E-01 -1.2215E+00  1.1151E-02  1.2861E+00
                               -3.7189E-01  1.0648E+01 -4.7015E+01  2.5147E+03

           1    2.40026E+00    -2.6133E-02 -1.9767E-02  1.8989E-01  1.9270E-01
ac ID =   33377                 1.1666E-01 -1.6493E+00  9.9427E-02  1.6564E+00
                               -3.7163E-01  1.0653E+01 -4.7026E+01  2.5147E+03

           1    2.50025E+00    -1.9109E-02 -9.3113E-03  5.8247E-03  2.2040E-02
ac ID =   33377                -8.9074E-02 -1.2879E+00  2.0579E-03  1.2909E+00
                               -3.7159E-01  1.0657E+01 -4.7036E+01  2.5147E+03

           1    2.60024E+00    -1.2448E-02  2.0937E-02 -6.5428E-02  6.9815E-02
ac ID =   33377                -2.8709E-01 -4.8054E-01  3.7099E-02  5.6100E-01
                               -3.7170E-01  1.0661E+01 -4.7046E+01  2.5147E+03

           1    2.70023E+00    -2.5464E-02  9.0285E-03  2.4321E-02  3.6352E-02
ac ID =   33377                -1.9804E-02 -6.1318E-01  1.4124E-01  6.2955E-01
                               -3.7165E-01  1.0666E+01 -4.7057E+01  2.5147E+03

           1    2.80022E+00    -2.5755E-02 -3.2367E-03  9.0404E-02  9.4057E-02
ac ID =   33377                 3.6975E-01 -8.6262E-01  8.1490E-02  9.4206E-01
                               -3.7150E-01  1.0671E+01 -4.7068E+01  2.5147E+03

           1    2.90021E+00     1.5994E-02 -9.5461E-03 -1.0840E-03  1.8658E-02
ac ID =   33377                 1.7238E-02 -3.3993E-03 -1.5174E-02  2.3215E-02
                               -3.7132E-01  1.0675E+01 -4.7079E+01  2.5147E+03

           1    3.00020E+00    -1.3618E-02 -3.0256E-04 -9.0155E-02  9.1178E-02
ac ID =   33377                -1.1422E-01 -4.5703E-01 -8.9304E-02  4.7948E-01
                               -3.7126E-01  1.0679E+01 -4.7090E+01  2.5147E+03

           1    3.10019E+00    -2.1269E-02  6.7334E-03  1.3750E-02  2.6207E-02
ac ID =   33377                -6.6341E-01 -1.0688E+00  1.6059E-02  1.2581E+00
                               -3.7120E-01  1.0684E+01 -4.7101E+01  2.5147E+03

           1    3.20018E+00    -1.3123E-03  7.7865E-03  1.0710E-01  1.0739E-01
ac ID =   33377                -1.9556E-01 -8.4757E-01 -5.5150E-02  8.7159E-01
                               -3.7118E-01  1.0689E+01 -4.7113E+01  2.5147E+03

           1    3.30017E+00    -6.2291E-03 -4.9072E-03  3.3181E-02  3.4115E-02
ac ID =   33377                -2.1317E-01 -9.4410E-01  2.2623E-01  9.9396E-01
                               -3.7109E-01  1.0693E+01 -4.7125E+01  2.5147E+03

           1    3.40016E+00    -1.8656E-02 -2.0629E-03 -8.0780E-02  8.2932E-02
ac ID =   33377                -1.0236E-01 -8.7123E-01  5.0807E-02  8.7869E-01
                               -3.7107E-01  1.0698E+01 -4.7136E+01  2.5147E+03

           1    3.50015E+00    -3.6791E-03  1.2313E-02 -1.2507E-01  1.2573E-01
ac ID =   33377                -3.9697E-01 -1.5445E-01 -1.2323E-02  4.2614E-01
                               -3.7104E-01  1.0702E+01 -4.7148E+01  2.5147E+03

           1    3.60014E+00    -6.3731E-03 -8.9999E-03 -2.6961E-02  2.9129E-02
ac ID =   33377                 2.8076E-01  1.9415E-01 -1.9348E-01  3.9237E-01
                               -3.7096E-01  1.0707E+01 -4.7160E+01  2.5147E+03

           1    3.70013E+00    -2.7603E-03 -1.3007E-02 -6.1886E-03  1.4666E-02
ac ID =   33377                 4.6944E-01 -6.2891E-02 -3.1933E-01  5.7123E-01
                               -3.7092E-01  1.0711E+01 -4.7171E+01  2.5147E+03

           1    3.80012E+00    -7.2874E-03  5.8570E-03 -1.0490E-01  1.0531E-01
ac ID =   33377                -1.4690E-01  2.2016E-01  2.9884E-02  2.6635E-01
                               -3.7088E-01  1.0715E+01 -4.7183E+01  2.5147E+03

           1    3.90011E+00     6.5468E-03  1.0711E-02 -1.7919E-01  1.7963E-01
ac ID =   33377                -3.3779E-01  2.9174E-01 -1.2621E-01  4.6383E-01
                               -3.7083E-01  1.0719E+01 -4.7194E+01  2.5147E+03

           1    4.00010E+00    -1.1617E-03  4.7078E-03 -1.2608E-01  1.2618E-01
ac ID =   33377                -5.1424E-01  1.3928E-02 -7.2623E-02  5.1953E-01
                               -3.7068E-01  1.0723E+01 -4.7206E+01  2.5147E+03

           1    4.10009E+00    -1.8400E-02 -1.0707E-02 -5.8473E-02  6.2228E-02
ac ID =   33377                -9.6883E-02 -4.8991E-01 -1.6033E-02  4.9965E-01
                               -3.7056E-01  1.0727E+01 -4.7218E+01  2.5147E+03

           1    4.20008E+00     5.5758E-04 -1.0108E-02 -1.1263E-01  1.1309E-01
ac ID =   33377                 1.5217E-02  6.0807E-02 -1.4364E-01  1.5673E-01
                               -3.7058E-01  1.0730E+01 -4.7229E+01  2.5147E+03

           1    4.30007E+00    -3.3723E-03  1.0849E-02 -2.2166E-01  2.2195E-01
ac ID =   33377                -2.5455E-01  3.6995E-02 -1.3720E-01  2.9153E-01
                               -3.7070E-01  1.0733E+01 -4.7239E+01  2.5147E+03

           1    4.40006E+00     1.1065E-02  2.0275E-02 -2.0714E-01  2.0842E-01
ac ID =   33377                -5.5990E-01  6.3411E-01 -1.0926E-01  8.5295E-01
                               -3.7070E-01  1.0736E+01 -4.7250E+01  2.5147E+03

           1    4.50005E+00    -8.4873E-03 -1.7344E-02 -9.7207E-02  9.9106E-02
ac ID =   33377                 6.0388E-01 -7.4221E-03 -3.4537E-01  6.9571E-01
                               -3.7063E-01  1.0740E+01 -4.7261E+01  2.5147E+03

           1    4.60004E+00     1.4702E-03 -2.6209E-02 -1.2228E-01  1.2507E-01
ac ID =   33377                 6.8367E-01  2.7252E-01 -1.9723E-01  7.6195E-01
                               -3.7060E-01  1.0743E+01 -4.7271E+01  2.5147E+03

           1    4.70003E+00     3.0028E-03  1.8873E-02 -2.0436E-01  2.0525E-01
ac ID =   33377                -3.6061E-01  2.5970E-01 -2.0886E-01  4.9102E-01
                               -3.7066E-01  1.0745E+01 -4.7281E+01  2.5147E+03

           1    4.80002E+00    -2.1946E-03  2.0979E-02 -2.4942E-01  2.5031E-01
ac ID =   33377                -6.0707E-01  8.6869E-02 -6.5369E-02  6.1673E-01
                               -3.7064E-01  1.0747E+01 -4.7291E+01  2.5147E+03

           1    4.90001E+00    -4.6896E-03 -1.3831E-03 -1.7536E-01  1.7543E-01
ac ID =   33377                -3.1815E-01 -1.1977E-01 -2.9819E-02  3.4126E-01
                               -3.7046E-01  1.0750E+01 -4.7301E+01  2.5147E+03

           1    5.00000E+00    -8.9080E-04 -1.2630E-02 -1.1696E-01  1.1764E-01
ac ID =   33377                -2.8076E-01  5.5228E-03 -2.7111E-02  2.8212E-01
                               -3.7030E-01  1.0752E+01 -4.7310E+01  2.5147E+03

           1    5.10049E+00     1.1064E-02  1.6856E-02 -2.0609E-01  2.0707E-01
ac ID =   33377                -5.7868E-01  4.0459E-01  1.5414E-01  7.2272E-01
                               -3.7024E-01  1.0753E+01 -4.7319E+01  2.5147E+03

           1    5.20048E+00    -1.0157E-02  5.4729E-03 -2.4836E-01  2.4863E-01
ac ID =   33377                -1.0727E-01  2.3573E-01 -9.6333E-02  2.7632E-01
                               -3.7017E-01  1.0755E+01 -4.7327E+01  2.5147E+03

           1    5.30047E+00     1.3618E-03 -1.2519E-03 -2.0979E-01  2.0980E-01
ac ID =   33377                -1.9181E-01  1.9824E-01 -1.3694E-01  3.0796E-01
                               -3.7006E-01  1.0756E+01 -4.7336E+01  2.5147E+03

           1    5.40046E+00     1.4278E-02 -4.3726E-03 -1.5321E-01  1.5394E-01
ac ID =   33377                 4.6885E-01  9.5174E-02  1.5499E-01  5.0289E-01
                               -3.6991E-01  1.0757E+01 -4.7344E+01  2.5147E+03

           1    5.50045E+00     9.0178E-03  4.0580E-03 -2.3404E-01  2.3425E-01
ac ID =   33377                -1.9300E-01  4.0708E-01  7.2866E-02  4.5637E-01
                               -3.6975E-01  1.0758E+01 -4.7352E+01  2.5147E+03

           1    5.60044E+00    -2.0272E-02 -3.5752E-03 -2.9650E-01  2.9721E-01
ac ID =   33377                -9.4527E-04  9.0853E-02 -1.2648E-01  1.5573E-01
                               -3.6961E-01  1.0759E+01 -4.7359E+01  2.5147E+03

           1    5.70043E+00     9.5671E-03  4.0387E-03 -3.0605E-01  3.0623E-01
ac ID =   33377                -7.4097E-01  5.2361E-01  1.7546E-01  9.2411E-01
                               -3.6943E-01  1.0759E+01 -4.7366E+01  2.5147E+03

           1    5.80042E+00     2.0888E-02  9.3257E-03 -2.4609E-01  2.4715E-01
ac ID =   33377                -3.5328E-01  3.5277E-01  2.0839E-01  5.4100E-01
                               -3.6930E-01  1.0759E+01 -4.7372E+01  2.5147E+03

           1    5.90041E+00     4.7619E-03 -2.9318E-03 -2.3425E-01  2.3431E-01
ac ID =   33377                -4.9285E-01  1.3696E-01  2.3041E-01  5.6102E-01
                               -3.6919E-01  1.0759E+01 -4.7378E+01  2.5147E+03

           1    6.00040E+00     1.0819E-02  1.3716E-02 -2.8320E-01  2.8374E-01
ac ID =   33377                -4.5481E-01  4.4412E-01  2.1267E-01  6.7031E-01
                               -3.6911E-01  1.0758E+01 -4.7384E+01  2.5147E+03

           1    6.10039E+00     1.5069E-02 -1.2557E-02 -2.9238E-01  2.9304E-01
ac ID =   33377                -9.7196E-02  3.5454E-01 -1.2237E-01  3.8745E-01
                               -3.6905E-01  1.0758E+01 -4.7389E+01  2.5147E+03

           1    6.20038E+00     8.3441E-03 -5.9456E-03 -2.3963E-01  2.3985E-01
ac ID =   33377                 4.0612E-02 -9.7004E-02 -1.9536E-01  2.2187E-01
                               -3.6906E-01  1.0757E+01 -4.7394E+01  2.5147E+03

           1    6.30037E+00     1.7928E-02  6.6191E-04 -2.3438E-01  2.3507E-01
ac ID =   33377                -7.8116E-02  7.1005E-02 -2.1785E-02  1.0779E-01
                               -3.6906E-01  1.0757E+01 -4.7398E+01  2.5147E+03

           1    6.40036E+00     1.6953E-02  6.0646E-03 -3.1563E-01  3.1614E-01
ac ID =   33377                -2.3256E-01  5.0383E-01  1.1973E-01  5.6768E-01
                               -3.6903E-01  1.0756E+01 -4.7402E+01  2.5147E+03

           1    6.50035E+00     2.1234E-02 -5.8952E-04 -3.4092E-01  3.4158E-01
ac ID =   33377                -3.6831E-01  6.4839E-01  6.2155E-02  7.4828E-01
                               -3.6895E-01  1.0756E+01 -4.7406E+01  2.5147E+03

           1    6.60034E+00     3.6008E-02 -3.5425E-04 -3.0819E-01  3.1029E-01
ac ID =   33377                -5.7634E-01  9.4630E-01  1.4311E-01  1.1172E+00
                               -3.6890E-01  1.0757E+01 -4.7410E+01  2.5147E+03

           1    6.70033E+00     4.0089E-02  1.1052E-02 -2.8448E-01  2.8750E-01
ac ID =   33377                -7.4230E-01  7.9465E-01 -7.8086E-02  1.0902E+00
                               -3.6892E-01  1.0757E+01 -4.7414E+01  2.5147E+03

           1    6.80032E+00     3.2402E-02  1.5016E-02 -3.0911E-01  3.1116E-01
ac ID =   33377                -9.1392E-01  6.5941E-01  3.3248E-02  1.1275E+00
                               -3.6895E-01  1.0758E+01 -4.7417E+01  2.5147E+03

           1    6.90031E+00     4.0178E-02  4.0514E-03 -3.6156E-01  3.6381E-01
ac ID =   33377                -2.8794E-01  9.8932E-01 -2.3027E-02  1.0306E+00
                               -3.6892E-01  1.0760E+01 -4.7420E+01  2.5147E+03

           1    7.00030E+00     5.4923E-02 -1.4297E-03 -3.6811E-01  3.7219E-01
ac ID =   33377                -5.6374E-01  1.1913E+00 -1.0835E-01  1.3224E+00
                               -3.6889E-01  1.0763E+01 -4.7423E+01  2.5147E+03

           1    7.10029E+00     4.3487E-02  1.6343E-02 -3.3447E-01  3.3768E-01
ac ID =   33377                -2.4719E-01  6.1812E-01  2.7528E-01  7.2038E-01
                               -3.6886E-01  1.0766E+01 -4.7427E+01  2.5147E+03

           1    7.20028E+00     6.4020E-02 -1.6908E-03 -3.9444E-01  3.9961E-01
ac ID =   33377                -2.2474E-01  1.4591E+00  3.1914E-01  1.5104E+00
                               -3.6881E-01  1.0771E+01 -4.7430E+01  2.5147E+03

           1    7.30027E+00     7.5291E-02  6.9554E-03 -4.8084E-01  4.8675E-01
ac ID =   33377                -3.4894E-01  1.7567E+00  6.9145E-02  1.7924E+00
                               -3.6877E-01  1.0777E+01 -4.7434E+01  2.5147E+03

           1    7.40026E+00     7.6271E-02  2.8449E-03 -4.9472E-01  5.0057E-01
ac ID =   33377                -5.9009E-01  2.1007E+00  9.9024E-03  2.1820E+00
                               -3.6875E-01  1.0785E+01 -4.7438E+01  2.5147E+03

           1    7.50025E+00     9.6416E-02  1.1884E-02 -4.6036E-01  4.7050E-01
ac ID =   33377                -5.2477E-01  2.3592E+00  1.5183E-01  2.4216E+00
                               -3.6874E-01  1.0794E+01 -4.7442E+01  2.5147E+03

           1    7.60024E+00     9.3150E-02 -3.5813E-03 -4.7027E-01  4.7942E-01
ac ID =   33377                -3.7686E-01  2.4406E+00  1.8336E-01  2.4764E+00
                               -3.6876E-01  1.0805E+01 -4.7447E+01  2.5147E+03

           1    7.70023E+00     9.4291E-02  1.5344E-02 -5.1667E-01  5.2542E-01
ac ID =   33377                -6.2887E-01  2.4710E+00 -2.3836E-03  2.5498E+00
                               -3.6883E-01  1.0817E+01 -4.7452E+01  2.5147E+03

           1    7.80022E+00     9.4785E-02  3.2220E-03 -5.5189E-01  5.5998E-01
ac ID =   33377                -3.7621E-01  2.3832E+00 -1.3410E-01  2.4165E+00
                               -3.6888E-01  1.0832E+01 -4.7457E+01  2.5147E+03

           1    7.90021E+00     1.0890E-01 -5.8332E-03 -5.4585E-01  5.5664E-01
ac ID =   33377                -2.5877E-01  2.5013E+00  1.1518E-02  2.5147E+00
                               -3.6898E-01  1.0849E+01 -4.7464E+01  2.5147E+03

           1    8.00020E+00     1.1622E-01  9.2790E-03 -5.4801E-01  5.6027E-01
ac ID =   33377                -2.8669E-01  2.7224E+00  1.5607E-01  2.7419E+00
                               -3.6913E-01  1.0868E+01 -4.7471E+01  2.5147E+03

           1    8.10019E+00     1.3551E-01  6.9781E-03 -6.3478E-01  6.4912E-01
ac ID =   33377                -5.2885E-01  3.3919E+00  3.8049E-01  3.4539E+00
                               -3.6929E-01  1.0890E+01 -4.7479E+01  2.5147E+03

           1    8.20018E+00     1.3812E-01  9.2437E-03 -6.9134E-01  7.0507E-01
ac ID =   33377                -4.5994E-01  3.8726E+00  1.8600E-01  3.9043E+00
                               -3.6942E-01  1.0914E+01 -4.7487E+01  2.5147E+03

           1    8.30017E+00     1.3824E-01 -5.0092E-03 -7.0379E-01  7.1726E-01
ac ID =   33377                -8.2701E-01  4.0800E+00 -1.9263E-01  4.1674E+00
                               -3.6954E-01  1.0941E+01 -4.7497E+01  2.5147E+03

           1    8.40016E+00     1.5123E-01  1.4715E-02 -7.0948E-01  7.2557E-01
ac ID =   33377                -5.5041E-01  4.2435E+00 -3.1982E-01  4.2909E+00
                               -3.6975E-01  1.0971E+01 -4.7508E+01  2.5147E+03

           1    8.50015E+00     1.5355E-01 -6.5535E-03 -7.5644E-01  7.7189E-01
ac ID =   33377                -5.9440E-01  4.3975E+00  4.0537E-02  4.4376E+00
                               -3.6994E-01  1.1003E+01 -4.7519E+01  2.5147E+03

           1    8.60014E+00     1.5294E-01  7.4663E-03 -8.3131E-01  8.4529E-01
ac ID =   33377                -3.0457E-01  4.5387E+00 -7.8259E-02  4.5496E+00
                               -3.7024E-01  1.1039E+01 -4.7532E+01  2.5147E+03

           1    8.70013E+00     1.5616E-01  6.3444E-03 -8.7138E-01  8.8528E-01
ac ID =   33377                -6.5793E-01  4.6480E+00 -8.5696E-02  4.6951E+00
                               -3.7054E-01  1.1078E+01 -4.7546E+01  2.5147E+03

           1    8.80012E+00     1.7123E-01  1.6461E-02 -8.9289E-01  9.0931E-01
ac ID =   33377                -5.0097E-01  4.9497E+00  4.1635E-02  4.9751E+00
                               -3.7079E-01  1.1120E+01 -4.7561E+01  2.5147E+03

           1    8.90011E+00     1.7748E-01 -4.2048E-03 -9.5468E-01  9.7105E-01
ac ID =   33377                -3.8731E-01  5.3521E+00 -5.7758E-04  5.3661E+00
                               -3.7103E-01  1.1165E+01 -4.7577E+01  2.5147E+03

           1    9.00010E+00     1.8284E-01  7.1986E-03 -1.0359E+00  1.0519E+00
ac ID =   33377                -4.8801E-01  5.7269E+00  6.9878E-02  5.7481E+00
                               -3.7129E-01  1.1214E+01 -4.7594E+01  2.5147E+03

           1    9.10009E+00     1.8851E-01  1.5641E-02 -1.0852E+00  1.1015E+00
ac ID =   33377                -8.2633E-01  6.0198E+00  1.3372E-01  6.0778E+00
                               -3.7161E-01  1.1266E+01 -4.7612E+01  2.5147E+03

           1    9.20008E+00     2.0469E-01  1.3485E-02 -1.1222E+00  1.1408E+00
ac ID =   33377                -8.6543E-01  6.3747E+00  2.2785E-01  6.4372E+00
                               -3.7191E-01  1.1321E+01 -4.7631E+01  2.5147E+03

           1    9.30007E+00     1.9174E-01  7.5157E-03 -1.1533E+00  1.1692E+00
ac ID =   33377                -6.6926E-01  5.9757E+00 -1.3358E-01  6.0146E+00
                               -3.7220E-01  1.1380E+01 -4.7651E+01  2.5147E+03

           1    9.40006E+00     1.9603E-01  1.2647E-02 -1.2428E+00  1.2582E+00
ac ID =   33377                -9.6546E-01  6.4987E+00 -2.5613E-01  6.5750E+00
                               -3.7249E-01  1.1442E+01 -4.7672E+01  2.5147E+03

           1    9.50005E+00     2.1809E-01  1.2727E-02 -1.3270E+00  1.3449E+00
ac ID =   33377                -8.0654E-01  7.0579E+00 -1.7619E-01  7.1060E+00
                               -3.7280E-01  1.1507E+01 -4.7693E+01  2.5147E+03

           1    9.60004E+00     2.1048E-01 -1.4366E-03 -1.3612E+00  1.3773E+00
ac ID =   33377                -5.5615E-01  7.5182E+00 -1.4718E-02  7.5387E+00
                               -3.7315E-01  1.1577E+01 -4.7716E+01  2.5147E+03

           1    9.70003E+00     2.2086E-01  7.5959E-03 -1.4034E+00  1.4207E+00
ac ID =   33377                -5.2338E-01  7.9147E+00 -1.8082E-02  7.9320E+00
                               -3.7353E-01  1.1649E+01 -4.7740E+01  2.5147E+03

           1    9.80002E+00     2.3560E-01  2.1060E-03 -1.4804E+00  1.4990E+00
ac ID =   33377                -7.9638E-01  8.4482E+00  7.0793E-02  8.4860E+00
                               -3.7398E-01  1.1726E+01 -4.7765E+01  2.5147E+03

           1    9.90001E+00     2.5428E-01  1.0711E-02 -1.5611E+00  1.5817E+00
ac ID =   33377                -5.8224E-01  8.8808E+00  3.6985E-04  8.8999E+00
                               -3.7450E-01  1.1805E+01 -4.7790E+01  2.5147E+03

           1    1.00005E+01     2.4039E-01 -7.6056E-04 -1.6398E+00  1.6573E+00
ac ID =   33377                -9.2899E-01  9.0353E+00  6.1411E-02  9.0832E+00
                               -3.7503E-01  1.1889E+01 -4.7816E+01  2.5147E+03

           1    1.01005E+01     2.5636E-01  3.9917E-03 -1.7194E+00  1.7384E+00
ac ID =   33377                -9.5112E-01  9.6342E+00  8.9396E-02  9.6815E+00
                               -3.7567E-01  1.1976E+01 -4.7843E+01  2.5147E+03

           1    1.02005E+01     2.6977E-01  1.0728E-02 -1.8049E+00  1.8250E+00
ac ID =   33377                -1.2240E+00  1.0326E+01 -1.2280E-01  1.0399E+01
                               -3.7642E-01  1.2066E+01 -4.7870E+01  2.5147E+03

           1    1.03005E+01     2.7021E-01  1.4468E-04 -1.9309E+00  1.9497E+00
ac ID =   33377                -8.4106E-01  1.0902E+01 -1.1326E-01  1.0935E+01
                               -3.7720E-01  1.2160E+01 -4.7898E+01  2.5147E+03

           1    1.04005E+01     2.7949E-01  4.8026E-03 -2.0170E+00  2.0363E+00
ac ID =   33377                -1.0095E+00  1.1359E+01 -2.4645E-02  1.1404E+01
                               -3.7804E-01  1.2257E+01 -4.7925E+01  2.5147E+03

           1    1.05004E+01     2.9515E-01  6.6628E-03 -2.0603E+00  2.0813E+00
ac ID =   33377                -9.3355E-01  1.2162E+01 -3.2018E-03  1.2198E+01
                               -3.7894E-01  1.2357E+01 -4.7954E+01  2.5147E+03

           1    1.06004E+01     2.9995E-01 -6.8870E-03 -2.1375E+00  2.1584E+00
ac ID =   33377                -5.2768E-01  1.2409E+01  1.6244E-01  1.2422E+01
                               -3.7984E-01  1.2461E+01 -4.7982E+01  2.5147E+03

           1    1.07004E+01     3.1012E-01  3.3775E-04 -2.2332E+00  2.2546E+00
ac ID =   33377                -7.8016E-01  1.3207E+01  1.9654E-02  1.3230E+01
                               -3.8086E-01  1.2568E+01 -4.8011E+01  2.5147E+03

           1    1.08004E+01     3.2375E-01  1.1276E-02 -2.3417E+00  2.3640E+00
ac ID =   33377                -1.0543E+00  1.3844E+01 -1.6253E-01  1.3885E+01
                               -3.8187E-01  1.2679E+01 -4.8039E+01  2.5147E+03

           1    1.09004E+01     3.1094E-01  7.9228E-03 -2.4291E+00  2.4489E+00
ac ID =   33377                -1.2009E+00  1.4051E+01 -2.5213E-01  1.4104E+01
                               -3.8291E-01  1.2792E+01 -4.8067E+01  2.5147E+03

           1    1.10004E+01     3.2889E-01  3.2040E-04 -2.4862E+00  2.5078E+00
ac ID =   33377                -9.2255E-01  1.4622E+01 -2.1295E-01  1.4653E+01
                               -3.8396E-01  1.2909E+01 -4.8095E+01  2.5147E+03

           1    1.11004E+01     3.4359E-01 -3.0898E-03 -2.5955E+00  2.6182E+00
ac ID =   33377                -1.2920E+00  1.5566E+01 -1.1194E-01  1.5620E+01
                               -3.8514E-01  1.3028E+01 -4.8122E+01  2.5147E+03

           1    1.12004E+01     3.3795E-01  1.8900E-02 -2.6894E+00  2.7106E+00
ac ID =   33377                -1.1215E+00  1.6289E+01 -1.1529E-01  1.6328E+01
                               -3.8647E-01  1.3150E+01 -4.8149E+01  2.5147E+03

           1    1.13004E+01     3.5334E-01 -6.6515E-03 -2.7446E+00  2.7673E+00
ac ID =   33377                -1.0447E+00  1.7059E+01 -2.8360E-02  1.7091E+01
                               -3.8776E-01  1.3275E+01 -4.8174E+01  2.5147E+03

           1    1.14004E+01     3.6734E-01 -6.9680E-03 -2.8100E+00  2.8339E+00
ac ID =   33377                -6.6393E-01  1.7644E+01 -1.2224E-01  1.7656E+01
                               -3.8924E-01  1.3402E+01 -4.8199E+01  2.5147E+03

           1    1.15003E+01     3.5962E-01 -3.9000E-04 -2.8750E+00  2.8974E+00
ac ID =   33377                -9.6586E-01  1.8121E+01 -4.2132E-02  1.8147E+01
                               -3.9077E-01  1.3531E+01 -4.8222E+01  2.5147E+03

           1    1.16003E+01     3.6829E-01 -4.1316E-04 -2.9736E+00  2.9963E+00
ac ID =   33377                -9.5630E-01  1.8593E+01 -6.3705E-03  1.8617E+01
                               -3.9241E-01  1.3662E+01 -4.8243E+01  2.5147E+03

           1    1.17003E+01     3.7555E-01 -5.0539E-03 -3.0629E+00  3.0858E+00
ac ID =   33377                -9.3823E-01  1.9451E+01 -2.6863E-02  1.9474E+01
                               -3.9416E-01  1.3795E+01 -4.8263E+01  2.5147E+03

           1    1.18003E+01     3.9012E-01  2.9124E-03 -3.1543E+00  3.1784E+00
ac ID =   33377                -1.2431E+00  2.0578E+01  4.7637E-02  2.0616E+01
                               -3.9605E-01  1.3929E+01 -4.8281E+01  2.5147E+03

           1    1.19003E+01     3.8966E-01  3.1639E-03 -3.2374E+00  3.2608E+00
ac ID =   33377                -1.3000E+00  2.1307E+01 -4.5764E-02  2.1346E+01
                               -3.9803E-01  1.4066E+01 -4.8297E+01  2.5147E+03

           1    1.20003E+01     3.9147E-01  4.2054E-03 -3.3083E+00  3.3314E+00
ac ID =   33377                -1.2867E+00  2.2055E+01 -3.7491E-01  2.2096E+01
                               -4.0012E-01  1.4203E+01 -4.8309E+01  2.5147E+03

           1    1.21003E+01     4.2989E-01 -1.7135E-03 -3.4139E+00  3.4408E+00
ac ID =   33377                -9.8357E-01  2.3326E+01 -7.4031E-01  2.3358E+01
                               -4.0226E-01  1.4341E+01 -4.8320E+01  2.5147E+03

           1    1.22003E+01     3.8855E-01 -1.0965E-02 -3.4382E+00  3.4601E+00
ac ID =   33377                -1.0421E+00  2.2930E+01 -4.8874E-01  2.2959E+01
                               -4.0445E-01  1.4481E+01 -4.8328E+01  2.5147E+03

           1    1.23003E+01     4.4306E-01 -3.2593E-04 -3.5049E+00  3.5328E+00
ac ID =   33377                -9.1112E-01  2.4442E+01 -3.6474E-01  2.4461E+01
                               -4.0682E-01  1.4621E+01 -4.8332E+01  2.5147E+03

           1    1.24003E+01     4.2416E-01 -5.9100E-03 -3.5703E+00  3.5954E+00
ac ID =   33377                -1.0057E+00  2.4821E+01  4.3808E-02  2.4841E+01
                               -4.0919E-01  1.4761E+01 -4.8334E+01  2.5147E+03

           1    1.25002E+01     4.1897E-01 -5.8337E-03 -3.6317E+00  3.6558E+00
ac ID =   33377                -9.7623E-01  2.5068E+01 -1.7371E-02  2.5087E+01
                               -4.1164E-01  1.4902E+01 -4.8332E+01  2.5147E+03

           1    1.26002E+01     4.4528E-01  2.6311E-03 -3.7103E+00  3.7370E+00
ac ID =   33377                -1.1169E+00  2.6612E+01 -5.1326E-01  2.6640E+01
                               -4.1424E-01  1.5043E+01 -4.8326E+01  2.5147E+03

           1    1.27002E+01     4.5726E-01  9.0650E-04 -3.7407E+00  3.7685E+00
ac ID =   33377                -1.3931E+00  2.7024E+01 -1.1551E-01  2.7060E+01
                               -4.1681E-01  1.5184E+01 -4.8317E+01  2.5147E+03

           1    1.28002E+01     4.3169E-01 -3.4978E-03 -3.7801E+00  3.8047E+00
ac ID =   33377                -1.1412E+00  2.7645E+01 -5.0899E-01  2.7674E+01
                               -4.1955E-01  1.5325E+01 -4.8304E+01  2.5147E+03

           1    1.29002E+01     4.7560E-01 -1.2285E-02 -3.8328E+00  3.8622E+00
ac ID =   33377                -1.0313E+00  2.8630E+01 -7.0680E-01  2.8658E+01
                               -4.2239E-01  1.5466E+01 -4.8287E+01  2.5147E+03

           1    1.30002E+01     4.8550E-01  4.7172E-03 -3.8752E+00  3.9055E+00
ac ID =   33377                -1.3982E+00  2.9199E+01 -7.1357E-01  2.9241E+01
                               -4.2531E-01  1.5606E+01 -4.8265E+01  2.5147E+03

           1    1.31002E+01     4.5445E-01 -1.1967E-02 -3.8972E+00  3.9237E+00
ac ID =   33377                -8.6075E-01  2.9196E+01 -5.2349E-01  2.9214E+01
                               -4.2828E-01  1.5746E+01 -4.8240E+01  2.5147E+03

           1    1.32002E+01     4.6348E-01 -1.4826E-02 -3.9115E+00  3.9389E+00
ac ID =   33377                -7.0623E-01  2.9789E+01  6.9377E-02  2.9797E+01
                               -4.3130E-01  1.5885E+01 -4.8210E+01  2.5147E+03

           1    1.33002E+01     5.0848E-01 -5.0947E-03 -3.9616E+00  3.9941E+00
ac ID =   33377                -1.1458E+00  3.1035E+01 -1.4897E-01  3.1057E+01
                               -4.3442E-01  1.6023E+01 -4.8176E+01  2.5147E+03

           1    1.34002E+01     4.8638E-01  4.6199E-03 -3.9851E+00  4.0146E+00
ac ID =   33377                -1.3104E+00  3.1069E+01 -4.3634E-01  3.1100E+01
                               -4.3758E-01  1.6161E+01 -4.8137E+01  2.5147E+03

           1    1.35001E+01     4.8676E-01 -2.3620E-02 -4.0162E+00  4.0456E+00
ac ID =   33377                -6.4831E-01  3.2275E+01 -7.5861E-01  3.2291E+01
                               -4.4081E-01  1.6298E+01 -4.8094E+01  2.5147E+03

           1    1.36001E+01     5.0398E-01  2.6718E-04 -4.0071E+00  4.0387E+00
ac ID =   33377                -1.5878E+00  3.2925E+01 -3.5967E-02  3.2963E+01
                               -4.4411E-01  1.6434E+01 -4.8046E+01  2.5147E+03

           1    1.37001E+01     5.0398E-01  8.9702E-03 -4.0257E+00  4.0572E+00
ac ID =   33377                -1.1628E+00  3.3361E+01  4.1924E-02  3.3382E+01
                               -4.4757E-01  1.6568E+01 -4.7994E+01  2.5147E+03

           1    1.38001E+01     4.9711E-01 -1.4697E-02 -4.0225E+00  4.0531E+00
ac ID =   33377                -1.1062E+00  3.3717E+01  1.6284E-01  3.3736E+01
                               -4.5095E-01  1.6702E+01 -4.7937E+01  2.5147E+03

           1    1.39001E+01     5.1783E-01 -8.6109E-03 -4.0156E+00  4.0488E+00
ac ID =   33377                -8.5626E-01  3.3760E+01 -8.9376E-02  3.3771E+01
                               -4.5441E-01  1.6835E+01 -4.7875E+01  2.5147E+03

           1    1.40001E+01     5.0997E-01  5.9888E-04 -3.9927E+00  4.0251E+00
ac ID =   33377                -1.3921E+00  3.4283E+01 -4.6083E-01  3.4314E+01
                               -4.5798E-01  1.6967E+01 -4.7809E+01  2.5147E+03

           1    1.41001E+01     5.1518E-01 -2.4061E-03 -3.9832E+00  4.0164E+00
ac ID =   33377                -1.0487E+00  3.4699E+01 -2.2341E-01  3.4715E+01
                               -4.6154E-01  1.7098E+01 -4.7738E+01  2.5147E+03

           1    1.42001E+01     5.0118E-01 -1.9175E-02 -3.9677E+00  3.9993E+00
ac ID =   33377                -1.0737E+00  3.4835E+01 -4.4771E-01  3.4855E+01
                               -4.6510E-01  1.7227E+01 -4.7663E+01  2.5147E+03

           1    1.43001E+01     5.1637E-01  7.3314E-03 -3.9251E+00  3.9590E+00
ac ID =   33377                -1.2908E+00  3.5325E+01 -4.2776E-01  3.5351E+01
                               -4.6881E-01  1.7356E+01 -4.7583E+01  2.5147E+03

           1    1.44001E+01     5.1555E-01 -2.2512E-03 -3.8621E+00  3.8963E+00
ac ID =   33377                -1.5396E+00  3.5589E+01 -2.8140E-01  3.5623E+01
                               -4.7248E-01  1.7484E+01 -4.7499E+01  2.5147E+03

           1    1.45000E+01     5.0359E-01 -1.7840E-02 -3.8116E+00  3.8447E+00
ac ID =   33377                -9.6170E-01  3.5524E+01  7.0226E-02  3.5537E+01
                               -4.7625E-01  1.7610E+01 -4.7410E+01  2.5147E+03

           1    1.46000E+01     5.2893E-01  1.6608E-03 -3.7881E+00  3.8248E+00
ac ID =   33377                -1.5040E+00  3.6010E+01 -3.4297E-01  3.6043E+01
                               -4.8007E-01  1.7735E+01 -4.7317E+01  2.5147E+03

           1    1.47000E+01     5.1710E-01  7.0980E-03 -3.7708E+00  3.8061E+00
ac ID =   33377                -1.3956E+00  3.5694E+01 -6.6132E-01  3.5727E+01
                               -4.8394E-01  1.7860E+01 -4.7220E+01  2.5147E+03

           1    1.48005E+01     5.2511E-01 -4.1571E-03 -3.6822E+00  3.7194E+00
ac ID =   33377                -1.3799E+00  3.5900E+01 -5.9346E-01  3.5932E+01
                               -4.8781E-01  1.7984E+01 -4.7118E+01  2.5147E+03

           1    1.49005E+01     5.3564E-01 -2.3584E-02 -3.6186E+00  3.6581E+00
ac ID =   33377                -7.2847E-01  3.5958E+01 -4.2360E-01  3.5968E+01
                               -4.9175E-01  1.8106E+01 -4.7013E+01  2.5147E+03

           1    1.50005E+01     5.0977E-01 -5.9682E-03 -3.5828E+00  3.6189E+00
ac ID =   33377                -1.1901E+00  3.5952E+01 -2.4379E-01  3.5972E+01
                               -4.9573E-01  1.8228E+01 -4.6904E+01  2.5147E+03

           1    1.51005E+01     5.0524E-01  1.0863E-02 -3.5079E+00  3.5441E+00
ac ID =   33377                -1.4607E+00  3.5358E+01 -4.5096E-01  3.5391E+01
                               -4.9986E-01  1.8349E+01 -4.6792E+01  2.5147E+03

           1    1.52005E+01     5.4607E-01 -1.7891E-02 -3.4416E+00  3.4847E+00
ac ID =   33377                -7.6823E-01  3.6177E+01 -4.7729E-01  3.6188E+01
                               -5.0394E-01  1.8469E+01 -4.6676E+01  2.5147E+03

           1    1.53005E+01     5.1543E-01 -9.8294E-03 -3.3445E+00  3.3840E+00
ac ID =   33377                -1.3888E+00  3.5698E+01 -2.5538E-01  3.5726E+01
                               -5.0800E-01  1.8588E+01 -4.6557E+01  2.5147E+03

           1    1.54005E+01     5.1321E-01  1.1544E-02 -3.3155E+00  3.3550E+00
ac ID =   33377                -1.5512E+00  3.5653E+01 -6.0647E-01  3.5692E+01
                               -5.1224E-01  1.8707E+01 -4.6434E+01  2.5147E+03

           1    1.55004E+01     5.2485E-01  3.0922E-03 -3.2445E+00  3.2867E+00
ac ID =   33377                -1.5238E+00  3.6157E+01 -4.2807E-01  3.6191E+01
                               -5.1645E-01  1.8825E+01 -4.6309E+01  2.5147E+03

           1    1.56004E+01     5.2350E-01 -2.6355E-03 -3.1370E+00  3.1803E+00
ac ID =   33377                -1.0943E+00  3.5889E+01 -8.3801E-02  3.5906E+01
                               -5.2070E-01  1.8943E+01 -4.6180E+01  2.5147E+03

           1    1.57004E+01     5.0090E-01  4.4828E-03 -3.0699E+00  3.1105E+00
ac ID =   33377                -1.7169E+00  3.5767E+01 -1.4273E-01  3.5808E+01
                               -5.2497E-01  1.9061E+01 -4.6050E+01  2.5147E+03

           1    1.58004E+01     5.2104E-01  6.6915E-03 -2.9529E+00  2.9985E+00
ac ID =   33377                -1.4348E+00  3.5619E+01 -3.1853E-01  3.5649E+01
                               -5.2934E-01  1.9178E+01 -4.5917E+01  2.5147E+03

           1    1.59004E+01     5.2559E-01 -6.8563E-03 -2.8694E+00  2.9171E+00
ac ID =   33377                -1.2043E+00  3.5969E+01 -1.6233E-01  3.5990E+01
                               -5.3365E-01  1.9296E+01 -4.5781E+01  2.5147E+03

           1    1.60004E+01     4.8894E-01 -6.0702E-04 -2.7731E+00  2.8159E+00
ac ID =   33377                -1.4660E+00  3.4973E+01 -2.7844E-01  3.5005E+01
                               -5.3799E-01  1.9413E+01 -4.5644E+01  2.5147E+03

           1    1.61004E+01     5.0373E-01  2.2947E-02 -2.6770E+00  2.7241E+00
ac ID =   33377                -1.8760E+00  3.5006E+01  1.1694E-01  3.5056E+01
                               -5.4244E-01  1.9531E+01 -4.5505E+01  2.5147E+03

           1    1.62004E+01     4.8827E-01 -1.9194E-02 -2.5562E+00  2.6025E+00
ac ID =   33377                -1.2570E+00  3.4461E+01  1.4643E-01  3.4484E+01
                               -5.4684E-01  1.9648E+01 -4.5365E+01  2.5147E+03

           1    1.63004E+01     4.9017E-01 -9.5109E-03 -2.4684E+00  2.5166E+00
ac ID =   33377                -1.5317E+00  3.3872E+01 -4.1962E-01  3.3909E+01
                               -5.5141E-01  1.9766E+01 -4.5223E+01  2.5147E+03

