 LSTC 50th% Full_FE H-III Dummy (Beta Version, February 17, 2019)        
                    ls-dyna smp s R16 R16.0_619_d222963 date 03/18/2025

{BEGIN LEGEND}
 Entity #        Title
    22626                                                                                     
{END LEGEND}




 n o d a l   p r i n t   o u t   f o r   t i m e  s t e p       1                              ( at time 0.0000000E+00 )

 nodal point  x-disp     y-disp      z-disp      x-vel       y-vel       z-vel      x-accl      y-accl      z-accl      x-coor      y-coor      z-coor
    22626  0.00000E+00 0.00000E+00 0.00000E+00 0.00000E+00 0.00000E+00-3.12000E+00 0.00000E+00 0.00000E+00 0.00000E+00 4.79642E+01-2.20298E+01 7.33850E+00



 n o d a l   p r i n t   o u t   f o r   t i m e  s t e p       1                              ( at time 0.0000000E+00 )

 nodal point  x-rot      y-rot       z-rot       x-rot vel   y-rot vel   z-rot vel   x-rot acc   y-rot acc   z-rot acc
    22626  0.00000E+00 0.00000E+00 0.00000E+00 0.00000E+00 0.00000E+00 0.00000E+00 0.00000E+00 0.00000E+00 0.00000E+00



 n o d a l   p r i n t   o u t   f o r   t i m e  s t e p     201                              ( at time 9.9989993E-02 )

 nodal point  x-disp     y-disp      z-disp      x-vel       y-vel       z-vel      x-accl      y-accl      z-accl      x-coor      y-coor      z-coor
    22626  8.34722E-07-4.04339E-06-3.12016E-01 4.76725E-05-4.96322E-04-3.12074E+00 4.76773E-04-4.96371E-03-7.42748E-03 4.79642E+01-2.20298E+01 7.02648E+00



 n o d a l   p r i n t   o u t   f o r   t i m e  s t e p     201                              ( at time 9.9989993E-02 )

 nodal point  x-rot      y-rot       z-rot       x-rot vel   y-rot vel   z-rot vel   x-rot acc   y-rot acc   z-rot acc
    22626  9.61353E-09 3.04049E-08 5.27345E-08 1.30718E-06 2.72294E-06 5.21415E-06 1.30731E-05 2.72321E-05 5.21467E-05



 n o d a l   p r i n t   o u t   f o r   t i m e  s t e p     401                              ( at time 1.9997999E-01 )

 nodal point  x-disp     y-disp      z-disp      x-vel       y-vel       z-vel      x-accl      y-accl      z-accl      x-coor      y-coor      z-coor
    22626 -5.12748E-05-5.21503E-04-6.23853E-01-1.09703E-03-1.11123E-02-3.11558E+00-1.14482E-02-1.06170E-01 5.16180E-02 4.79641E+01-2.20303E+01 6.71465E+00



 n o d a l   p r i n t   o u t   f o r   t i m e  s t e p     401                              ( at time 1.9997999E-01 )

 nodal point  x-rot      y-rot       z-rot       x-rot vel   y-rot vel   z-rot vel   x-rot acc   y-rot acc   z-rot acc
    22626  4.60621E-07 1.33024E-06 2.50308E-06 2.63813E-06 1.90612E-05 3.49793E-05 1.33109E-05 1.63399E-04 2.97681E-04



 n o d a l   p r i n t   o u t   f o r   t i m e  s t e p     601                              ( at time 2.9996998E-01 )

 nodal point  x-disp     y-disp      z-disp      x-vel       y-vel       z-vel      x-accl      y-accl      z-accl      x-coor      y-coor      z-coor
    22626 -2.45362E-05-1.97553E-03-9.35239E-01 1.66122E-03-1.60317E-02-3.11416E+00 2.75853E-02-4.91988E-02 1.42350E-02 4.79642E+01-2.20318E+01 6.40326E+00



 n o d a l   p r i n t   o u t   f o r   t i m e  s t e p     601                              ( at time 2.9996998E-01 )

 nodal point  x-rot      y-rot       z-rot       x-rot vel   y-rot vel   z-rot vel   x-rot acc   y-rot acc   z-rot acc
    22626  6.76002E-07 2.41666E-06 4.83645E-06 8.24769E-06 5.39326E-06 1.48281E-05 5.61011E-05-1.36693E-04-2.01532E-04



 n o d a l   p r i n t   o u t   f o r   t i m e  s t e p     801                              ( at time 3.9995997E-01 )

 nodal point  x-disp     y-disp      z-disp      x-vel       y-vel       z-vel      x-accl      y-accl      z-accl      x-coor      y-coor      z-coor
    22626  5.94832E-05-3.57159E-03-1.24663E+00 1.85410E-04-1.73731E-02-3.11354E+00-1.47596E-02-1.34153E-02 6.15181E-03 4.79642E+01-2.20334E+01 6.09187E+00



 n o d a l   p r i n t   o u t   f o r   t i m e  s t e p     801                              ( at time 3.9995997E-01 )

 nodal point  x-rot      y-rot       z-rot       x-rot vel   y-rot vel   z-rot vel   x-rot acc   y-rot acc   z-rot acc
    22626  1.58498E-06 3.68897E-06 6.69856E-06 6.23350E-06 2.43551E-05 3.82700E-05-2.01438E-05 1.89637E-04 2.34442E-04



 n o d a l   p r i n t   o u t   f o r   t i m e  s t e p    1001                              ( at time 4.9994997E-01 )

 nodal point  x-disp     y-disp      z-disp      x-vel       y-vel       z-vel      x-accl      y-accl      z-accl      x-coor      y-coor      z-coor
    22626  7.16719E-05-5.62681E-03-1.55783E+00 8.83450E-04-2.38144E-02-3.11087E+00 6.98109E-03-6.44194E-02 2.66841E-02 4.79643E+01-2.20354E+01 5.78067E+00



 n o d a l   p r i n t   o u t   f o r   t i m e  s t e p    1001                              ( at time 4.9994997E-01 )

 nodal point  x-rot      y-rot       z-rot       x-rot vel   y-rot vel   z-rot vel   x-rot acc   y-rot acc   z-rot acc
    22626  1.50328E-06 6.66161E-06 1.18617E-05-4.84298E-06 4.38722E-05 7.21374E-05-1.10776E-04 1.95190E-04 3.38708E-04



 n o d a l   p r i n t   o u t   f o r   t i m e  s t e p    1201                              ( at time 5.9993996E-01 )

 nodal point  x-disp     y-disp      z-disp      x-vel       y-vel       z-vel      x-accl      y-accl      z-accl      x-coor      y-coor      z-coor
    22626  5.24513E-05-8.12798E-03-1.86888E+00-5.48971E-04-2.60653E-02-3.11087E+00-1.43256E-02-2.25115E-02 7.86860E-05 4.79642E+01-2.20379E+01 5.46962E+00



 n o d a l   p r i n t   o u t   f o r   t i m e  s t e p    1201                              ( at time 5.9993996E-01 )

 nodal point  x-rot      y-rot       z-rot       x-rot vel   y-rot vel   z-rot vel   x-rot acc   y-rot acc   z-rot acc
    22626  1.27207E-06 9.91289E-06 1.78071E-05-2.02304E-06 2.66212E-05 5.34960E-05 2.82022E-05-1.72527E-04-1.86432E-04



 n o d a l   p r i n t   o u t   f o r   t i m e  s t e p    1401                              ( at time 6.9992995E-01 )

 nodal point  x-disp     y-disp      z-disp      x-vel       y-vel       z-vel      x-accl      y-accl      z-accl      x-coor      y-coor      z-coor
    22626  1.93316E-05-1.10065E-02-2.17977E+00 6.89858E-04-3.21923E-02-3.10774E+00 1.23895E-02-6.12766E-02 3.13003E-02 4.79642E+01-2.20408E+01 5.15873E+00



 n o d a l   p r i n t   o u t   f o r   t i m e  s t e p    1401                              ( at time 6.9992995E-01 )

 nodal point  x-rot      y-rot       z-rot       x-rot vel   y-rot vel   z-rot vel   x-rot acc   y-rot acc   z-rot acc
    22626  1.13236E-06 1.31204E-05 2.28103E-05-2.06627E-06 3.77095E-05 5.90389E-05-4.32342E-07 1.10894E-04 5.54343E-05



 n o d a l   p r i n t   o u t   f o r   t i m e  s t e p    1601                              ( at time 7.9991994E-01 )

 nodal point  x-disp     y-disp      z-disp      x-vel       y-vel       z-vel      x-accl      y-accl      z-accl      x-coor      y-coor      z-coor
    22626  1.30590E-04-1.45510E-02-2.49040E+00 1.34880E-03-3.67447E-02-3.10606E+00 6.59009E-03-4.55280E-02 1.68150E-02 4.79643E+01-2.20443E+01 4.84811E+00



 n o d a l   p r i n t   o u t   f o r   t i m e  s t e p    1601                              ( at time 7.9991994E-01 )

 nodal point  x-rot      y-rot       z-rot       x-rot vel   y-rot vel   z-rot vel   x-rot acc   y-rot acc   z-rot acc
    22626  1.06960E-06 1.72672E-05 2.97907E-05 3.21461E-06 4.89510E-05 7.66105E-05 5.28140E-05 1.12426E-04 1.75734E-04



 n o d a l   p r i n t   o u t   f o r   t i m e  s t e p    1801                              ( at time 8.9990994E-01 )

 nodal point  x-disp     y-disp      z-disp      x-vel       y-vel       z-vel      x-accl      y-accl      z-accl      x-coor      y-coor      z-coor
    22626  2.03300E-04-1.81864E-02-2.80106E+00-5.19271E-04-3.63504E-02-3.10747E+00-1.86826E-02 3.94384E-03-1.41754E-02 4.79644E+01-2.20480E+01 4.53745E+00



 n o d a l   p r i n t   o u t   f o r   t i m e  s t e p    1801                              ( at time 8.9990994E-01 )

 nodal point  x-rot      y-rot       z-rot       x-rot vel   y-rot vel   z-rot vel   x-rot acc   y-rot acc   z-rot acc
    22626  1.13014E-06 2.14091E-05 3.68304E-05-1.26199E-06 3.81751E-05 6.87046E-05-4.47705E-05-1.07770E-04-7.90666E-05



 n o d a l   p r i n t   o u t   f o r   t i m e  s t e p    2001                              ( at time 9.9989993E-01 )

 nodal point  x-disp     y-disp      z-disp      x-vel       y-vel       z-vel      x-accl      y-accl      z-accl      x-coor      y-coor      z-coor
    22626  1.03963E-04-2.18885E-02-3.11178E+00-8.38308E-04-3.82527E-02-3.10767E+00-3.19070E-03-1.90252E-02-1.98146E-03 4.79643E+01-2.20517E+01 4.22672E+00



 n o d a l   p r i n t   o u t   f o r   t i m e  s t e p    2001                              ( at time 9.9989993E-01 )

 nodal point  x-rot      y-rot       z-rot       x-rot vel   y-rot vel   z-rot vel   x-rot acc   y-rot acc   z-rot acc
    22626  1.01331E-06 2.56551E-05 4.40934E-05-2.90361E-07 4.65809E-05 8.67257E-05 9.71726E-06 8.40670E-05 1.80229E-04



 n o d a l   p r i n t   o u t   f o r   t i m e  s t e p    2201                              ( at time 1.0998899E+00 )

 nodal point  x-disp     y-disp      z-disp      x-vel       y-vel       z-vel      x-accl      y-accl      z-accl      x-coor      y-coor      z-coor
    22626  8.29600E-05-2.58230E-02-3.42249E+00-2.59857E-04-4.01485E-02-3.10719E+00 5.78510E-03-1.89601E-02 4.80700E-03 4.79643E+01-2.20556E+01 3.91601E+00



 n o d a l   p r i n t   o u t   f o r   t i m e  s t e p    2201                              ( at time 1.0998899E+00 )

 nodal point  x-rot      y-rot       z-rot       x-rot vel   y-rot vel   z-rot vel   x-rot acc   y-rot acc   z-rot acc
    22626  1.15276E-06 3.04668E-05 5.27855E-05 5.94523E-06 4.64817E-05 7.51377E-05 6.23622E-05-9.92468E-07-1.15892E-04



 n o d a l   p r i n t   o u t   f o r   t i m e  s t e p    2401                              ( at time 1.1998799E+00 )

 nodal point  x-disp     y-disp      z-disp      x-vel       y-vel       z-vel      x-accl      y-accl      z-accl      x-coor      y-coor      z-coor
    22626  1.21499E-04-2.98262E-02-3.73324E+00 6.98744E-04-3.96370E-02-3.10860E+00 9.58697E-03 5.11582E-03-1.40586E-02 4.79643E+01-2.20596E+01 3.60526E+00



 n o d a l   p r i n t   o u t   f o r   t i m e  s t e p    2401                              ( at time 1.1998799E+00 )

 nodal point  x-rot      y-rot       z-rot       x-rot vel   y-rot vel   z-rot vel   x-rot acc   y-rot acc   z-rot acc
    22626  1.61757E-06 3.46392E-05 5.96864E-05 5.71024E-06 4.03188E-05 6.65493E-05-2.35020E-06-6.16345E-05-8.58921E-05



 n o d a l   p r i n t   o u t   f o r   t i m e  s t e p    2601                              ( at time 1.2998699E+00 )

 nodal point  x-disp     y-disp      z-disp      x-vel       y-vel       z-vel      x-accl      y-accl      z-accl      x-coor      y-coor      z-coor
    22626  1.30867E-04-3.36492E-02-4.04419E+00-4.47045E-04-3.64370E-02-3.11145E+00-1.14590E-02 3.20031E-02-2.85225E-02 4.79643E+01-2.20634E+01 3.29431E+00



 n o d a l   p r i n t   o u t   f o r   t i m e  s t e p    2601                              ( at time 1.2998699E+00 )

 nodal point  x-rot      y-rot       z-rot       x-rot vel   y-rot vel   z-rot vel   x-rot acc   y-rot acc   z-rot acc
    22626  2.00010E-06 3.87685E-05 6.65986E-05-1.63992E-06 4.59905E-05 8.10754E-05-7.35089E-05 5.67222E-05 1.45276E-04



 n o d a l   p r i n t   o u t   f o r   t i m e  s t e p    2801                              ( at time 1.3998599E+00 )

 nodal point  x-disp     y-disp      z-disp      x-vel       y-vel       z-vel      x-accl      y-accl      z-accl      x-coor      y-coor      z-coor
    22626  1.23879E-05-3.70267E-02-4.35550E+00-1.34195E-03-3.12533E-02-3.11525E+00-8.94990E-03 5.18423E-02-3.79767E-02 4.79642E+01-2.20668E+01 2.98300E+00



 n o d a l   p r i n t   o u t   f o r   t i m e  s t e p    2801                              ( at time 1.3998599E+00 )

 nodal point  x-rot      y-rot       z-rot       x-rot vel   y-rot vel   z-rot vel   x-rot acc   y-rot acc   z-rot acc
    22626  1.67176E-06 4.32144E-05 7.45285E-05-3.70583E-06 4.51370E-05 7.44249E-05-2.06611E-05-8.53624E-06-6.65120E-05



 n o d a l   p r i n t   o u t   f o r   t i m e  s t e p    3001                              ( at time 1.4998499E+00 )

 nodal point  x-disp     y-disp      z-disp      x-vel       y-vel       z-vel      x-accl      y-accl      z-accl      x-coor      y-coor      z-coor
    22626 -9.96390E-05-4.00518E-02-4.66710E+00-4.95761E-04-2.95721E-02-3.11727E+00 8.46270E-03 1.68137E-02-2.01985E-02 4.79641E+01-2.20698E+01 2.67140E+00



 n o d a l   p r i n t   o u t   f o r   t i m e  s t e p    3001                              ( at time 1.4998499E+00 )

 nodal point  x-rot      y-rot       z-rot       x-rot vel   y-rot vel   z-rot vel   x-rot acc   y-rot acc   z-rot acc
    22626  1.38804E-06 4.71917E-05 8.11872E-05-2.84588E-07 3.24464E-05 5.81624E-05 3.42158E-05-1.26919E-04-1.62642E-04



 n o d a l   p r i n t   o u t   f o r   t i m e  s t e p    3201                              ( at time 1.5998399E+00 )

 nodal point  x-disp     y-disp      z-disp      x-vel       y-vel       z-vel      x-accl      y-accl      z-accl      x-coor      y-coor      z-coor
    22626 -1.50592E-04-4.29265E-02-4.97888E+00-7.80333E-04-2.73589E-02-3.11954E+00-2.84600E-03 2.21343E-02-2.27951E-02 4.79640E+01-2.20727E+01 2.35962E+00



 n o d a l   p r i n t   o u t   f o r   t i m e  s t e p    3201                              ( at time 1.5998399E+00 )

 nodal point  x-rot      y-rot       z-rot       x-rot vel   y-rot vel   z-rot vel   x-rot acc   y-rot acc   z-rot acc
    22626  1.21254E-06 5.02755E-05 8.61430E-05-2.44287E-07 3.26748E-05 4.85841E-05 4.03056E-07 2.28473E-06-9.57924E-05



 n o d a l   p r i n t   o u t   f o r   t i m e  s t e p    3401                              ( at time 1.6998299E+00 )

 nodal point  x-disp     y-disp      z-disp      x-vel       y-vel       z-vel      x-accl      y-accl      z-accl      x-coor      y-coor      z-coor
    22626 -2.41716E-04-4.54256E-02-5.29099E+00-1.15134E-03-2.22963E-02-3.12336E+00-3.71043E-03 5.06301E-02-3.81174E-02 4.79639E+01-2.20752E+01 2.04751E+00



 n o d a l   p r i n t   o u t   f o r   t i m e  s t e p    3401                              ( at time 1.6998299E+00 )

 nodal point  x-rot      y-rot       z-rot       x-rot vel   y-rot vel   z-rot vel   x-rot acc   y-rot acc   z-rot acc
    22626  1.10289E-06 5.34137E-05 9.12560E-05-3.02863E-06 3.07996E-05 4.88020E-05-2.78463E-05-1.87535E-05 2.17973E-06



 n o d a l   p r i n t   o u t   f o r   t i m e  s t e p    3601                              ( at time 1.7998199E+00 )

 nodal point  x-disp     y-disp      z-disp      x-vel       y-vel       z-vel      x-accl      y-accl      z-accl      x-coor      y-coor      z-coor
    22626 -3.45129E-04-4.73994E-02-5.60351E+00-1.36098E-03-1.75461E-02-3.12744E+00-2.09659E-03 4.75069E-02-4.07975E-02 4.79638E+01-2.20772E+01 1.73499E+00



 n o d a l   p r i n t   o u t   f o r   t i m e  s t e p    3601                              ( at time 1.7998199E+00 )

 nodal point  x-rot      y-rot       z-rot       x-rot vel   y-rot vel   z-rot vel   x-rot acc   y-rot acc   z-rot acc
    22626  1.05610E-06 5.62744E-05 9.61260E-05 8.40180E-07 2.18777E-05 4.32094E-05 3.86921E-05-8.92287E-05-5.59317E-05



 n o d a l   p r i n t   o u t   f o r   t i m e  s t e p    3801                              ( at time 1.8998099E+00 )

 nodal point  x-disp     y-disp      z-disp      x-vel       y-vel       z-vel      x-accl      y-accl      z-accl      x-coor      y-coor      z-coor
    22626 -5.35319E-04-4.90188E-02-5.91635E+00-2.16043E-03-1.50002E-02-3.12999E+00-7.99529E-03 2.54619E-02-2.55157E-02 4.79636E+01-2.20788E+01 1.42215E+00



 n o d a l   p r i n t   o u t   f o r   t i m e  s t e p    3801                              ( at time 1.8998099E+00 )

 nodal point  x-rot      y-rot       z-rot       x-rot vel   y-rot vel   z-rot vel   x-rot acc   y-rot acc   z-rot acc
    22626  9.41882E-07 5.82352E-05 9.96458E-05 2.78667E-06 1.65365E-05 2.86006E-05 1.94669E-05-5.34173E-05-1.46103E-04



 n o d a l   p r i n t   o u t   f o r   t i m e  s t e p    4001                              ( at time 1.9997999E+00 )

 nodal point  x-disp     y-disp      z-disp      x-vel       y-vel       z-vel      x-accl      y-accl      z-accl      x-coor      y-coor      z-coor
    22626 -7.08716E-04-5.03963E-02-6.22943E+00-1.66124E-03-1.26925E-02-3.13220E+00 4.99240E-03 2.30790E-02-2.20917E-02 4.79635E+01-2.20802E+01 1.10907E+00



 n o d a l   p r i n t   o u t   f o r   t i m e  s t e p    4001                              ( at time 1.9997999E+00 )

 nodal point  x-rot      y-rot       z-rot       x-rot vel   y-rot vel   z-rot vel   x-rot acc   y-rot acc   z-rot acc
    22626  1.25044E-06 5.96584E-05 1.02062E-04 4.63160E-06 1.37726E-05 2.05080E-05 1.84511E-05-2.76418E-05-8.09339E-05



 n o d a l   p r i n t   o u t   f o r   t i m e  s t e p    4201                              ( at time 2.0997899E+00 )

 nodal point  x-disp     y-disp      z-disp      x-vel       y-vel       z-vel      x-accl      y-accl      z-accl      x-coor      y-coor      z-coor
    22626 -8.80111E-04-5.14787E-02-6.54278E+00-1.88520E-03-9.06102E-03-3.13528E+00-2.23990E-03 3.63188E-02-3.08235E-02 4.79633E+01-2.20813E+01 7.95720E-01



 n o d a l   p r i n t   o u t   f o r   t i m e  s t e p    4201                              ( at time 2.0997899E+00 )

 nodal point  x-rot      y-rot       z-rot       x-rot vel   y-rot vel   z-rot vel   x-rot acc   y-rot acc   z-rot acc
    22626  1.65034E-06 6.03255E-05 1.03200E-04-3.67803E-08 3.75508E-06 2.20179E-06-4.66885E-05-1.00185E-04-1.83080E-04



 n o d a l   p r i n t   o u t   f o r   t i m e  s t e p    4401                              ( at time 2.1997798E+00 )

 nodal point  x-disp     y-disp      z-disp      x-vel       y-vel       z-vel      x-accl      y-accl      z-accl      x-coor      y-coor      z-coor
    22626 -1.12182E-03-5.21545E-02-6.85645E+00-2.72497E-03-4.27387E-03-3.13905E+00-8.39850E-03 4.78763E-02-3.76787E-02 4.79631E+01-2.20819E+01 4.82047E-01



 n o d a l   p r i n t   o u t   f o r   t i m e  s t e p    4401                              ( at time 2.1997798E+00 )

 nodal point  x-rot      y-rot       z-rot       x-rot vel   y-rot vel   z-rot vel   x-rot acc   y-rot acc   z-rot acc
    22626  1.57466E-06 6.04252E-05 1.03258E-04-4.43683E-07-8.99566E-07-1.47480E-06-4.06943E-06-4.65512E-05-3.67696E-05



 n o d a l   p r i n t   o u t   f o r   t i m e  s t e p    4601                              ( at time 2.2997698E+00 )

 nodal point  x-disp     y-disp      z-disp      x-vel       y-vel       z-vel      x-accl      y-accl      z-accl      x-coor      y-coor      z-coor
    22626 -1.42840E-03-5.23381E-02-7.17051E+00-3.49621E-03-1.02597E-05-3.14238E+00-7.71322E-03 4.26404E-02-3.33056E-02 4.79628E+01-2.20821E+01 1.67988E-01



 n o d a l   p r i n t   o u t   f o r   t i m e  s t e p    4601                              ( at time 2.2997698E+00 )

 nodal point  x-rot      y-rot       z-rot       x-rot vel   y-rot vel   z-rot vel   x-rot acc   y-rot acc   z-rot acc
    22626  1.25898E-06 6.02032E-05 1.02982E-04-3.70547E-06-8.97275E-06-1.20827E-05-3.26211E-05-8.07398E-05-1.06089E-04



 n o d a l   p r i n t   o u t   f o r   t i m e  s t e p    4801                              ( at time 2.3997598E+00 )

 nodal point  x-disp     y-disp      z-disp      x-vel       y-vel       z-vel      x-accl      y-accl      z-accl      x-coor      y-coor      z-coor
    22626 -1.79534E-03-5.22432E-02-7.48482E+00-3.56259E-03 1.90581E-03-3.14446E+00-6.63797E-04 1.91626E-02-2.08923E-02 4.79624E+01-2.20820E+01-1.46320E-01



 n o d a l   p r i n t   o u t   f o r   t i m e  s t e p    4801                              ( at time 2.3997598E+00 )

 nodal point  x-rot      y-rot       z-rot       x-rot vel   y-rot vel   z-rot vel   x-rot acc   y-rot acc   z-rot acc
    22626  8.32785E-07 5.89980E-05 1.00546E-04-4.72431E-06-1.51598E-05-3.28061E-05-1.01894E-05-6.18762E-05-2.07255E-04



 n o d a l   p r i n t   o u t   f o r   t i m e  s t e p    5001                              ( at time 2.4997498E+00 )

 nodal point  x-disp     y-disp      z-disp      x-vel       y-vel       z-vel      x-accl      y-accl      z-accl      x-coor      y-coor      z-coor
    22626 -2.18513E-03-5.19342E-02-7.79935E+00-4.22774E-03 4.97050E-03-3.14716E+00-6.65223E-03 3.06499E-02-2.69702E-02 4.79620E+01-2.20817E+01-4.60852E-01



 n o d a l   p r i n t   o u t   f o r   t i m e  s t e p    5001                              ( at time 2.4997498E+00 )

 nodal point  x-rot      y-rot       z-rot       x-rot vel   y-rot vel   z-rot vel   x-rot acc   y-rot acc   z-rot acc
    22626  4.94259E-07 5.68442E-05 9.66456E-05-3.14679E-06-2.60401E-05-4.80819E-05 1.57768E-05-1.08814E-04-1.52774E-04



 n o d a l   p r i n t   o u t   f o r   t i m e  s t e p    5201                              ( at time 2.5997398E+00 )

 nodal point  x-disp     y-disp      z-disp      x-vel       y-vel       z-vel      x-accl      y-accl      z-accl      x-coor      y-coor      z-coor
    22626 -2.65584E-03-5.12140E-02-8.11423E+00-5.21606E-03 9.38986E-03-3.15079E+00-9.88419E-03 4.41981E-02-3.63291E-02 4.79615E+01-2.20810E+01-7.75724E-01



 n o d a l   p r i n t   o u t   f o r   t i m e  s t e p    5201                              ( at time 2.5997398E+00 )

 nodal point  x-rot      y-rot       z-rot       x-rot vel   y-rot vel   z-rot vel   x-rot acc   y-rot acc   z-rot acc
    22626  2.11448E-07 5.38252E-05 9.13172E-05-3.83279E-06-3.48970E-05-6.12954E-05-6.86070E-06-8.85780E-05-1.32148E-04



 n o d a l   p r i n t   o u t   f o r   t i m e  s t e p    5401                              ( at time 2.6997298E+00 )

 nodal point  x-disp     y-disp      z-disp      x-vel       y-vel       z-vel      x-accl      y-accl      z-accl      x-coor      y-coor      z-coor
    22626 -3.22084E-03-5.00694E-02-8.42945E+00-6.35642E-03 1.30181E-02-3.15423E+00-1.14047E-02 3.62862E-02-3.43333E-02 4.79610E+01-2.20799E+01-1.09095E+00



 n o d a l   p r i n t   o u t   f o r   t i m e  s t e p    5401                              ( at time 2.6997298E+00 )

 nodal point  x-rot      y-rot       z-rot       x-rot vel   y-rot vel   z-rot vel   x-rot acc   y-rot acc   z-rot acc
    22626 -3.08407E-08 5.01897E-05 8.49186E-05-1.31025E-06-4.05281E-05-6.62101E-05 2.52279E-05-5.63167E-05-4.91523E-05



 n o d a l   p r i n t   o u t   f o r   t i m e  s t e p    5601                              ( at time 2.7997198E+00 )

 nodal point  x-disp     y-disp      z-disp      x-vel       y-vel       z-vel      x-accl      y-accl      z-accl      x-coor      y-coor      z-coor
    22626 -3.92691E-03-4.86431E-02-8.74496E+00-7.58693E-03 1.51858E-02-3.15642E+00-1.23063E-02 2.16793E-02-2.19081E-02 4.79603E+01-2.20784E+01-1.40646E+00



 n o d a l   p r i n t   o u t   f o r   t i m e  s t e p    5601                              ( at time 2.7997198E+00 )

 nodal point  x-rot      y-rot       z-rot       x-rot vel   y-rot vel   z-rot vel   x-rot acc   y-rot acc   z-rot acc
    22626 -8.96814E-08 4.53848E-05 7.68982E-05 1.15455E-06-5.63667E-05-9.72426E-05 2.46505E-05-1.58402E-04-3.10355E-04



 n o d a l   p r i n t   o u t   f o r   t i m e  s t e p    5801                              ( at time 2.8997098E+00 )

 nodal point  x-disp     y-disp      z-disp      x-vel       y-vel       z-vel      x-accl      y-accl      z-accl      x-coor      y-coor      z-coor
    22626 -4.69040E-03-4.70690E-02-9.06066E+00-7.76983E-03 1.61910E-02-3.15812E+00-1.82919E-03 1.00526E-02-1.70153E-02 4.79595E+01-2.20769E+01-1.72216E+00



 n o d a l   p r i n t   o u t   f o r   t i m e  s t e p    5801                              ( at time 2.8997098E+00 )

 nodal point  x-rot      y-rot       z-rot       x-rot vel   y-rot vel   z-rot vel   x-rot acc   y-rot acc   z-rot acc
    22626  1.88857E-07 3.90549E-05 6.61101E-05 3.21568E-06-6.59290E-05-1.14927E-04 2.06135E-05-9.56329E-05-1.76867E-04



 n o d a l   p r i n t   o u t   f o r   t i m e  s t e p    6001                              ( at time 2.9996998E+00 )

 nodal point  x-disp     y-disp      z-disp      x-vel       y-vel       z-vel      x-accl      y-accl      z-accl      x-coor      y-coor      z-coor
    22626 -5.50728E-03-4.53354E-02-9.37654E+00-8.81077E-03 1.86575E-02-3.16046E+00-1.04104E-02 2.46675E-02-2.34603E-02 4.79587E+01-2.20751E+01-2.03804E+00



 n o d a l   p r i n t   o u t   f o r   t i m e  s t e p    6001                              ( at time 2.9996998E+00 )

 nodal point  x-rot      y-rot       z-rot       x-rot vel   y-rot vel   z-rot vel   x-rot acc   y-rot acc   z-rot acc
    22626  5.05112E-07 3.22540E-05 5.45911E-05 1.43193E-06-7.01200E-05-1.20343E-04-1.78393E-05-4.19143E-05-5.41614E-05



 n o d a l   p r i n t   o u t   f o r   t i m e  s t e p    6201                              ( at time 3.0996898E+00 )

 nodal point  x-disp     y-disp      z-disp      x-vel       y-vel       z-vel      x-accl      y-accl      z-accl      x-coor      y-coor      z-coor
    22626 -6.46446E-03-4.33452E-02-9.69268E+00-1.02649E-02 2.06924E-02-3.16246E+00-1.45430E-02 2.03515E-02-1.99648E-02 4.79577E+01-2.20731E+01-2.35417E+00



 n o d a l   p r i n t   o u t   f o r   t i m e  s t e p    6201                              ( at time 3.0996898E+00 )

 nodal point  x-rot      y-rot       z-rot       x-rot vel   y-rot vel   z-rot vel   x-rot acc   y-rot acc   z-rot acc
    22626  5.15325E-07 2.50431E-05 4.21393E-05-1.66475E-06-7.38407E-05-1.31138E-04-3.09699E-05-3.72108E-05-1.07965E-04



 n o d a l   p r i n t   o u t   f o r   t i m e  s t e p    6401                              ( at time 3.1996798E+00 )

 nodal point  x-disp     y-disp      z-disp      x-vel       y-vel       z-vel      x-accl      y-accl      z-accl      x-coor      y-coor      z-coor
    22626 -7.52410E-03-4.13056E-02-1.00089E+01-1.08533E-02 1.97932E-02-3.16305E+00-5.88390E-03-8.99316E-03-5.93721E-03 4.79567E+01-2.20711E+01-2.67043E+00



 n o d a l   p r i n t   o u t   f o r   t i m e  s t e p    6401                              ( at time 3.1996798E+00 )

 nodal point  x-rot      y-rot       z-rot       x-rot vel   y-rot vel   z-rot vel   x-rot acc   y-rot acc   z-rot acc
    22626  4.17364E-07 1.70893E-05 2.86833E-05-1.07368E-06-8.49892E-05-1.43272E-04 5.91122E-06-1.11496E-04-1.21352E-04



 n o d a l   p r i n t   o u t   f o r   t i m e  s t e p    6601                              ( at time 3.2996698E+00 )

 nodal point  x-disp     y-disp      z-disp      x-vel       y-vel       z-vel      x-accl      y-accl      z-accl      x-coor      y-coor      z-coor
    22626 -8.62249E-03-3.94215E-02-1.03252E+01-1.10844E-02 1.78875E-02-3.16275E+00-2.31204E-03-1.90595E-02 3.01630E-03 4.79556E+01-2.20692E+01-2.98669E+00



 n o d a l   p r i n t   o u t   f o r   t i m e  s t e p    6601                              ( at time 3.2996698E+00 )

 nodal point  x-rot      y-rot       z-rot       x-rot vel   y-rot vel   z-rot vel   x-rot acc   y-rot acc   z-rot acc
    22626  1.98000E-07 8.46879E-06 1.40057E-05-2.24839E-06-8.81906E-05-1.50192E-04-1.17482E-05-3.20167E-05-6.92056E-05



 n o d a l   p r i n t   o u t   f o r   t i m e  s t e p    6801                              ( at time 3.3996598E+00 )

 nodal point  x-disp     y-disp      z-disp      x-vel       y-vel       z-vel      x-accl      y-accl      z-accl      x-coor      y-coor      z-coor
    22626 -9.75991E-03-3.77231E-02-1.06414E+01-1.15910E-02 1.61045E-02-3.16267E+00-5.06648E-03-1.78315E-02 7.91628E-04 4.79544E+01-2.20675E+01-3.30293E+00



 n o d a l   p r i n t   o u t   f o r   t i m e  s t e p    6801                              ( at time 3.3996598E+00 )

 nodal point  x-rot      y-rot       z-rot       x-rot vel   y-rot vel   z-rot vel   x-rot acc   y-rot acc   z-rot acc
    22626  1.68422E-07-2.83202E-07-1.12243E-06-2.07616E-06-8.73164E-05-1.52025E-04 1.72247E-06 8.74300E-06-1.83302E-05



 n o d a l   p r i n t   o u t   f o r   t i m e  s t e p    7001                              ( at time 3.4996498E+00 )

 nodal point  x-disp     y-disp      z-disp      x-vel       y-vel       z-vel      x-accl      y-accl      z-accl      x-coor      y-coor      z-coor
    22626 -1.09521E-02-3.61821E-02-1.09577E+01-1.22745E-02 1.46801E-02-3.16295E+00-6.83515E-03-1.42450E-02-2.76832E-03 4.79532E+01-2.20660E+01-3.61918E+00



 n o d a l   p r i n t   o u t   f o r   t i m e  s t e p    7001                              ( at time 3.4996498E+00 )

 nodal point  x-rot      y-rot       z-rot       x-rot vel   y-rot vel   z-rot vel   x-rot acc   y-rot acc   z-rot acc
    22626  2.27433E-07-8.87007E-06-1.58299E-05 8.76911E-07-8.63417E-05-1.46101E-04 2.95337E-05 9.74757E-06 5.92502E-05



 n o d a l   p r i n t   o u t   f o r   t i m e  s t e p    7201                              ( at time 3.5996397E+00 )

 nodal point  x-disp     y-disp      z-disp      x-vel       y-vel       z-vel      x-accl      y-accl      z-accl      x-coor      y-coor      z-coor
    22626 -1.21955E-02-3.48228E-02-1.12739E+01-1.22674E-02 1.21714E-02-3.16266E+00 7.10392E-05-2.50893E-02 2.95192E-03 4.79520E+01-2.20646E+01-3.93544E+00



 n o d a l   p r i n t   o u t   f o r   t i m e  s t e p    7201                              ( at time 3.5996397E+00 )

 nodal point  x-rot      y-rot       z-rot       x-rot vel   y-rot vel   z-rot vel   x-rot acc   y-rot acc   z-rot acc
    22626  2.00902E-07-1.73240E-05-3.00812E-05 1.85595E-06-8.31165E-05-1.36840E-04 9.79140E-06 3.22548E-05 9.26115E-05



 n o d a l   p r i n t   o u t   f o r   t i m e  s t e p    7401                              ( at time 3.6996297E+00 )

 nodal point  x-disp     y-disp      z-disp      x-vel       y-vel       z-vel      x-accl      y-accl      z-accl      x-coor      y-coor      z-coor
    22626 -1.34101E-02-3.37755E-02-1.15901E+01-1.19749E-02 8.80257E-03-3.16166E+00 2.92527E-03-3.36920E-02 9.91204E-03 4.79508E+01-2.20636E+01-4.25162E+00



 n o d a l   p r i n t   o u t   f o r   t i m e  s t e p    7401                              ( at time 3.6996297E+00 )

 nodal point  x-rot      y-rot       z-rot       x-rot vel   y-rot vel   z-rot vel   x-rot acc   y-rot acc   z-rot acc
    22626  4.99215E-07-2.55202E-05-4.37407E-05 4.48941E-06-8.05076E-05-1.35423E-04 2.63372E-05 2.60919E-05 1.41802E-05



 n o d a l   p r i n t   o u t   f o r   t i m e  s t e p    7601                              ( at time 3.7996197E+00 )

 nodal point  x-disp     y-disp      z-disp      x-vel       y-vel       z-vel      x-accl      y-accl      z-accl      x-coor      y-coor      z-coor
    22626 -1.45824E-02-3.30258E-02-1.19062E+01-1.14990E-02 6.16259E-03-3.16099E+00 4.75952E-03-2.64025E-02 6.76939E-03 4.79496E+01-2.20628E+01-4.56772E+00



 n o d a l   p r i n t   o u t   f o r   t i m e  s t e p    7601                              ( at time 3.7996197E+00 )

 nodal point  x-rot      y-rot       z-rot       x-rot vel   y-rot vel   z-rot vel   x-rot acc   y-rot acc   z-rot acc
    22626  9.81109E-07-3.32228E-05-5.68553E-05 5.42790E-06-7.11006E-05-1.20104E-04 9.38579E-06 9.40795E-05 1.53202E-04



 n o d a l   p r i n t   o u t   f o r   t i m e  s t e p    7801                              ( at time 3.8996097E+00 )

 nodal point  x-disp     y-disp      z-disp      x-vel       y-vel       z-vel      x-accl      y-accl      z-accl      x-coor      y-coor      z-coor
    22626 -1.57009E-02-3.25138E-02-1.22223E+01-1.08537E-02 4.33730E-03-3.16090E+00 6.45382E-03-1.82547E-02 8.39316E-04 4.79485E+01-2.20623E+01-4.88378E+00



 n o d a l   p r i n t   o u t   f o r   t i m e  s t e p    7801                              ( at time 3.8996097E+00 )

 nodal point  x-rot      y-rot       z-rot       x-rot vel   y-rot vel   z-rot vel   x-rot acc   y-rot acc   z-rot acc
    22626  1.35278E-06-3.97149E-05-6.78068E-05 8.70722E-07-5.67444E-05-9.43139E-05-4.55762E-05 1.43576E-04 2.57926E-04



 n o d a l   p r i n t   o u t   f o r   t i m e  s t e p    8001                              ( at time 3.9995997E+00 )

 nodal point  x-disp     y-disp      z-disp      x-vel       y-vel       z-vel      x-accl      y-accl      z-accl      x-coor      y-coor      z-coor
    22626 -1.67580E-02-3.21246E-02-1.25384E+01-1.02517E-02 3.34182E-03-3.16124E+00 6.02005E-03-9.95582E-03-3.36681E-03 4.79474E+01-2.20619E+01-5.19986E+00



 n o d a l   p r i n t   o u t   f o r   t i m e  s t e p    8001                              ( at time 3.9995997E+00 )

 nodal point  x-rot      y-rot       z-rot       x-rot vel   y-rot vel   z-rot vel   x-rot acc   y-rot acc   z-rot acc
    22626  1.50450E-06-4.48343E-05-7.62912E-05-1.16223E-07-4.48052E-05-7.77307E-05-9.87046E-06 1.19405E-04 1.65849E-04



 n o d a l   p r i n t   o u t   f o r   t i m e  s t e p    8201                              ( at time 4.0995897E+00 )

 nodal point  x-disp     y-disp      z-disp      x-vel       y-vel       z-vel      x-accl      y-accl      z-accl      x-coor      y-coor      z-coor
    22626 -1.77001E-02-3.19113E-02-1.28544E+01-8.45080E-03 7.27121E-04-3.16076E+00 1.80109E-02-2.61495E-02 4.75454E-03 4.79465E+01-2.20617E+01-5.51593E+00



 n o d a l   p r i n t   o u t   f o r   t i m e  s t e p    8201                              ( at time 4.0995897E+00 )

 nodal point  x-rot      y-rot       z-rot       x-rot vel   y-rot vel   z-rot vel   x-rot acc   y-rot acc   z-rot acc
    22626  1.53367E-06-4.88278E-05-8.30836E-05 5.43023E-07-3.18700E-05-5.54614E-05 6.59311E-06 1.29364E-04 2.22715E-04



 n o d a l   p r i n t   o u t   f o r   t i m e  s t e p    8401                              ( at time 4.1995797E+00 )

 nodal point  x-disp     y-disp      z-disp      x-vel       y-vel       z-vel      x-accl      y-accl      z-accl      x-coor      y-coor      z-coor
    22626 -1.84651E-02-3.19614E-02-1.31704E+01-6.82836E-03-1.63750E-03-3.16015E+00 1.62260E-02-2.36486E-02 6.18282E-03 4.79457E+01-2.20618E+01-5.83194E+00



 n o d a l   p r i n t   o u t   f o r   t i m e  s t e p    8401                              ( at time 4.1995797E+00 )

 nodal point  x-rot      y-rot       z-rot       x-rot vel   y-rot vel   z-rot vel   x-rot acc   y-rot acc   z-rot acc
    22626  1.60651E-06-5.11080E-05-8.68816E-05-3.89556E-08-1.28636E-05-2.11659E-05-5.82037E-06 1.90084E-04 3.42989E-04



 n o d a l   p r i n t   o u t   f o r   t i m e  s t e p    8601                              ( at time 4.2995697E+00 )

 nodal point  x-disp     y-disp      z-disp      x-vel       y-vel       z-vel      x-accl      y-accl      z-accl      x-coor      y-coor      z-coor
    22626 -1.90873E-02-3.22442E-02-1.34864E+01-5.47528E-03-3.75007E-03-3.15996E+00 1.35322E-02-2.11278E-02 1.87178E-03 4.79451E+01-2.20620E+01-6.14791E+00



 n o d a l   p r i n t   o u t   f o r   t i m e  s t e p    8601                              ( at time 4.2995697E+00 )

 nodal point  x-rot      y-rot       z-rot       x-rot vel   y-rot vel   z-rot vel   x-rot acc   y-rot acc   z-rot acc
    22626  1.61219E-06-5.14450E-05-8.75853E-05 1.16365E-07 3.91006E-06 6.18919E-06 1.55337E-06 1.67753E-04 2.73579E-04



 n o d a l   p r i n t   o u t   f o r   t i m e  s t e p    8801                              ( at time 4.3995597E+00 )

 nodal point  x-disp     y-disp      z-disp      x-vel       y-vel       z-vel      x-accl      y-accl      z-accl      x-coor      y-coor      z-coor
    22626 -1.95463E-02-3.26549E-02-1.38024E+01-3.70893E-03-4.51070E-03-3.16064E+00 1.76653E-02-7.60711E-03-6.80754E-03 4.79446E+01-2.20624E+01-6.46390E+00



 n o d a l   p r i n t   o u t   f o r   t i m e  s t e p    8801                              ( at time 4.3995597E+00 )

 nodal point  x-rot      y-rot       z-rot       x-rot vel   y-rot vel   z-rot vel   x-rot acc   y-rot acc   z-rot acc
    22626  1.70629E-06-5.00667E-05-8.51044E-05 1.11777E-06 2.33893E-05 4.18846E-05 1.00151E-05 1.94812E-04 3.56990E-04



 n o d a l   p r i n t   o u t   f o r   t i m e  s t e p    9001                              ( at time 4.4995497E+00 )

 nodal point  x-disp     y-disp      z-disp      x-vel       y-vel       z-vel      x-accl      y-accl      z-accl      x-coor      y-coor      z-coor
    22626 -1.98318E-02-3.32052E-02-1.41184E+01-1.88800E-03-6.84320E-03-3.16022E+00 1.82111E-02-2.33273E-02 4.18942E-03 4.79443E+01-2.20630E+01-6.77992E+00



 n o d a l   p r i n t   o u t   f o r   t i m e  s t e p    9001                              ( at time 4.4995497E+00 )

 nodal point  x-rot      y-rot       z-rot       x-rot vel   y-rot vel   z-rot vel   x-rot acc   y-rot acc   z-rot acc
    22626  1.86060E-06-4.64324E-05-7.87674E-05 3.82403E-06 4.53283E-05 7.86955E-05 2.70652E-05 2.19411E-04 3.68145E-04



 n o d a l   p r i n t   o u t   f o r   t i m e  s t e p    9201                              ( at time 4.5995397E+00 )

 nodal point  x-disp     y-disp      z-disp      x-vel       y-vel       z-vel      x-accl      y-accl      z-accl      x-coor      y-coor      z-coor
    22626 -1.99259E-02-3.40456E-02-1.44344E+01 2.91488E-05-9.75447E-03-3.15962E+00 1.91734E-02-2.91156E-02 6.05168E-03 4.79443E+01-2.20638E+01-7.09587E+00



 n o d a l   p r i n t   o u t   f o r   t i m e  s t e p    9201                              ( at time 4.5995397E+00 )

 nodal point  x-rot      y-rot       z-rot       x-rot vel   y-rot vel   z-rot vel   x-rot acc   y-rot acc   z-rot acc
    22626  2.19612E-06-4.11402E-05-6.95314E-05 4.08599E-06 6.08679E-05 1.04355E-04 2.61988E-06 1.55411E-04 2.56616E-04



 n o d a l   p r i n t   o u t   f o r   t i m e  s t e p    9401                              ( at time 4.6995297E+00 )

 nodal point  x-disp     y-disp      z-disp      x-vel       y-vel       z-vel      x-accl      y-accl      z-accl      x-coor      y-coor      z-coor
    22626 -1.98098E-02-3.50977E-02-1.47503E+01 2.18139E-03-1.12777E-02-3.15944E+00 2.15245E-02-1.52337E-02 1.71917E-03 4.79444E+01-2.20649E+01-7.41180E+00



 n o d a l   p r i n t   o u t   f o r   t i m e  s t e p    9401                              ( at time 4.6995297E+00 )

 nodal point  x-rot      y-rot       z-rot       x-rot vel   y-rot vel   z-rot vel   x-rot acc   y-rot acc   z-rot acc
    22626  2.55010E-06-3.39143E-05-5.69403E-05 2.63415E-06 8.60473E-05 1.47795E-04-1.45199E-05 2.51820E-04 4.34446E-04



 n o d a l   p r i n t   o u t   f o r   t i m e  s t e p    9601                              ( at time 4.7995197E+00 )

 nodal point  x-disp     y-disp      z-disp      x-vel       y-vel       z-vel      x-accl      y-accl      z-accl      x-coor      y-coor      z-coor
    22626 -1.94931E-02-3.62950E-02-1.50662E+01 4.05371E-03-1.25096E-02-3.15975E+00 1.87251E-02-1.23207E-02-3.04014E-03 4.79447E+01-2.20661E+01-7.72772E+00



 n o d a l   p r i n t   o u t   f o r   t i m e  s t e p    9601                              ( at time 4.7995197E+00 )

 nodal point  x-rot      y-rot       z-rot       x-rot vel   y-rot vel   z-rot vel   x-rot acc   y-rot acc   z-rot acc
    22626  2.81365E-06-2.41119E-05-4.01146E-05-8.56886E-07 1.10166E-04 1.89260E-04-3.49139E-05 2.41216E-04 4.14692E-04



 n o d a l   p r i n t   o u t   f o r   t i m e  s t e p    9801                              ( at time 4.8995097E+00 )

 nodal point  x-disp     y-disp      z-disp      x-vel       y-vel       z-vel      x-accl      y-accl      z-accl      x-coor      y-coor      z-coor
    22626 -1.89958E-02-3.75956E-02-1.53822E+01 5.86843E-03-1.35906E-02-3.15994E+00 1.81490E-02-1.08111E-02-1.88847E-03 4.79452E+01-2.20674E+01-8.04368E+00



 n o d a l   p r i n t   o u t   f o r   t i m e  s t e p    9801                              ( at time 4.8995097E+00 )

 nodal point  x-rot      y-rot       z-rot       x-rot vel   y-rot vel   z-rot vel   x-rot acc   y-rot acc   z-rot acc
    22626  2.69640E-06-1.21985E-05-1.95434E-05-2.57689E-06 1.26726E-04 2.18305E-04-1.72017E-05 1.65612E-04 2.90482E-04



 n o d a l   p r i n t   o u t   f o r   t i m e  s t e p   10001                              ( at time 4.9994997E+00 )

 nodal point  x-disp     y-disp      z-disp      x-vel       y-vel       z-vel      x-accl      y-accl      z-accl      x-coor      y-coor      z-coor
    22626 -1.82926E-02-3.90514E-02-1.56981E+01 8.15381E-03-1.55836E-02-3.15982E+00 2.28560E-02-1.99315E-02 1.19936E-03 4.79459E+01-2.20688E+01-8.35964E+00



 n o d a l   p r i n t   o u t   f o r   t i m e  s t e p   10001                              ( at time 4.9994997E+00 )

 nodal point  x-rot      y-rot       z-rot       x-rot vel   y-rot vel   z-rot vel   x-rot acc   y-rot acc   z-rot acc
    22626  2.47034E-06 1.41861E-06 3.84983E-06-1.86737E-06 1.45065E-04 2.49573E-04 7.09587E-06 1.83402E-04 3.12710E-04



 n o d a l   p r i n t   o u t   f o r   t i m e  s t e p   10202                              ( at time 5.0999896E+00 )

 nodal point  x-disp     y-disp      z-disp      x-vel       y-vel       z-vel      x-accl      y-accl      z-accl      x-coor      y-coor      z-coor
    22626 -1.73698E-02-4.06818E-02-1.60157E+01 1.01265E-02-1.67080E-02-3.15991E+00 1.96311E-02-1.11891E-02-9.77499E-04 4.79468E+01-2.20705E+01-8.67716E+00



 n o d a l   p r i n t   o u t   f o r   t i m e  s t e p   10202                              ( at time 5.0999896E+00 )

 nodal point  x-rot      y-rot       z-rot       x-rot vel   y-rot vel   z-rot vel   x-rot acc   y-rot acc   z-rot acc
    22626  2.16866E-06 1.71592E-05 3.08114E-05-5.36677E-06 1.65414E-04 2.84875E-04-3.48235E-05 2.02504E-04 3.51301E-04



 n o d a l   p r i n t   o u t   f o r   t i m e  s t e p   10402                              ( at time 5.1999796E+00 )

 nodal point  x-disp     y-disp      z-disp      x-vel       y-vel       z-vel      x-accl      y-accl      z-accl      x-coor      y-coor      z-coor
    22626 -1.62852E-02-4.23551E-02-1.63317E+01 1.16107E-02-1.65110E-02-3.16095E+00 1.48429E-02 1.96966E-03-1.03579E-02 4.79479E+01-2.20721E+01-8.99317E+00



 n o d a l   p r i n t   o u t   f o r   t i m e  s t e p   10402                              ( at time 5.1999796E+00 )

 nodal point  x-rot      y-rot       z-rot       x-rot vel   y-rot vel   z-rot vel   x-rot acc   y-rot acc   z-rot acc
    22626  1.65023E-06 3.46790E-05 6.08051E-05-6.64260E-06 1.81338E-04 3.14762E-04-1.27595E-05 1.59252E-04 2.98897E-04



 n o d a l   p r i n t   o u t   f o r   t i m e  s t e p   10602                              ( at time 5.2999696E+00 )

 nodal point  x-disp     y-disp      z-disp      x-vel       y-vel       z-vel      x-accl      y-accl      z-accl      x-coor      y-coor      z-coor
    22626 -1.50449E-02-4.39852E-02-1.66477E+01 1.30364E-02-1.59258E-02-3.16035E+00 1.42586E-02 5.85328E-03 6.04214E-03 4.79491E+01-2.20738E+01-9.30923E+00



 n o d a l   p r i n t   o u t   f o r   t i m e  s t e p   10602                              ( at time 5.2999696E+00 )

 nodal point  x-rot      y-rot       z-rot       x-rot vel   y-rot vel   z-rot vel   x-rot acc   y-rot acc   z-rot acc
    22626  5.35705E-07 5.43321E-05 9.37385E-05-1.30674E-05 2.12489E-04 3.37825E-04-6.42547E-05 3.11541E-04 2.30653E-04



 n o d a l   p r i n t   o u t   f o r   t i m e  s t e p   10802                              ( at time 5.3999596E+00 )

 nodal point  x-disp     y-disp      z-disp      x-vel       y-vel       z-vel      x-accl      y-accl      z-accl      x-coor      y-coor      z-coor
    22626 -1.36911E-02-4.55039E-02-1.69636E+01 1.41236E-02-1.42659E-02-3.15720E+00 1.08732E-02 1.66008E-02 3.14363E-02 4.79505E+01-2.20753E+01-9.62511E+00



 n o d a l   p r i n t   o u t   f o r   t i m e  s t e p   10802                              ( at time 5.3999596E+00 )

 nodal point  x-rot      y-rot       z-rot       x-rot vel   y-rot vel   z-rot vel   x-rot acc   y-rot acc   z-rot acc
    22626  6.51455E-07 7.82096E-05 1.27816E-04 1.30173E-05 2.75002E-04 3.42212E-04 2.60874E-04 6.25192E-04 4.38767E-05



 n o d a l   p r i n t   o u t   f o r   t i m e  s t e p   11002                              ( at time 5.4999496E+00 )

 nodal point  x-disp     y-disp      z-disp      x-vel       y-vel       z-vel      x-accl      y-accl      z-accl      x-coor      y-coor      z-coor
    22626 -1.21862E-02-4.68639E-02-1.72789E+01 1.57451E-02-1.21195E-02-3.14774E+00 1.62170E-02 2.14654E-02 9.46474E-02 4.79520E+01-2.20767E+01-9.94037E+00



 n o d a l   p r i n t   o u t   f o r   t i m e  s t e p   11002                              ( at time 5.4999496E+00 )

 nodal point  x-rot      y-rot       z-rot       x-rot vel   y-rot vel   z-rot vel   x-rot acc   y-rot acc   z-rot acc
    22626  2.50201E-06 1.11536E-04 1.62630E-04 3.45286E-05 3.92839E-04 3.46986E-04 2.15134E-04 1.17849E-03 4.77424E-05



 n o d a l   p r i n t   o u t   f o r   t i m e  s t e p   11202                              ( at time 5.5999396E+00 )

 nodal point  x-disp     y-disp      z-disp      x-vel       y-vel       z-vel      x-accl      y-accl      z-accl      x-coor      y-coor      z-coor
    22626 -1.05664E-02-4.78402E-02-1.75930E+01 1.61601E-02-6.46130E-03-3.13407E+00 4.14996E-03 5.65881E-02 1.36687E-01 4.79536E+01-2.20776E+01-1.02545E+01



 n o d a l   p r i n t   o u t   f o r   t i m e  s t e p   11202                              ( at time 5.5999396E+00 )

 nodal point  x-rot      y-rot       z-rot       x-rot vel   y-rot vel   z-rot vel   x-rot acc   y-rot acc   z-rot acc
    22626  1.06608E-05 1.58792E-04 1.95512E-04 1.32609E-04 5.59725E-04 3.17301E-04 9.80906E-04 1.66903E-03-2.96881E-04



 n o d a l   p r i n t   o u t   f o r   t i m e  s t e p   11402                              ( at time 5.6999296E+00 )

 nodal point  x-disp     y-disp      z-disp      x-vel       y-vel       z-vel      x-accl      y-accl      z-accl      x-coor      y-coor      z-coor
    22626 -8.89783E-03-4.82697E-02-1.79055E+01 1.66604E-02-1.11303E-03-3.11469E+00 5.00394E-03 5.34879E-02 1.93834E-01 4.79553E+01-2.20781E+01-1.05670E+01



 n o d a l   p r i n t   o u t   f o r   t i m e  s t e p   11402                              ( at time 5.6999296E+00 )

 nodal point  x-rot      y-rot       z-rot       x-rot vel   y-rot vel   z-rot vel   x-rot acc   y-rot acc   z-rot acc
    22626  2.75220E-05 2.25134E-04 2.26100E-04 2.08742E-04 7.70108E-04 2.78073E-04 7.61404E-04 2.10403E-03-3.92318E-04



 n o d a l   p r i n t   o u t   f o r   t i m e  s t e p   11602                              ( at time 5.7999195E+00 )

 nodal point  x-disp     y-disp      z-disp      x-vel       y-vel       z-vel      x-accl      y-accl      z-accl      x-coor      y-coor      z-coor
    22626 -7.12362E-03-4.81390E-02-1.82159E+01 1.84051E-02 3.75226E-03-3.09264E+00 1.74486E-02 4.86578E-02 2.20543E-01 4.79571E+01-2.20779E+01-1.08774E+01



 n o d a l   p r i n t   o u t   f o r   t i m e  s t e p   11602                              ( at time 5.7999195E+00 )

 nodal point  x-rot      y-rot       z-rot       x-rot vel   y-rot vel   z-rot vel   x-rot acc   y-rot acc   z-rot acc
    22626  5.34917E-05 3.13465E-04 2.52276E-04 3.15219E-04 1.01539E-03 2.46177E-04 1.06488E-03 2.45307E-03-3.18990E-04



 n o d a l   p r i n t   o u t   f o r   t i m e  s t e p   11802                              ( at time 5.8999095E+00 )

 nodal point  x-disp     y-disp      z-disp      x-vel       y-vel       z-vel      x-accl      y-accl      z-accl      x-coor      y-coor      z-coor
    22626 -5.23354E-03-4.74967E-02-1.85238E+01 1.97400E-02 8.89967E-03-3.06614E+00 1.33495E-02 5.14793E-02 2.64974E-01 4.79589E+01-2.20773E+01-1.11853E+01



 n o d a l   p r i n t   o u t   f o r   t i m e  s t e p   11802                              ( at time 5.8999095E+00 )

 nodal point  x-rot      y-rot       z-rot       x-rot vel   y-rot vel   z-rot vel   x-rot acc   y-rot acc   z-rot acc
    22626  9.08525E-05 4.25601E-04 2.72987E-04 4.34362E-04 1.25534E-03 1.86391E-04 1.19155E-03 2.39972E-03-5.97923E-04



 n o d a l   p r i n t   o u t   f o r   t i m e  s t e p   12002                              ( at time 5.9998995E+00 )

 nodal point  x-disp     y-disp      z-disp      x-vel       y-vel       z-vel      x-accl      y-accl      z-accl      x-coor      y-coor      z-coor
    22626 -3.22827E-03-4.62967E-02-1.88288E+01 2.00343E-02 1.43388E-02-3.03628E+00 2.94378E-03 5.43966E-02 2.98704E-01 4.79610E+01-2.20761E+01-1.14903E+01



 n o d a l   p r i n t   o u t   f o r   t i m e  s t e p   12002                              ( at time 5.9998995E+00 )

 nodal point  x-rot      y-rot       z-rot       x-rot vel   y-rot vel   z-rot vel   x-rot acc   y-rot acc   z-rot acc
    22626  1.41023E-04 5.67408E-04 2.86986E-04 5.69150E-04 1.57189E-03 1.12171E-04 1.34802E-03 3.16582E-03-7.42277E-04



 n o d a l   p r i n t   o u t   f o r   t i m e  s t e p   12202                              ( at time 6.0998895E+00 )

 nodal point  x-disp     y-disp      z-disp      x-vel       y-vel       z-vel      x-accl      y-accl      z-accl      x-coor      y-coor      z-coor
    22626 -1.15821E-03-4.44982E-02-1.91308E+01 2.17150E-02 2.02117E-02-3.00397E+00 1.68085E-02 5.87345E-02 3.23088E-01 4.79630E+01-2.20743E+01-1.17923E+01



 n o d a l   p r i n t   o u t   f o r   t i m e  s t e p   12202                              ( at time 6.0998895E+00 )

 nodal point  x-rot      y-rot       z-rot       x-rot vel   y-rot vel   z-rot vel   x-rot acc   y-rot acc   z-rot acc
    22626  2.05835E-04 7.39121E-04 2.93347E-04 7.09281E-04 1.88737E-03 3.95097E-05 1.40145E-03 3.15508E-03-7.26678E-04



 n o d a l   p r i n t   o u t   f o r   t i m e  s t e p   12402                              ( at time 6.1998795E+00 )

 nodal point  x-disp     y-disp      z-disp      x-vel       y-vel       z-vel      x-accl      y-accl      z-accl      x-coor      y-coor      z-coor
    22626  1.03848E-03-4.21334E-02-1.94295E+01 2.31559E-02 2.62630E-02-2.96947E+00 1.44103E-02 6.05197E-02 3.45081E-01 4.79652E+01-2.20719E+01-1.20910E+01



 n o d a l   p r i n t   o u t   f o r   t i m e  s t e p   12402                              ( at time 6.1998795E+00 )

 nodal point  x-rot      y-rot       z-rot       x-rot vel   y-rot vel   z-rot vel   x-rot acc   y-rot acc   z-rot acc
    22626  2.85791E-04 9.42813E-04 2.91197E-04 8.70750E-04 2.21162E-03-5.29909E-05 1.61485E-03 3.24291E-03-9.25100E-04



 n o d a l   p r i n t   o u t   f o r   t i m e  s t e p   12602                              ( at time 6.2998695E+00 )

 nodal point  x-disp     y-disp      z-disp      x-vel       y-vel       z-vel      x-accl      y-accl      z-accl      x-coor      y-coor      z-coor
    22626  3.39921E-03-3.91290E-02-1.97247E+01 2.44425E-02 3.28149E-02-2.93424E+00 1.28678E-02 6.55253E-02 3.52254E-01 4.79676E+01-2.20689E+01-1.23862E+01



 n o d a l   p r i n t   o u t   f o r   t i m e  s t e p   12602                              ( at time 6.2998695E+00 )

 nodal point  x-rot      y-rot       z-rot       x-rot vel   y-rot vel   z-rot vel   x-rot acc   y-rot acc   z-rot acc
    22626  3.81510E-04 1.17935E-03 2.78821E-04 1.05640E-03 2.54623E-03-1.67389E-04 1.85669E-03 3.34638E-03-1.14409E-03



 n o d a l   p r i n t   o u t   f o r   t i m e  s t e p   12802                              ( at time 6.3998595E+00 )

 nodal point  x-disp     y-disp      z-disp      x-vel       y-vel       z-vel      x-accl      y-accl      z-accl      x-coor      y-coor      z-coor
    22626  5.99713E-03-3.55224E-02-2.00162E+01 2.80244E-02 3.90369E-02-2.89681E+00 3.58220E-02 6.22260E-02 3.74429E-01 4.79702E+01-2.20653E+01-1.26777E+01



 n o d a l   p r i n t   o u t   f o r   t i m e  s t e p   12802                              ( at time 6.3998595E+00 )

 nodal point  x-rot      y-rot       z-rot       x-rot vel   y-rot vel   z-rot vel   x-rot acc   y-rot acc   z-rot acc
    22626  4.94474E-04 1.44923E-03 2.55785E-04 1.19595E-03 2.86630E-03-2.65899E-04 1.39564E-03 3.20107E-03-9.85201E-04



 n o d a l   p r i n t   o u t   f o r   t i m e  s t e p   13002                              ( at time 6.4998495E+00 )

 nodal point  x-disp     y-disp      z-disp      x-vel       y-vel       z-vel      x-accl      y-accl      z-accl      x-coor      y-coor      z-coor
    22626  8.99167E-03-3.13386E-02-2.03038E+01 3.15552E-02 4.56779E-02-2.85650E+00 3.53122E-02 6.64166E-02 4.03099E-01 4.79732E+01-2.20611E+01-1.29653E+01



 n o d a l   p r i n t   o u t   f o r   t i m e  s t e p   13002                              ( at time 6.4998495E+00 )

 nodal point  x-rot      y-rot       z-rot       x-rot vel   y-rot vel   z-rot vel   x-rot acc   y-rot acc   z-rot acc
    22626  6.21318E-04 1.75317E-03 2.24020E-04 1.37585E-03 3.19523E-03-3.74227E-04 1.79917E-03 3.28965E-03-1.08339E-03



 n o d a l   p r i n t   o u t   f o r   t i m e  s t e p   13202                              ( at time 6.5998395E+00 )

 nodal point  x-disp     y-disp      z-disp      x-vel       y-vel       z-vel      x-accl      y-accl      z-accl      x-coor      y-coor      z-coor
    22626  1.23334E-02-2.64083E-02-2.05875E+01 3.51185E-02 5.40926E-02-2.81484E+00 3.56364E-02 8.41556E-02 4.16653E-01 4.79765E+01-2.20562E+01-1.32490E+01



 n o d a l   p r i n t   o u t   f o r   t i m e  s t e p   13202                              ( at time 6.5998395E+00 )

 nodal point  x-rot      y-rot       z-rot       x-rot vel   y-rot vel   z-rot vel   x-rot acc   y-rot acc   z-rot acc
    22626  7.67653E-04 2.09075E-03 1.80386E-04 1.53486E-03 3.55860E-03-4.99567E-04 1.59032E-03 3.63399E-03-1.25352E-03



 n o d a l   p r i n t   o u t   f o r   t i m e  s t e p   13402                              ( at time 6.6998295E+00 )

 nodal point  x-disp     y-disp      z-disp      x-vel       y-vel       z-vel      x-accl      y-accl      z-accl      x-coor      y-coor      z-coor
    22626  1.60974E-02-2.07341E-02-2.08670E+01 4.13892E-02 5.86568E-02-2.77374E+00 6.27135E-02 4.56466E-02 4.11056E-01 4.79803E+01-2.20505E+01-1.35285E+01



 n o d a l   p r i n t   o u t   f o r   t i m e  s t e p   13402                              ( at time 6.6998295E+00 )

 nodal point  x-rot      y-rot       z-rot       x-rot vel   y-rot vel   z-rot vel   x-rot acc   y-rot acc   z-rot acc
    22626  9.30804E-04 2.46285E-03 1.24814E-04 1.73592E-03 3.87387E-03-5.93650E-04 2.01073E-03 3.15306E-03-9.40925E-04



 n o d a l   p r i n t   o u t   f o r   t i m e  s t e p   13602                              ( at time 6.7998195E+00 )

 nodal point  x-disp     y-disp      z-disp      x-vel       y-vel       z-vel      x-accl      y-accl      z-accl      x-coor      y-coor      z-coor
    22626  2.05393E-02-1.44219E-02-2.11419E+01 4.83692E-02 6.61721E-02-2.72682E+00 6.98066E-02 7.51600E-02 4.69181E-01 4.79847E+01-2.20442E+01-1.38034E+01



 n o d a l   p r i n t   o u t   f o r   t i m e  s t e p   13602                              ( at time 6.7998195E+00 )

 nodal point  x-rot      y-rot       z-rot       x-rot vel   y-rot vel   z-rot vel   x-rot acc   y-rot acc   z-rot acc
    22626  1.11475E-03 2.86647E-03 5.71647E-05 1.93472E-03 4.20800E-03-7.25712E-04 1.98822E-03 3.34160E-03-1.32076E-03



 n o d a l   p r i n t   o u t   f o r   t i m e  s t e p   13802                              ( at time 6.8998095E+00 )

 nodal point  x-disp     y-disp      z-disp      x-vel       y-vel       z-vel      x-accl      y-accl      z-accl      x-coor      y-coor      z-coor
    22626  2.56368E-02-7.39638E-03-2.14122E+01 5.41600E-02 7.37023E-02-2.67970E+00 5.79137E-02 7.53098E-02 4.71308E-01 4.79898E+01-2.20372E+01-1.40737E+01



 n o d a l   p r i n t   o u t   f o r   t i m e  s t e p   13802                              ( at time 6.8998095E+00 )

 nodal point  x-rot      y-rot       z-rot       x-rot vel   y-rot vel   z-rot vel   x-rot acc   y-rot acc   z-rot acc
    22626  1.31837E-03 3.30365E-03-2.25778E-05 2.15700E-03 4.54636E-03-8.61472E-04 2.22306E-03 3.38397E-03-1.35774E-03



 n o d a l   p r i n t   o u t   f o r   t i m e  s t e p   14002                              ( at time 6.9997995E+00 )

 nodal point  x-disp     y-disp      z-disp      x-vel       y-vel       z-vel      x-accl      y-accl      z-accl      x-coor      y-coor      z-coor
    22626  3.14286E-02 3.69332E-04-2.16777E+01 6.19036E-02 8.08900E-02-2.63007E+00 7.74444E-02 7.18841E-02 4.96280E-01 4.79956E+01-2.20294E+01-1.43392E+01



 n o d a l   p r i n t   o u t   f o r   t i m e  s t e p   14002                              ( at time 6.9997995E+00 )

 nodal point  x-rot      y-rot       z-rot       x-rot vel   y-rot vel   z-rot vel   x-rot acc   y-rot acc   z-rot acc
    22626  1.54554E-03 3.77223E-03-1.13902E-04 2.37270E-03 4.83563E-03-9.74122E-04 2.15722E-03 2.89297E-03-1.12661E-03



 n o d a l   p r i n t   o u t   f o r   t i m e  s t e p   14202                              ( at time 7.0997895E+00 )

 nodal point  x-disp     y-disp      z-disp      x-vel       y-vel       z-vel      x-accl      y-accl      z-accl      x-coor      y-coor      z-coor
    22626  3.80095E-02 8.85563E-03-2.19380E+01 7.00138E-02 8.80511E-02-2.57795E+00 8.11099E-02 7.16186E-02 5.21259E-01 4.80022E+01-2.20209E+01-1.45995E+01



 n o d a l   p r i n t   o u t   f o r   t i m e  s t e p   14202                              ( at time 7.0997895E+00 )

 nodal point  x-rot      y-rot       z-rot       x-rot vel   y-rot vel   z-rot vel   x-rot acc   y-rot acc   z-rot acc
    22626  1.79442E-03 4.27224E-03-2.18946E-04 2.60636E-03 5.16738E-03-1.12042E-03 2.33675E-03 3.31787E-03-1.46316E-03



 n o d a l   p r i n t   o u t   f o r   t i m e  s t e p   14402                              ( at time 7.1997794E+00 )

 nodal point  x-disp     y-disp      z-disp      x-vel       y-vel       z-vel      x-accl      y-accl      z-accl      x-coor      y-coor      z-coor
    22626  4.54019E-02 1.79607E-02-2.21931E+01 7.80032E-02 9.46128E-02-2.52277E+00 7.99015E-02 6.56233E-02 5.51899E-01 4.80096E+01-2.20118E+01-1.48546E+01



 n o d a l   p r i n t   o u t   f o r   t i m e  s t e p   14402                              ( at time 7.1997794E+00 )

 nodal point  x-rot      y-rot       z-rot       x-rot vel   y-rot vel   z-rot vel   x-rot acc   y-rot acc   z-rot acc
    22626  2.06743E-03 4.80397E-03-3.36938E-04 2.84720E-03 5.47443E-03-1.23963E-03 2.40870E-03 3.07073E-03-1.19217E-03



 n o d a l   p r i n t   o u t   f o r   t i m e  s t e p   14602                              ( at time 7.2997694E+00 )

 nodal point  x-disp     y-disp      z-disp      x-vel       y-vel       z-vel      x-accl      y-accl      z-accl      x-coor      y-coor      z-coor
    22626  5.36474E-02 2.77373E-02-2.24425E+01 8.69640E-02 1.00941E-01-2.46698E+00 8.96169E-02 6.32854E-02 5.57939E-01 4.80178E+01-2.20021E+01-1.51040E+01



 n o d a l   p r i n t   o u t   f o r   t i m e  s t e p   14602                              ( at time 7.2997694E+00 )

 nodal point  x-rot      y-rot       z-rot       x-rot vel   y-rot vel   z-rot vel   x-rot acc   y-rot acc   z-rot acc
    22626  2.36525E-03 5.36697E-03-4.66227E-04 3.09699E-03 5.77065E-03-1.36312E-03 2.49815E-03 2.96249E-03-1.23502E-03



 n o d a l   p r i n t   o u t   f o r   t i m e  s t e p   14802                              ( at time 7.3997594E+00 )

 nodal point  x-disp     y-disp      z-disp      x-vel       y-vel       z-vel      x-accl      y-accl      z-accl      x-coor      y-coor      z-coor
    22626  6.28268E-02 3.81344E-02-2.26863E+01 9.63296E-02 1.07255E-01-2.40865E+00 9.36658E-02 6.31522E-02 5.83391E-01 4.80270E+01-2.19917E+01-1.53478E+01



 n o d a l   p r i n t   o u t   f o r   t i m e  s t e p   14802                              ( at time 7.3997594E+00 )

 nodal point  x-rot      y-rot       z-rot       x-rot vel   y-rot vel   z-rot vel   x-rot acc   y-rot acc   z-rot acc
    22626  2.68715E-03 5.96036E-03-6.07978E-04 3.33882E-03 6.07261E-03-1.48298E-03 2.41849E-03 3.01998E-03-1.19874E-03



 n o d a l   p r i n t   o u t   f o r   t i m e  s t e p   15002                              ( at time 7.4997494E+00 )

 nodal point  x-disp     y-disp      z-disp      x-vel       y-vel       z-vel      x-accl      y-accl      z-accl      x-coor      y-coor      z-coor
    22626  7.28979E-02 4.90653E-02-2.29242E+01 1.04819E-01 1.12462E-01-2.34905E+00 8.49072E-02 5.20680E-02 5.96028E-01 4.80371E+01-2.19807E+01-1.55857E+01



 n o d a l   p r i n t   o u t   f o r   t i m e  s t e p   15002                              ( at time 7.4997494E+00 )

 nodal point  x-rot      y-rot       z-rot       x-rot vel   y-rot vel   z-rot vel   x-rot acc   y-rot acc   z-rot acc
    22626  3.03517E-03 6.58250E-03-7.60259E-04 3.61766E-03 6.36438E-03-1.57819E-03 2.78869E-03 2.91792E-03-9.52171E-04



 n o d a l   p r i n t   o u t   f o r   t i m e  s t e p   15202                              ( at time 7.5997394E+00 )

 nodal point  x-disp     y-disp      z-disp      x-vel       y-vel       z-vel      x-accl      y-accl      z-accl      x-coor      y-coor      z-coor
    22626  8.38376E-02 6.05337E-02-2.31560E+01 1.14003E-01 1.16561E-01-2.28944E+00 9.18445E-02 4.10008E-02 5.96171E-01 4.80480E+01-2.19693E+01-1.58175E+01



 n o d a l   p r i n t   o u t   f o r   t i m e  s t e p   15202                              ( at time 7.5997394E+00 )

 nodal point  x-rot      y-rot       z-rot       x-rot vel   y-rot vel   z-rot vel   x-rot acc   y-rot acc   z-rot acc
    22626  3.41033E-03 7.23326E-03-9.23857E-04 3.89308E-03 6.63819E-03-1.67663E-03 2.75450E-03 2.73837E-03-9.84495E-04



 n o d a l   p r i n t   o u t   f o r   t i m e  s t e p   15402                              ( at time 7.6997294E+00 )

 nodal point  x-disp     y-disp      z-disp      x-vel       y-vel       z-vel      x-accl      y-accl      z-accl      x-coor      y-coor      z-coor
    22626  9.56516E-02 7.24185E-02-2.33818E+01 1.22687E-01 1.21361E-01-2.22625E+00 8.68457E-02 4.79992E-02 6.31933E-01 4.80598E+01-2.19574E+01-1.60433E+01



 n o d a l   p r i n t   o u t   f o r   t i m e  s t e p   15402                              ( at time 7.6997294E+00 )

 nodal point  x-rot      y-rot       z-rot       x-rot vel   y-rot vel   z-rot vel   x-rot acc   y-rot acc   z-rot acc
    22626  3.81345E-03 7.91150E-03-1.09681E-03 4.17952E-03 6.91930E-03-1.77824E-03 2.86468E-03 2.81144E-03-1.01619E-03



 n o d a l   p r i n t   o u t   f o r   t i m e  s t e p   15602                              ( at time 7.7997194E+00 )

 nodal point  x-disp     y-disp      z-disp      x-vel       y-vel       z-vel      x-accl      y-accl      z-accl      x-coor      y-coor      z-coor
    22626  1.08319E-01 8.47148E-02-2.36012E+01 1.30547E-01 1.24919E-01-2.16212E+00 7.86107E-02 3.55877E-02 6.41432E-01 4.80725E+01-2.19451E+01-1.62627E+01



 n o d a l   p r i n t   o u t   f o r   t i m e  s t e p   15602                              ( at time 7.7997194E+00 )

 nodal point  x-rot      y-rot       z-rot       x-rot vel   y-rot vel   z-rot vel   x-rot acc   y-rot acc   z-rot acc
    22626  4.24433E-03 8.61624E-03-1.27835E-03 4.46548E-03 7.16826E-03-1.88131E-03 2.85992E-03 2.48980E-03-1.03082E-03



 n o d a l   p r i n t   o u t   f o r   t i m e  s t e p   15802                              ( at time 7.8997094E+00 )

 nodal point  x-disp     y-disp      z-disp      x-vel       y-vel       z-vel      x-accl      y-accl      z-accl      x-coor      y-coor      z-coor
    22626  1.21786E-01 9.74193E-02-2.38141E+01 1.38527E-01 1.28992E-01-2.09716E+00 7.98094E-02 4.07284E-02 6.49625E-01 4.80860E+01-2.19324E+01-1.64756E+01



 n o d a l   p r i n t   o u t   f o r   t i m e  s t e p   15802                              ( at time 7.8997094E+00 )

 nodal point  x-rot      y-rot       z-rot       x-rot vel   y-rot vel   z-rot vel   x-rot acc   y-rot acc   z-rot acc
    22626  4.70619E-03 9.34563E-03-1.46981E-03 4.77043E-03 7.40995E-03-1.96534E-03 3.04977E-03 2.41722E-03-8.40424E-04



 n o d a l   p r i n t   o u t   f o r   t i m e  s t e p   16002                              ( at time 7.9996994E+00 )

 nodal point  x-disp     y-disp      z-disp      x-vel       y-vel       z-vel      x-accl      y-accl      z-accl      x-coor      y-coor      z-coor
    22626  1.36042E-01 1.10398E-01-2.40204E+01 1.46581E-01 1.30217E-01-2.03064E+00 8.05444E-02 1.22525E-02 6.65290E-01 4.81002E+01-2.19194E+01-1.66819E+01



 n o d a l   p r i n t   o u t   f o r   t i m e  s t e p   16002                              ( at time 7.9996994E+00 )

 nodal point  x-rot      y-rot       z-rot       x-rot vel   y-rot vel   z-rot vel   x-rot acc   y-rot acc   z-rot acc
    22626  5.19689E-03 1.00989E-02-1.66909E-03 5.05478E-03 7.64539E-03-2.02903E-03 2.84385E-03 2.35457E-03-6.36995E-04



 n o d a l   p r i n t   o u t   f o r   t i m e  s t e p   16202                              ( at time 8.0996894E+00 )

 nodal point  x-disp     y-disp      z-disp      x-vel       y-vel       z-vel      x-accl      y-accl      z-accl      x-coor      y-coor      z-coor
    22626  1.51109E-01 1.23542E-01-2.42201E+01 1.54585E-01 1.33723E-01-1.96285E+00 8.00503E-02 3.50681E-02 6.77932E-01 4.81153E+01-2.19062E+01-1.68816E+01



 n o d a l   p r i n t   o u t   f o r   t i m e  s t e p   16202                              ( at time 8.0996894E+00 )

 nodal point  x-rot      y-rot       z-rot       x-rot vel   y-rot vel   z-rot vel   x-rot acc   y-rot acc   z-rot acc
    22626  5.71813E-03 1.08733E-02-1.87545E-03 5.35861E-03 7.84611E-03-2.09823E-03 3.03859E-03 2.00740E-03-6.92017E-04



 n o d a l   p r i n t   o u t   f o r   t i m e  s t e p   16402                              ( at time 8.1996794E+00 )

 nodal point  x-disp     y-disp      z-disp      x-vel       y-vel       z-vel      x-accl      y-accl      z-accl      x-coor      y-coor      z-coor
    22626  1.66940E-01 1.37002E-01-2.44129E+01 1.62608E-01 1.34632E-01-1.89574E+00 8.02378E-02 9.08973E-03 6.71205E-01 4.81311E+01-2.18928E+01-1.70744E+01



 n o d a l   p r i n t   o u t   f o r   t i m e  s t e p   16402                              ( at time 8.1996794E+00 )

 nodal point  x-rot      y-rot       z-rot       x-rot vel   y-rot vel   z-rot vel   x-rot acc   y-rot acc   z-rot acc
    22626  6.26907E-03 1.16682E-02-2.08930E-03 5.66893E-03 8.02258E-03-2.17023E-03 3.10352E-03 1.76486E-03-7.20081E-04



 n o d a l   p r i n t   o u t   f o r   t i m e  s t e p   16602                              ( at time 8.2996694E+00 )

 nodal point  x-disp     y-disp      z-disp      x-vel       y-vel       z-vel      x-accl      y-accl      z-accl      x-coor      y-coor      z-coor
    22626  1.83636E-01 1.50534E-01-2.45990E+01 1.70339E-01 1.37149E-01-1.82415E+00 7.73219E-02 2.51758E-02 7.15913E-01 4.81478E+01-2.18793E+01-1.72605E+01



 n o d a l   p r i n t   o u t   f o r   t i m e  s t e p   16602                              ( at time 8.2996694E+00 )

 nodal point  x-rot      y-rot       z-rot       x-rot vel   y-rot vel   z-rot vel   x-rot acc   y-rot acc   z-rot acc
    22626  6.85065E-03 1.24802E-02-2.30945E-03 5.96234E-03 8.20300E-03-2.25395E-03 2.93438E-03 1.80437E-03-8.37295E-04



 n o d a l   p r i n t   o u t   f o r   t i m e  s t e p   16802                              ( at time 8.3996594E+00 )

 nodal point  x-disp     y-disp      z-disp      x-vel       y-vel       z-vel      x-accl      y-accl      z-accl      x-coor      y-coor      z-coor
    22626  2.01048E-01 1.64132E-01-2.47779E+01 1.78457E-01 1.34859E-01-1.75489E+00 8.11887E-02-2.29039E-02 6.92693E-01 4.81652E+01-2.18657E+01-1.74394E+01



 n o d a l   p r i n t   o u t   f o r   t i m e  s t e p   16802                              ( at time 8.3996594E+00 )

 nodal point  x-rot      y-rot       z-rot       x-rot vel   y-rot vel   z-rot vel   x-rot acc   y-rot acc   z-rot acc
    22626  7.46280E-03 1.33074E-02-2.53660E-03 6.27148E-03 8.34340E-03-2.30796E-03 3.09171E-03 1.40419E-03-5.40189E-04



 n o d a l   p r i n t   o u t   f o r   t i m e  s t e p   17002                              ( at time 8.4996494E+00 )

 nodal point  x-disp     y-disp      z-disp      x-vel       y-vel       z-vel      x-accl      y-accl      z-accl      x-coor      y-coor      z-coor
    22626  2.19340E-01 1.77527E-01-2.49497E+01 1.87212E-01 1.33036E-01-1.68091E+00 8.75527E-02-1.82327E-02 7.39913E-01 4.81835E+01-2.18523E+01-1.76112E+01



 n o d a l   p r i n t   o u t   f o r   t i m e  s t e p   17002                              ( at time 8.4996494E+00 )

 nodal point  x-rot      y-rot       z-rot       x-rot vel   y-rot vel   z-rot vel   x-rot acc   y-rot acc   z-rot acc
    22626  8.10666E-03 1.41487E-02-2.77148E-03 6.59537E-03 8.48073E-03-2.37824E-03 3.23919E-03 1.37345E-03-7.02821E-04



 n o d a l   p r i n t   o u t   f o r   t i m e  s t e p   17202                              ( at time 8.5996394E+00 )

 nodal point  x-disp     y-disp      z-disp      x-vel       y-vel       z-vel      x-accl      y-accl      z-accl      x-coor      y-coor      z-coor
    22626  2.38396E-01 1.90686E-01-2.51142E+01 1.95200E-01 1.29287E-01-1.60961E+00 7.98877E-02-3.74902E-02 7.13062E-01 4.82026E+01-2.18391E+01-1.77757E+01



 n o d a l   p r i n t   o u t   f o r   t i m e  s t e p   17202                              ( at time 8.5996394E+00 )

 nodal point  x-rot      y-rot       z-rot       x-rot vel   y-rot vel   z-rot vel   x-rot acc   y-rot acc   z-rot acc
    22626  8.78416E-03 1.50030E-02-3.01378E-03 6.94644E-03 8.60218E-03-2.44687E-03 3.51108E-03 1.21460E-03-6.86422E-04



 n o d a l   p r i n t   o u t   f o r   t i m e  s t e p   17402                              ( at time 8.6996293E+00 )

 nodal point  x-disp     y-disp      z-disp      x-vel       y-vel       z-vel      x-accl      y-accl      z-accl      x-coor      y-coor      z-coor
    22626  2.58305E-01 2.03395E-01-2.52712E+01 2.02528E-01 1.24649E-01-1.53285E+00 7.32848E-02-4.63917E-02 7.67623E-01 4.82225E+01-2.18264E+01-1.79327E+01



 n o d a l   p r i n t   o u t   f o r   t i m e  s t e p   17402                              ( at time 8.6996293E+00 )

 nodal point  x-rot      y-rot       z-rot       x-rot vel   y-rot vel   z-rot vel   x-rot acc   y-rot acc   z-rot acc
    22626  9.49711E-03 1.58679E-02-3.26295E-03 7.31544E-03 8.70951E-03-2.54246E-03 3.69034E-03 1.07346E-03-9.55969E-04



 n o d a l   p r i n t   o u t   f o r   t i m e  s t e p   17602                              ( at time 8.7996193E+00 )

 nodal point  x-disp     y-disp      z-disp      x-vel       y-vel       z-vel      x-accl      y-accl      z-accl      x-coor      y-coor      z-coor
    22626  2.79055E-01 2.15556E-01-2.54207E+01 2.11404E-01 1.18459E-01-1.45718E+00 8.87710E-02-6.19002E-02 7.56830E-01 4.82432E+01-2.18142E+01-1.80822E+01



 n o d a l   p r i n t   o u t   f o r   t i m e  s t e p   17602                              ( at time 8.7996193E+00 )

 nodal point  x-rot      y-rot       z-rot       x-rot vel   y-rot vel   z-rot vel   x-rot acc   y-rot acc   z-rot acc
    22626  1.02470E-02 1.67439E-02-3.52186E-03 7.67888E-03 8.81269E-03-2.62650E-03 3.63475E-03 1.03186E-03-8.40457E-04



 n o d a l   p r i n t   o u t   f o r   t i m e  s t e p   17802                              ( at time 8.8996093E+00 )

 nodal point  x-disp     y-disp      z-disp      x-vel       y-vel       z-vel      x-accl      y-accl      z-accl      x-coor      y-coor      z-coor
    22626  3.00604E-01 2.27069E-01-2.55625E+01 2.18998E-01 1.11855E-01-1.37998E+00 7.59525E-02-6.60506E-02 7.72012E-01 4.82648E+01-2.18027E+01-1.82240E+01



 n o d a l   p r i n t   o u t   f o r   t i m e  s t e p   17802                              ( at time 8.8996093E+00 )

 nodal point  x-rot      y-rot       z-rot       x-rot vel   y-rot vel   z-rot vel   x-rot acc   y-rot acc   z-rot acc
    22626  1.10346E-02 1.76284E-02-3.78657E-03 8.07110E-03 8.89502E-03-2.68047E-03 3.92261E-03 8.23382E-04-5.39730E-04



 n o d a l   p r i n t   o u t   f o r   t i m e  s t e p   18002                              ( at time 8.9995993E+00 )

 nodal point  x-disp     y-disp      z-disp      x-vel       y-vel       z-vel      x-accl      y-accl      z-accl      x-coor      y-coor      z-coor
    22626  3.22957E-01 2.38143E-01-2.56966E+01 2.27826E-01 1.08842E-01-1.30197E+00 8.82847E-02-3.01337E-02 7.80217E-01 4.82871E+01-2.17916E+01-1.83581E+01



 n o d a l   p r i n t   o u t   f o r   t i m e  s t e p   18002                              ( at time 8.9995993E+00 )

 nodal point  x-rot      y-rot       z-rot       x-rot vel   y-rot vel   z-rot vel   x-rot acc   y-rot acc   z-rot acc
    22626  1.18642E-02 1.85229E-02-4.05788E-03 8.50185E-03 9.00355E-03-2.73742E-03 4.30790E-03 1.08542E-03-5.69589E-04



 n o d a l   p r i n t   o u t   f o r   t i m e  s t e p   18202                              ( at time 9.0995893E+00 )

 nodal point  x-disp     y-disp      z-disp      x-vel       y-vel       z-vel      x-accl      y-accl      z-accl      x-coor      y-coor      z-coor
    22626  3.46097E-01 2.48639E-01-2.58229E+01 2.35517E-01 1.02260E-01-1.22404E+00 7.69171E-02-6.58286E-02 7.79386E-01 4.83103E+01-2.17812E+01-1.84844E+01



 n o d a l   p r i n t   o u t   f o r   t i m e  s t e p   18202                              ( at time 9.0995893E+00 )

 nodal point  x-rot      y-rot       z-rot       x-rot vel   y-rot vel   z-rot vel   x-rot acc   y-rot acc   z-rot acc
    22626  1.27346E-02 1.94259E-02-4.33449E-03 8.91277E-03 9.07050E-03-2.79650E-03 4.10962E-03 6.69530E-04-5.90877E-04



 n o d a l   p r i n t   o u t   f o r   t i m e  s t e p   18402                              ( at time 9.1995793E+00 )

 nodal point  x-disp     y-disp      z-disp      x-vel       y-vel       z-vel      x-accl      y-accl      z-accl      x-coor      y-coor      z-coor
    22626  3.70079E-01 2.58673E-01-2.59413E+01 2.43849E-01 9.76184E-02-1.14621E+00 8.33268E-02-4.64173E-02 7.78373E-01 4.83343E+01-2.17711E+01-1.86028E+01



 n o d a l   p r i n t   o u t   f o r   t i m e  s t e p   18402                              ( at time 9.1995793E+00 )

 nodal point  x-rot      y-rot       z-rot       x-rot vel   y-rot vel   z-rot vel   x-rot acc   y-rot acc   z-rot acc
    22626  1.36466E-02 2.03361E-02-4.61716E-03 9.32977E-03 9.13915E-03-2.85907E-03 4.17044E-03 6.86622E-04-6.25777E-04



 n o d a l   p r i n t   o u t   f o r   t i m e  s t e p   18602                              ( at time 9.2995693E+00 )

 nodal point  x-disp     y-disp      z-disp      x-vel       y-vel       z-vel      x-accl      y-accl      z-accl      x-coor      y-coor      z-coor
    22626  3.94779E-01 2.68025E-01-2.60521E+01 2.51414E-01 8.98066E-02-1.07035E+00 7.56591E-02-7.81260E-02 7.58660E-01 4.83590E+01-2.17618E+01-1.87136E+01



 n o d a l   p r i n t   o u t   f o r   t i m e  s t e p   18602                              ( at time 9.2995693E+00 )

 nodal point  x-rot      y-rot       z-rot       x-rot vel   y-rot vel   z-rot vel   x-rot acc   y-rot acc   z-rot acc
    22626  1.45987E-02 2.12561E-02-4.90627E-03 9.71569E-03 9.24170E-03-2.90988E-03 3.85965E-03 1.02563E-03-5.08125E-04



 n o d a l   p r i n t   o u t   f o r   t i m e  s t e p   18802                              ( at time 9.3995593E+00 )

 nodal point  x-disp     y-disp      z-disp      x-vel       y-vel       z-vel      x-accl      y-accl      z-accl      x-coor      y-coor      z-coor
    22626  4.20230E-01 2.76817E-01-2.61553E+01 2.57639E-01 8.60881E-02-9.92933E-01 6.22636E-02-3.71887E-02 7.74265E-01 4.83844E+01-2.17530E+01-1.88168E+01



 n o d a l   p r i n t   o u t   f o r   t i m e  s t e p   18802                              ( at time 9.3995593E+00 )

 nodal point  x-rot      y-rot       z-rot       x-rot vel   y-rot vel   z-rot vel   x-rot acc   y-rot acc   z-rot acc
    22626  1.55914E-02 2.21854E-02-5.19983E-03 1.01331E-02 9.33634E-03-2.96625E-03 4.17406E-03 9.46468E-04-5.63752E-04



 n o d a l   p r i n t   o u t   f o r   t i m e  s t e p   19002                              ( at time 9.4995493E+00 )

 nodal point  x-disp     y-disp      z-disp      x-vel       y-vel       z-vel      x-accl      y-accl      z-accl      x-coor      y-coor      z-coor
    22626  4.46336E-01 2.85058E-01-2.62508E+01 2.66198E-01 7.90260E-02-9.19701E-01 8.55982E-02-7.06280E-02 7.32390E-01 4.84105E+01-2.17447E+01-1.89123E+01



 n o d a l   p r i n t   o u t   f o r   t i m e  s t e p   19002                              ( at time 9.4995493E+00 )

 nodal point  x-rot      y-rot       z-rot       x-rot vel   y-rot vel   z-rot vel   x-rot acc   y-rot acc   z-rot acc
    22626  1.66261E-02 2.31217E-02-5.49991E-03 1.05583E-02 9.40155E-03-3.02160E-03 4.25244E-03 6.52141E-04-5.53583E-04



 n o d a l   p r i n t   o u t   f o r   t i m e  s t e p   19202                              ( at time 9.5995393E+00 )

 nodal point  x-disp     y-disp      z-disp      x-vel       y-vel       z-vel      x-accl      y-accl      z-accl      x-coor      y-coor      z-coor
    22626  4.73279E-01 2.92727E-01-2.63392E+01 2.72776E-01 7.35102E-02-8.47248E-01 6.57827E-02-5.51629E-02 7.24601E-01 4.84375E+01-2.17371E+01-1.90007E+01



 n o d a l   p r i n t   o u t   f o r   t i m e  s t e p   19202                              ( at time 9.5995393E+00 )

 nodal point  x-rot      y-rot       z-rot       x-rot vel   y-rot vel   z-rot vel   x-rot acc   y-rot acc   z-rot acc
    22626  1.77023E-02 2.40662E-02-5.80566E-03 1.09677E-02 9.49498E-03-3.08317E-03 4.09478E-03 9.34426E-04-6.15728E-04



 n o d a l   p r i n t   o u t   f o r   t i m e  s t e p   19402                              ( at time 9.6995293E+00 )

 nodal point  x-disp     y-disp      z-disp      x-vel       y-vel       z-vel      x-accl      y-accl      z-accl      x-coor      y-coor      z-coor
    22626  5.00886E-01 2.99939E-01-2.64201E+01 2.79653E-01 7.01499E-02-7.73823E-01 6.87713E-02-3.36069E-02 7.34322E-01 4.84651E+01-2.17299E+01-1.90816E+01



 n o d a l   p r i n t   o u t   f o r   t i m e  s t e p   19402                              ( at time 9.6995293E+00 )

 nodal point  x-rot      y-rot       z-rot       x-rot vel   y-rot vel   z-rot vel   x-rot acc   y-rot acc   z-rot acc
    22626  1.88203E-02 2.50205E-02-6.11652E-03 1.13877E-02 9.57949E-03-3.15176E-03 4.20052E-03 8.45205E-04-6.85937E-04



 n o d a l   p r i n t   o u t   f o r   t i m e  s t e p   19602                              ( at time 9.7995193E+00 )

 nodal point  x-disp     y-disp      z-disp      x-vel       y-vel       z-vel      x-accl      y-accl      z-accl      x-coor      y-coor      z-coor
    22626  5.29238E-01 3.06882E-01-2.64938E+01 2.87517E-01 6.73122E-02-7.00860E-01 7.86482E-02-2.83793E-02 7.29708E-01 4.84934E+01-2.17229E+01-1.91553E+01



 n o d a l   p r i n t   o u t   f o r   t i m e  s t e p   19602                              ( at time 9.7995193E+00 )

 nodal point  x-rot      y-rot       z-rot       x-rot vel   y-rot vel   z-rot vel   x-rot acc   y-rot acc   z-rot acc
    22626  1.99823E-02 2.59809E-02-6.43296E-03 1.18240E-02 9.65534E-03-3.19173E-03 4.36354E-03 7.58555E-04-3.99783E-04



 n o d a l   p r i n t   o u t   f o r   t i m e  s t e p   19802                              ( at time 9.8995093E+00 )

 nodal point  x-disp     y-disp      z-disp      x-vel       y-vel       z-vel      x-accl      y-accl      z-accl      x-coor      y-coor      z-coor
    22626  5.58440E-01 3.13586E-01-2.65603E+01 2.96659E-01 6.59345E-02-6.29025E-01 9.14311E-02-1.37783E-02 7.18422E-01 4.85226E+01-2.17162E+01-1.92218E+01



 n o d a l   p r i n t   o u t   f o r   t i m e  s t e p   19802                              ( at time 9.8995093E+00 )

 nodal point  x-rot      y-rot       z-rot       x-rot vel   y-rot vel   z-rot vel   x-rot acc   y-rot acc   z-rot acc
    22626  2.11859E-02 2.69503E-02-6.75638E-03 1.22417E-02 9.73552E-03-3.26678E-03 4.17770E-03 8.01903E-04-7.50538E-04



 n o d a l   p r i n t   o u t   f o r   t i m e  s t e p   20003                              ( at time 9.9999992E+00 )

 nodal point  x-disp     y-disp      z-disp      x-vel       y-vel       z-vel      x-accl      y-accl      z-accl      x-coor      y-coor      z-coor
[...]
    22626  2.39384E-01 1.45321E-01-6.37604E-02 1.60145E-02 6.82591E-03-4.73829E-03 2.21526E-04-7.62078E-05 2.85649E-04



 n o d a l   p r i n t   o u t   f o r   t i m e  s t e p   45205                              ( at time 2.2599738E+01 )

 nodal point  x-disp     y-disp      z-disp      x-vel       y-vel       z-vel      x-accl      y-accl      z-accl      x-coor      y-coor      z-coor
    22626  4.53671E+00 3.66551E-01-2.13379E+01 2.76444E-01-7.01798E-02 4.44812E-01 1.92102E-02-4.78386E-03-1.62777E-02 5.25009E+01-2.16632E+01-1.39994E+01



 n o d a l   p r i n t   o u t   f o r   t i m e  s t e p   45205                              ( at time 2.2599738E+01 )

 nodal point  x-rot      y-rot       z-rot       x-rot vel   y-rot vel   z-rot vel   x-rot acc   y-rot acc   z-rot acc
    22626  2.40985E-01 1.46004E-01-6.42323E-02 1.59966E-02 6.82804E-03-4.70185E-03-1.79445E-04 2.13060E-05 3.64395E-04



 n o d a l   p r i n t   o u t   f o r   t i m e  s t e p   45405                              ( at time 2.2699728E+01 )

 nodal point  x-disp     y-disp      z-disp      x-vel       y-vel       z-vel      x-accl      y-accl      z-accl      x-coor      y-coor      z-coor
    22626  4.56441E+00 3.59369E-01-2.12935E+01 2.78091E-01-7.33429E-02 4.44160E-01 1.64739E-02-3.16353E-02-6.52624E-03 5.25286E+01-2.16704E+01-1.39550E+01



 n o d a l   p r i n t   o u t   f o r   t i m e  s t e p   45405                              ( at time 2.2699728E+01 )

 nodal point  x-rot      y-rot       z-rot       x-rot vel   y-rot vel   z-rot vel   x-rot acc   y-rot acc   z-rot acc
    22626  2.42586E-01 1.46686E-01-6.47016E-02 1.60275E-02 6.81591E-03-4.67899E-03 3.09047E-04-1.21272E-04 2.28623E-04



 n o d a l   p r i n t   o u t   f o r   t i m e  s t e p   45605                              ( at time 2.2799718E+01 )

 nodal point  x-disp     y-disp      z-disp      x-vel       y-vel       z-vel      x-accl      y-accl      z-accl      x-coor      y-coor      z-coor
    22626  4.59230E+00 3.51996E-01-2.12492E+01 2.79910E-01-7.43770E-02 4.41833E-01 1.81927E-02-1.03421E-02-2.32664E-02 5.25565E+01-2.16778E+01-1.39107E+01



 n o d a l   p r i n t   o u t   f o r   t i m e  s t e p   45605                              ( at time 2.2799718E+01 )

 nodal point  x-rot      y-rot       z-rot       x-rot vel   y-rot vel   z-rot vel   x-rot acc   y-rot acc   z-rot acc
    22626  2.44189E-01 1.47367E-01-6.51673E-02 1.60338E-02 6.80794E-03-4.63300E-03 6.25534E-05-7.97564E-05 4.59943E-04



 n o d a l   p r i n t   o u t   f o r   t i m e  s t e p   45805                              ( at time 2.2899708E+01 )

 nodal point  x-disp     y-disp      z-disp      x-vel       y-vel       z-vel      x-accl      y-accl      z-accl      x-coor      y-coor      z-coor
    22626  4.62037E+00 3.44424E-01-2.12050E+01 2.81539E-01-7.72936E-02 4.42452E-01 1.62909E-02-2.91686E-02 6.19122E-03 5.25845E+01-2.16854E+01-1.38665E+01



 n o d a l   p r i n t   o u t   f o r   t i m e  s t e p   45805                              ( at time 2.2899708E+01 )

 nodal point  x-rot      y-rot       z-rot       x-rot vel   y-rot vel   z-rot vel   x-rot acc   y-rot acc   z-rot acc
    22626  2.45792E-01 1.48048E-01-6.56296E-02 1.60527E-02 6.81298E-03-4.61657E-03 1.89620E-04 5.04227E-05 1.64299E-04



 n o d a l   p r i n t   o u t   f o r   t i m e  s t e p   46005                              ( at time 2.2999698E+01 )

 nodal point  x-disp     y-disp      z-disp      x-vel       y-vel       z-vel      x-accl      y-accl      z-accl      x-coor      y-coor      z-coor
    22626  4.64861E+00 3.36683E-01-2.11608E+01 2.83987E-01-7.79316E-02 4.41577E-01 2.44792E-02-6.38096E-03-8.75315E-03 5.26128E+01-2.16931E+01-1.38223E+01



 n o d a l   p r i n t   o u t   f o r   t i m e  s t e p   46005                              ( at time 2.2999698E+01 )

 nodal point  x-rot      y-rot       z-rot       x-rot vel   y-rot vel   z-rot vel   x-rot acc   y-rot acc   z-rot acc
    22626  2.47398E-01 1.48730E-01-6.60896E-02 1.60696E-02 6.82574E-03-4.58148E-03 1.69274E-04 1.27645E-04 3.50954E-04



 n o d a l   p r i n t   o u t   f o r   t i m e  s t e p   46205                              ( at time 2.3099688E+01 )

 nodal point  x-disp     y-disp      z-disp      x-vel       y-vel       z-vel      x-accl      y-accl      z-accl      x-coor      y-coor      z-coor
    22626  4.67708E+00 3.28709E-01-2.11167E+01 2.85510E-01-8.15575E-02 4.40401E-01 1.52360E-02-3.62630E-02-1.17553E-02 5.26413E+01-2.17011E+01-1.37782E+01



 n o d a l   p r i n t   o u t   f o r   t i m e  s t e p   46205                              ( at time 2.3099688E+01 )

 nodal point  x-rot      y-rot       z-rot       x-rot vel   y-rot vel   z-rot vel   x-rot acc   y-rot acc   z-rot acc
    22626  2.49005E-01 1.49411E-01-6.65459E-02 1.60710E-02 6.79858E-03-4.55893E-03 1.37851E-05-2.71622E-04 2.25535E-04



 n o d a l   p r i n t   o u t   f o r   t i m e  s t e p   46405                              ( at time 2.3199678E+01 )

 nodal point  x-disp     y-disp      z-disp      x-vel       y-vel       z-vel      x-accl      y-accl      z-accl      x-coor      y-coor      z-coor
    22626  4.70565E+00 3.20509E-01-2.10727E+01 2.86159E-01-8.17839E-02 4.39090E-01 6.49124E-03-2.26377E-03-1.31184E-02 5.26698E+01-2.17093E+01-1.37342E+01



 n o d a l   p r i n t   o u t   f o r   t i m e  s t e p   46405                              ( at time 2.3199678E+01 )

 nodal point  x-rot      y-rot       z-rot       x-rot vel   y-rot vel   z-rot vel   x-rot acc   y-rot acc   z-rot acc
    22626  2.50614E-01 1.50092E-01-6.69994E-02 1.61004E-02 6.80695E-03-4.52223E-03 2.93859E-04 8.36591E-05 3.67082E-04



 n o d a l   p r i n t   o u t   f o r   t i m e  s t e p   46605                              ( at time 2.3299668E+01 )

 nodal point  x-disp     y-disp      z-disp      x-vel       y-vel       z-vel      x-accl      y-accl      z-accl      x-coor      y-coor      z-coor
    22626  4.73436E+00 3.12297E-01-2.10288E+01 2.88118E-01-8.25885E-02 4.39675E-01 1.95924E-02-8.04714E-03 5.85025E-03 5.26985E+01-2.17175E+01-1.36903E+01



 n o d a l   p r i n t   o u t   f o r   t i m e  s t e p   46605                              ( at time 2.3299668E+01 )

 nodal point  x-rot      y-rot       z-rot       x-rot vel   y-rot vel   z-rot vel   x-rot acc   y-rot acc   z-rot acc
    22626  2.52226E-01 1.50772E-01-6.74491E-02 1.61224E-02 6.79790E-03-4.48810E-03 2.19910E-04-9.04927E-05 3.41265E-04



 n o d a l   p r i n t   o u t   f o r   t i m e  s t e p   46805                              ( at time 2.3399658E+01 )

 nodal point  x-disp     y-disp      z-disp      x-vel       y-vel       z-vel      x-accl      y-accl      z-accl      x-coor      y-coor      z-coor
    22626  4.76324E+00 3.03943E-01-2.09849E+01 2.88848E-01-8.42616E-02 4.38837E-01 7.29777E-03-1.67321E-02-8.37462E-03 5.27274E+01-2.17258E+01-1.36464E+01



 n o d a l   p r i n t   o u t   f o r   t i m e  s t e p   46805                              ( at time 2.3399658E+01 )

 nodal point  x-rot      y-rot       z-rot       x-rot vel   y-rot vel   z-rot vel   x-rot acc   y-rot acc   z-rot acc
    22626  2.53840E-01 1.51451E-01-6.78964E-02 1.61655E-02 6.78601E-03-4.45560E-03 4.31093E-04-1.18931E-04 3.25094E-04



 n o d a l   p r i n t   o u t   f o r   t i m e  s t e p   47005                              ( at time 2.3499648E+01 )

 nodal point  x-disp     y-disp      z-disp      x-vel       y-vel       z-vel      x-accl      y-accl      z-accl      x-coor      y-coor      z-coor
    22626  4.79218E+00 2.95504E-01-2.09409E+01 2.90371E-01-8.48468E-02 4.40308E-01 1.52313E-02-5.85334E-03 1.47124E-02 5.27564E+01-2.17343E+01-1.36024E+01



 n o d a l   p r i n t   o u t   f o r   t i m e  s t e p   47005                              ( at time 2.3499648E+01 )

 nodal point  x-rot      y-rot       z-rot       x-rot vel   y-rot vel   z-rot vel   x-rot acc   y-rot acc   z-rot acc
    22626  2.55458E-01 1.52130E-01-6.83399E-02 1.61987E-02 6.77404E-03-4.41015E-03 3.32233E-04-1.19653E-04 4.54522E-04



 n o d a l   p r i n t   o u t   f o r   t i m e  s t e p   47205                              ( at time 2.3599638E+01 )

 nodal point  x-disp     y-disp      z-disp      x-vel       y-vel       z-vel      x-accl      y-accl      z-accl      x-coor      y-coor      z-coor
    22626  4.82132E+00 2.87116E-01-2.08969E+01 2.92061E-01-8.29478E-02 4.41088E-01 1.68977E-02 1.89923E-02 7.79596E-03 5.27855E+01-2.17427E+01-1.35584E+01



 n o d a l   p r i n t   o u t   f o r   t i m e  s t e p   47205                              ( at time 2.3599638E+01 )

 nodal point  x-rot      y-rot       z-rot       x-rot vel   y-rot vel   z-rot vel   x-rot acc   y-rot acc   z-rot acc
    22626  2.57079E-01 1.52804E-01-6.87794E-02 1.62405E-02 6.73140E-03-4.37881E-03 4.17595E-04-4.26425E-04 3.13397E-04



 n o d a l   p r i n t   o u t   f o r   t i m e  s t e p   47405                              ( at time 2.3699628E+01 )

 nodal point  x-disp     y-disp      z-disp      x-vel       y-vel       z-vel      x-accl      y-accl      z-accl      x-coor      y-coor      z-coor
    22626  4.85057E+00 2.78844E-01-2.08528E+01 2.92791E-01-8.25902E-02 4.42136E-01 7.30850E-03 3.57676E-03 1.04863E-02 5.28148E+01-2.17509E+01-1.35143E+01



 n o d a l   p r i n t   o u t   f o r   t i m e  s t e p   47405                              ( at time 2.3699628E+01 )

 nodal point  x-rot      y-rot       z-rot       x-rot vel   y-rot vel   z-rot vel   x-rot acc   y-rot acc   z-rot acc
    22626  2.58705E-01 1.53477E-01-6.92152E-02 1.62772E-02 6.71816E-03-4.34287E-03 3.66826E-04-1.32423E-04 3.59500E-04



 n o d a l   p r i n t   o u t   f o r   t i m e  s t e p   47605                              ( at time 2.3799618E+01 )

 nodal point  x-disp     y-disp      z-disp      x-vel       y-vel       z-vel      x-accl      y-accl      z-accl      x-coor      y-coor      z-coor
    22626  4.87986E+00 2.70605E-01-2.08085E+01 2.93122E-01-8.18624E-02 4.44020E-01 3.30336E-03 7.27898E-03 1.88372E-02 5.28440E+01-2.17592E+01-1.34700E+01



 n o d a l   p r i n t   o u t   f o r   t i m e  s t e p   47605                              ( at time 2.3799618E+01 )

 nodal point  x-rot      y-rot       z-rot       x-rot vel   y-rot vel   z-rot vel   x-rot acc   y-rot acc   z-rot acc
    22626  2.60335E-01 1.54147E-01-6.96480E-02 1.63357E-02 6.68322E-03-4.31236E-03 5.85177E-04-3.49490E-04 3.05126E-04



 n o d a l   p r i n t   o u t   f o r   t i m e  s t e p   47805                              ( at time 2.3899608E+01 )

 nodal point  x-disp     y-disp      z-disp      x-vel       y-vel       z-vel      x-accl      y-accl      z-accl      x-coor      y-coor      z-coor
    22626  4.90919E+00 2.62539E-01-2.07639E+01 2.94228E-01-7.97722E-02 4.46627E-01 1.10592E-02 2.09030E-02 2.60702E-02 5.28734E+01-2.17673E+01-1.34254E+01



 n o d a l   p r i n t   o u t   f o r   t i m e  s t e p   47805                              ( at time 2.3899608E+01 )

 nodal point  x-rot      y-rot       z-rot       x-rot vel   y-rot vel   z-rot vel   x-rot acc   y-rot acc   z-rot acc
    22626  2.61971E-01 1.54815E-01-7.00773E-02 1.63667E-02 6.67128E-03-4.27680E-03 3.10513E-04-1.19444E-04 3.55570E-04



 n o d a l   p r i n t   o u t   f o r   t i m e  s t e p   48005                              ( at time 2.3999598E+01 )

 nodal point  x-disp     y-disp      z-disp      x-vel       y-vel       z-vel      x-accl      y-accl      z-accl      x-coor      y-coor      z-coor
    22626  4.93859E+00 2.54604E-01-2.07192E+01 2.93417E-01-7.92262E-02 4.48382E-01-8.10832E-03 5.46158E-03 1.75579E-02 5.29028E+01-2.17752E+01-1.33807E+01



 n o d a l   p r i n t   o u t   f o r   t i m e  s t e p   48005                              ( at time 2.3999598E+01 )

 nodal point  x-rot      y-rot       z-rot       x-rot vel   y-rot vel   z-rot vel   x-rot acc   y-rot acc   z-rot acc
    22626  2.63608E-01 1.55480E-01-7.05037E-02 1.63838E-02 6.64077E-03-4.25282E-03 1.70488E-04-3.05121E-04 2.39814E-04



 n o d a l   p r i n t   o u t   f o r   t i m e  s t e p   48205                              ( at time 2.4099588E+01 )

 nodal point  x-disp     y-disp      z-disp      x-vel       y-vel       z-vel      x-accl      y-accl      z-accl      x-coor      y-coor      z-coor
    22626  4.96793E+00 2.46832E-01-2.06743E+01 2.93415E-01-7.62908E-02 4.49323E-01-1.49025E-05 2.93560E-02 9.40290E-03 5.29321E+01-2.17830E+01-1.33358E+01



 n o d a l   p r i n t   o u t   f o r   t i m e  s t e p   48205                              ( at time 2.4099588E+01 )

 nodal point  x-rot      y-rot       z-rot       x-rot vel   y-rot vel   z-rot vel   x-rot acc   y-rot acc   z-rot acc
    22626  2.65249E-01 1.56143E-01-7.09275E-02 1.64306E-02 6.61941E-03-4.22922E-03 4.68349E-04-2.13600E-04 2.36065E-04



 n o d a l   p r i n t   o u t   f o r   t i m e  s t e p   48405                              ( at time 2.4199578E+01 )

 nodal point  x-disp     y-disp      z-disp      x-vel       y-vel       z-vel      x-accl      y-accl      z-accl      x-coor      y-coor      z-coor
    22626  4.99721E+00 2.39271E-01-2.06292E+01 2.92862E-01-7.49508E-02 4.50765E-01-5.53133E-03 1.34016E-02 1.44241E-02 5.29614E+01-2.17905E+01-1.32907E+01



 n o d a l   p r i n t   o u t   f o r   t i m e  s t e p   48405                              ( at time 2.4199578E+01 )

 nodal point  x-rot      y-rot       z-rot       x-rot vel   y-rot vel   z-rot vel   x-rot acc   y-rot acc   z-rot acc
    22626  2.66893E-01 1.56804E-01-7.13495E-02 1.64592E-02 6.60387E-03-4.21440E-03 2.85724E-04-1.55376E-04 1.48222E-04



 n o d a l   p r i n t   o u t   f o r   t i m e  s t e p   48605                              ( at time 2.4299568E+01 )

 nodal point  x-disp     y-disp      z-disp      x-vel       y-vel       z-vel      x-accl      y-accl      z-accl      x-coor      y-coor      z-coor
    22626  5.02654E+00 2.31830E-01-2.05843E+01 2.93760E-01-7.33896E-02 4.49189E-01 8.98086E-03 1.56132E-02-1.57621E-02 5.29907E+01-2.17980E+01-1.32458E+01



 n o d a l   p r i n t   o u t   f o r   t i m e  s t e p   48605                              ( at time 2.4299568E+01 )

 nodal point  x-rot      y-rot       z-rot       x-rot vel   y-rot vel   z-rot vel   x-rot acc   y-rot acc   z-rot acc
    22626  2.68541E-01 1.57464E-01-7.17694E-02 1.65064E-02 6.59293E-03-4.19432E-03 4.71982E-04-1.09385E-04 2.00825E-04



 n o d a l   p r i n t   o u t   f o r   t i m e  s t e p   48805                              ( at time 2.4399558E+01 )

 nodal point  x-disp     y-disp      z-disp      x-vel       y-vel       z-vel      x-accl      y-accl      z-accl      x-coor      y-coor      z-coor
    22626  5.05591E+00 2.24578E-01-2.05394E+01 2.93817E-01-7.18951E-02 4.48035E-01 5.65998E-04 1.49465E-02-1.15393E-02 5.30201E+01-2.18052E+01-1.32009E+01



 n o d a l   p r i n t   o u t   f o r   t i m e  s t e p   48805                              ( at time 2.4399558E+01 )

 nodal point  x-rot      y-rot       z-rot       x-rot vel   y-rot vel   z-rot vel   x-rot acc   y-rot acc   z-rot acc
    22626  2.70193E-01 1.58122E-01-7.21885E-02 1.65294E-02 6.56988E-03-4.18729E-03 2.30281E-04-2.30537E-04 7.02421E-05



 n o d a l   p r i n t   o u t   f o r   t i m e  s t e p   49006                              ( at time 2.4500048E+01 )

 nodal point  x-disp     y-disp      z-disp      x-vel       y-vel       z-vel      x-accl      y-accl      z-accl      x-coor      y-coor      z-coor
    22626  5.08547E+00 2.17450E-01-2.04945E+01 2.93758E-01-6.99397E-02 4.45741E-01-5.85734E-04 1.94587E-02-2.28249E-02 5.30496E+01-2.18123E+01-1.31560E+01



 n o d a l   p r i n t   o u t   f o r   t i m e  s t e p   49006                              ( at time 2.4500048E+01 )

 nodal point  x-rot      y-rot       z-rot       x-rot vel   y-rot vel   z-rot vel   x-rot acc   y-rot acc   z-rot acc
    22626  2.71856E-01 1.58781E-01-7.26087E-02 1.65653E-02 6.55865E-03-4.17935E-03 3.57316E-04-1.11757E-04 7.90833E-05



 n o d a l   p r i n t   o u t   f o r   t i m e  s t e p   49206                              ( at time 2.4600038E+01 )

 nodal point  x-disp     y-disp      z-disp      x-vel       y-vel       z-vel      x-accl      y-accl      z-accl      x-coor      y-coor      z-coor
    22626  5.11487E+00 2.10574E-01-2.04500E+01 2.93948E-01-6.76437E-02 4.43282E-01 1.89530E-03 2.29625E-02-2.45975E-02 5.30791E+01-2.18192E+01-1.31115E+01



 n o d a l   p r i n t   o u t   f o r   t i m e  s t e p   49206                              ( at time 2.4600038E+01 )

 nodal point  x-rot      y-rot       z-rot       x-rot vel   y-rot vel   z-rot vel   x-rot acc   y-rot acc   z-rot acc
    22626  2.73514E-01 1.59436E-01-7.30259E-02 1.66006E-02 6.55393E-03-4.17544E-03 3.52873E-04-4.72596E-05 3.90632E-05



 n o d a l   p r i n t   o u t   f o r   t i m e  s t e p   49406                              ( at time 2.4700028E+01 )

 nodal point  x-disp     y-disp      z-disp      x-vel       y-vel       z-vel      x-accl      y-accl      z-accl      x-coor      y-coor      z-coor
    22626  5.14428E+00 2.03831E-01-2.04058E+01 2.94083E-01-6.69253E-02 4.41769E-01 1.35347E-03 7.18502E-03-1.51305E-02 5.31085E+01-2.18260E+01-1.30673E+01



 n o d a l   p r i n t   o u t   f o r   t i m e  s t e p   49406                              ( at time 2.4700028E+01 )

 nodal point  x-rot      y-rot       z-rot       x-rot vel   y-rot vel   z-rot vel   x-rot acc   y-rot acc   z-rot acc
    22626  2.75175E-01 1.60091E-01-7.34428E-02 1.66378E-02 6.52902E-03-4.16590E-03 3.72496E-04-2.49105E-04 9.54665E-05



 n o d a l   p r i n t   o u t   f o r   t i m e  s t e p   49606                              ( at time 2.4800018E+01 )

 nodal point  x-disp     y-disp      z-disp      x-vel       y-vel       z-vel      x-accl      y-accl      z-accl      x-coor      y-coor      z-coor
    22626  5.17366E+00 1.97304E-01-2.03617E+01 2.94040E-01-6.38066E-02 4.39238E-01-4.29491E-04 3.11899E-02-2.53155E-02 5.31378E+01-2.18325E+01-1.30232E+01



 n o d a l   p r i n t   o u t   f o r   t i m e  s t e p   49606                              ( at time 2.4800018E+01 )

 nodal point  x-rot      y-rot       z-rot       x-rot vel   y-rot vel   z-rot vel   x-rot acc   y-rot acc   z-rot acc
    22626  2.76841E-01 1.60744E-01-7.38606E-02 1.66775E-02 6.53009E-03-4.18552E-03 3.97059E-04 1.06646E-05-1.96276E-04



 n o d a l   p r i n t   o u t   f o r   t i m e  s t e p   49806                              ( at time 2.4900008E+01 )

 nodal point  x-disp     y-disp      z-disp      x-vel       y-vel       z-vel      x-accl      y-accl      z-accl      x-coor      y-coor      z-coor
    22626  5.20300E+00 1.90993E-01-2.03180E+01 2.93144E-01-6.29383E-02 4.36237E-01-8.96285E-03 8.68320E-03-3.00104E-02 5.31672E+01-2.18388E+01-1.29795E+01



 n o d a l   p r i n t   o u t   f o r   t i m e  s t e p   49806                              ( at time 2.4900008E+01 )

 nodal point  x-rot      y-rot       z-rot       x-rot vel   y-rot vel   z-rot vel   x-rot acc   y-rot acc   z-rot acc
    22626  2.78510E-01 1.61396E-01-7.42786E-02 1.66875E-02 6.52379E-03-4.16939E-03 9.99420E-05-6.29411E-05 1.61304E-04



 n o d a l   p r i n t   o u t   f o r   t i m e  s t e p   50006                              ( at time 2.4999998E+01 )

 nodal point  x-disp     y-disp      z-disp      x-vel       y-vel       z-vel      x-accl      y-accl      z-accl      x-coor      y-coor      z-coor
    22626  5.23232E+00 1.84852E-01-2.02744E+01 2.93102E-01-5.98228E-02 4.35114E-01-4.21741E-04 3.11581E-02-1.12294E-02 5.31965E+01-2.18449E+01-1.29359E+01



 n o d a l   p r i n t   o u t   f o r   t i m e  s t e p   50006                              ( at time 2.4999998E+01 )

 nodal point  x-rot      y-rot       z-rot       x-rot vel   y-rot vel   z-rot vel   x-rot acc   y-rot acc   z-rot acc
    22626  2.80181E-01 1.62047E-01-7.46962E-02 1.67339E-02 6.49868E-03-4.18909E-03 4.63804E-04-2.51131E-04-1.96937E-04
