 LSTC 50th% Full_FE H-III Dummy (Beta Version, February 17, 2019)        
                    ls-dyna smp s R16 R16.0_619_d222963 date 03/18/2025

{BEGIN LEGEND}
 Entity #        Title
    22626                                                                                     
{END LEGEND}




 n o d a l   p r i n t   o u t   f o r   t i m e  s t e p       1                              ( at time 0.0000000E+00 )

 nodal point  x-disp     y-disp      z-disp      x-vel       y-vel       z-vel      x-accl      y-accl      z-accl      x-coor      y-coor      z-coor
    22626  0.00000E+00 0.00000E+00 0.00000E+00 0.00000E+00 0.00000E+00-3.12000E+00 0.00000E+00 0.00000E+00 0.00000E+00 4.79642E+01-2.20298E+01 7.33850E+00



 n o d a l   p r i n t   o u t   f o r   t i m e  s t e p       1                              ( at time 0.0000000E+00 )

 nodal point  x-rot      y-rot       z-rot       x-rot vel   y-rot vel   z-rot vel   x-rot acc   y-rot acc   z-rot acc
    22626  0.00000E+00 0.00000E+00 0.00000E+00 0.00000E+00 0.00000E+00 0.00000E+00 0.00000E+00 0.00000E+00 0.00000E+00



 n o d a l   p r i n t   o u t   f o r   t i m e  s t e p     201                              ( at time 9.9989993E-02 )

 nodal point  x-disp     y-disp      z-disp      x-vel       y-vel       z-vel      x-accl      y-accl      z-accl      x-coor      y-coor      z-coor
    22626  8.34722E-07-4.04394E-06-3.12016E-01 4.76782E-05-4.96350E-04-3.12074E+00 4.76830E-04-4.96399E-03-7.42748E-03 4.79642E+01-2.20298E+01 7.02648E+00



 n o d a l   p r i n t   o u t   f o r   t i m e  s t e p     201                              ( at time 9.9989993E-02 )

 nodal point  x-rot      y-rot       z-rot       x-rot vel   y-rot vel   z-rot vel   x-rot acc   y-rot acc   z-rot acc
    22626  9.59969E-09 3.04274E-08 5.27449E-08 1.30672E-06 2.72273E-06 5.21342E-06 1.30685E-05 2.72301E-05 5.21394E-05



 n o d a l   p r i n t   o u t   f o r   t i m e  s t e p     401                              ( at time 1.9997999E-01 )

 nodal point  x-disp     y-disp      z-disp      x-vel       y-vel       z-vel      x-accl      y-accl      z-accl      x-coor      y-coor      z-coor
    22626 -5.12693E-05-5.21473E-04-6.23853E-01-1.09623E-03-1.11119E-02-3.11558E+00-1.14402E-02-1.06166E-01 5.16085E-02 4.79641E+01-2.20303E+01 6.71465E+00



 n o d a l   p r i n t   o u t   f o r   t i m e  s t e p     401                              ( at time 1.9997999E-01 )

 nodal point  x-rot      y-rot       z-rot       x-rot vel   y-rot vel   z-rot vel   x-rot acc   y-rot acc   z-rot acc
    22626  4.60256E-07 1.33025E-06 2.50286E-06 2.65393E-06 1.90786E-05 3.49861E-05 1.34735E-05 1.63575E-04 2.97757E-04



 n o d a l   p r i n t   o u t   f o r   t i m e  s t e p     601                              ( at time 2.9996998E-01 )

 nodal point  x-disp     y-disp      z-disp      x-vel       y-vel       z-vel      x-accl      y-accl      z-accl      x-coor      y-coor      z-coor
    22626 -2.45249E-05-1.97550E-03-9.35239E-01 1.66346E-03-1.60305E-02-3.11416E+00 2.75997E-02-4.91905E-02 1.42660E-02 4.79642E+01-2.20318E+01 6.40326E+00



 n o d a l   p r i n t   o u t   f o r   t i m e  s t e p     601                              ( at time 2.9996998E-01 )

 nodal point  x-rot      y-rot       z-rot       x-rot vel   y-rot vel   z-rot vel   x-rot acc   y-rot acc   z-rot acc
    22626  6.74647E-07 2.41700E-06 4.83678E-06 8.23628E-06 5.49857E-06 1.49395E-05 5.58290E-05-1.35813E-04-2.00487E-04



 n o d a l   p r i n t   o u t   f o r   t i m e  s t e p     801                              ( at time 3.9995997E-01 )

 nodal point  x-disp     y-disp      z-disp      x-vel       y-vel       z-vel      x-accl      y-accl      z-accl      x-coor      y-coor      z-coor
    22626  5.94552E-05-3.57157E-03-1.24663E+00 1.84660E-04-1.73723E-02-3.11354E+00-1.47895E-02-1.34195E-02 6.12559E-03 4.79642E+01-2.20334E+01 6.09187E+00



 n o d a l   p r i n t   o u t   f o r   t i m e  s t e p     801                              ( at time 3.9995997E-01 )

 nodal point  x-rot      y-rot       z-rot       x-rot vel   y-rot vel   z-rot vel   x-rot acc   y-rot acc   z-rot acc
    22626  1.58319E-06 3.68962E-06 6.69893E-06 6.35743E-06 2.42330E-05 3.82531E-05-1.87903E-05 1.87363E-04 2.33160E-04



 n o d a l   p r i n t   o u t   f o r   t i m e  s t e p    1001                              ( at time 4.9994997E-01 )

 nodal point  x-disp     y-disp      z-disp      x-vel       y-vel       z-vel      x-accl      y-accl      z-accl      x-coor      y-coor      z-coor
    22626  7.16266E-05-5.62667E-03-1.55783E+00 8.80518E-04-2.38128E-02-3.11087E+00 6.95928E-03-6.44117E-02 2.66984E-02 4.79643E+01-2.20354E+01 5.78067E+00



 n o d a l   p r i n t   o u t   f o r   t i m e  s t e p    1001                              ( at time 4.9994997E-01 )

 nodal point  x-rot      y-rot       z-rot       x-rot vel   y-rot vel   z-rot vel   x-rot acc   y-rot acc   z-rot acc
    22626  1.50069E-06 6.66076E-06 1.18616E-05-4.82285E-06 4.38695E-05 7.20923E-05-1.11814E-04 1.96385E-04 3.38426E-04



 n o d a l   p r i n t   o u t   f o r   t i m e  s t e p    1201                              ( at time 5.9993996E-01 )

 nodal point  x-disp     y-disp      z-disp      x-vel       y-vel       z-vel      x-accl      y-accl      z-accl      x-coor      y-coor      z-coor
    22626  5.24472E-05-8.12782E-03-1.86888E+00-5.44146E-04-2.60670E-02-3.11087E+00-1.42481E-02-2.25444E-02 8.34549E-05 4.79642E+01-2.20379E+01 5.46962E+00



 n o d a l   p r i n t   o u t   f o r   t i m e  s t e p    1201                              ( at time 5.9993996E-01 )

 nodal point  x-rot      y-rot       z-rot       x-rot vel   y-rot vel   z-rot vel   x-rot acc   y-rot acc   z-rot acc
    22626  1.26820E-06 9.91343E-06 1.78073E-05-2.05436E-06 2.66432E-05 5.37040E-05 2.76877E-05-1.72281E-04-1.83901E-04



 n o d a l   p r i n t   o u t   f o r   t i m e  s t e p    1401                              ( at time 6.9992995E-01 )

 nodal point  x-disp     y-disp      z-disp      x-vel       y-vel       z-vel      x-accl      y-accl      z-accl      x-coor      y-coor      z-coor
    22626  1.93812E-05-1.10065E-02-2.17977E+00 6.94947E-04-3.21945E-02-3.10774E+00 1.23922E-02-6.12810E-02 3.12646E-02 4.79642E+01-2.20408E+01 5.15873E+00



 n o d a l   p r i n t   o u t   f o r   t i m e  s t e p    1401                              ( at time 6.9992995E-01 )

 nodal point  x-rot      y-rot       z-rot       x-rot vel   y-rot vel   z-rot vel   x-rot acc   y-rot acc   z-rot acc
    22626  1.12870E-06 1.31202E-05 2.28095E-05-2.08924E-06 3.76937E-05 5.90804E-05-3.48837E-07 1.10517E-04 5.37699E-05



 n o d a l   p r i n t   o u t   f o r   t i m e  s t e p    1601                              ( at time 7.9991994E-01 )

 nodal point  x-disp     y-disp      z-disp      x-vel       y-vel       z-vel      x-accl      y-accl      z-accl      x-coor      y-coor      z-coor
    22626  1.30563E-04-1.45509E-02-2.49040E+00 1.35031E-03-3.67427E-02-3.10606E+00 6.55430E-03-4.54865E-02 1.68316E-02 4.79643E+01-2.20443E+01 4.84811E+00



 n o d a l   p r i n t   o u t   f o r   t i m e  s t e p    1601                              ( at time 7.9991994E-01 )

 nodal point  x-rot      y-rot       z-rot       x-rot vel   y-rot vel   z-rot vel   x-rot acc   y-rot acc   z-rot acc
    22626  1.06546E-06 1.72672E-05 2.97878E-05 3.34268E-06 4.89392E-05 7.65059E-05 5.43246E-05 1.12466E-04 1.74272E-04



 n o d a l   p r i n t   o u t   f o r   t i m e  s t e p    1801                              ( at time 8.9990994E-01 )

 nodal point  x-disp     y-disp      z-disp      x-vel       y-vel       z-vel      x-accl      y-accl      z-accl      x-coor      y-coor      z-coor
    22626  2.03379E-04-1.81866E-02-2.80106E+00-5.15003E-04-3.63566E-02-3.10748E+00-1.86550E-02 3.86180E-03-1.41897E-02 4.79644E+01-2.20480E+01 4.53745E+00



 n o d a l   p r i n t   o u t   f o r   t i m e  s t e p    1801                              ( at time 8.9990994E-01 )

 nodal point  x-rot      y-rot       z-rot       x-rot vel   y-rot vel   z-rot vel   x-rot acc   y-rot acc   z-rot acc
    22626  1.12476E-06 2.14090E-05 3.68288E-05-1.31403E-06 3.82422E-05 6.89866E-05-4.65718E-05-1.06981E-04-7.52000E-05



 n o d a l   p r i n t   o u t   f o r   t i m e  s t e p    2001                              ( at time 9.9989993E-01 )

 nodal point  x-disp     y-disp      z-disp      x-vel       y-vel       z-vel      x-accl      y-accl      z-accl      x-coor      y-coor      z-coor
    22626  1.04166E-04-2.18891E-02-3.11178E+00-8.41117E-04-3.82549E-02-3.10767E+00-3.26146E-03-1.89854E-02-1.95523E-03 4.79643E+01-2.20517E+01 4.22672E+00



 n o d a l   p r i n t   o u t   f o r   t i m e  s t e p    2001                              ( at time 9.9989993E-01 )

 nodal point  x-rot      y-rot       z-rot       x-rot vel   y-rot vel   z-rot vel   x-rot acc   y-rot acc   z-rot acc
    22626  1.01017E-06 2.56565E-05 4.40911E-05-2.36694E-07 4.65990E-05 8.66301E-05 1.07745E-05 8.35764E-05 1.76453E-04



 n o d a l   p r i n t   o u t   f o r   t i m e  s t e p    2201                              ( at time 1.0998899E+00 )

 nodal point  x-disp     y-disp      z-disp      x-vel       y-vel       z-vel      x-accl      y-accl      z-accl      x-coor      y-coor      z-coor
    22626  8.32743E-05-2.58238E-02-3.42249E+00-2.63614E-04-4.01556E-02-3.10718E+00 5.77561E-03-1.90090E-02 4.88807E-03 4.79643E+01-2.20556E+01 3.91601E+00



 n o d a l   p r i n t   o u t   f o r   t i m e  s t e p    2201                              ( at time 1.0998899E+00 )

 nodal point  x-rot      y-rot       z-rot       x-rot vel   y-rot vel   z-rot vel   x-rot acc   y-rot acc   z-rot acc
    22626  1.14538E-06 3.04662E-05 5.27790E-05 5.91922E-06 4.64112E-05 7.51325E-05 6.15653E-05-1.87793E-06-1.14988E-04



 n o d a l   p r i n t   o u t   f o r   t i m e  s t e p    2401                              ( at time 1.1998799E+00 )

 nodal point  x-disp     y-disp      z-disp      x-vel       y-vel       z-vel      x-accl      y-accl      z-accl      x-coor      y-coor      z-coor
    22626  1.22025E-04-2.98277E-02-3.73324E+00 7.04907E-04-3.96516E-02-3.10859E+00 9.68618E-03 5.04045E-03-1.40991E-02 4.79643E+01-2.20596E+01 3.60526E+00



 n o d a l   p r i n t   o u t   f o r   t i m e  s t e p    2401                              ( at time 1.1998799E+00 )

 nodal point  x-rot      y-rot       z-rot       x-rot vel   y-rot vel   z-rot vel   x-rot acc   y-rot acc   z-rot acc
    22626  1.60867E-06 3.46405E-05 5.96781E-05 5.75500E-06 4.03691E-05 6.65884E-05-1.64234E-06-6.04274E-05-8.54496E-05



 n o d a l   p r i n t   o u t   f o r   t i m e  s t e p    2601                              ( at time 1.2998699E+00 )

 nodal point  x-disp     y-disp      z-disp      x-vel       y-vel       z-vel      x-accl      y-accl      z-accl      x-coor      y-coor      z-coor
    22626  1.31623E-04-3.36514E-02-4.04419E+00-4.46940E-04-3.64430E-02-3.11144E+00-1.15196E-02 3.20892E-02-2.85177E-02 4.79643E+01-2.20634E+01 3.29432E+00



 n o d a l   p r i n t   o u t   f o r   t i m e  s t e p    2601                              ( at time 1.2998699E+00 )

 nodal point  x-rot      y-rot       z-rot       x-rot vel   y-rot vel   z-rot vel   x-rot acc   y-rot acc   z-rot acc
    22626  1.98774E-06 3.87693E-05 6.65888E-05-1.61344E-06 4.58607E-05 8.07866E-05-7.36918E-05 5.49214E-05 1.41997E-04



 n o d a l   p r i n t   o u t   f o r   t i m e  s t e p    2801                              ( at time 1.3998599E+00 )

 nodal point  x-disp     y-disp      z-disp      x-vel       y-vel       z-vel      x-accl      y-accl      z-accl      x-coor      y-coor      z-coor
    22626  1.33668E-05-3.70301E-02-4.35550E+00-1.33827E-03-3.12681E-02-3.11524E+00-8.91420E-03 5.17543E-02-3.79266E-02 4.79642E+01-2.20668E+01 2.98300E+00



 n o d a l   p r i n t   o u t   f o r   t i m e  s t e p    2801                              ( at time 1.3998599E+00 )

 nodal point  x-rot      y-rot       z-rot       x-rot vel   y-rot vel   z-rot vel   x-rot acc   y-rot acc   z-rot acc
    22626  1.65397E-06 4.32131E-05 7.45133E-05-3.69313E-06 4.51101E-05 7.42532E-05-2.07990E-05-7.50608E-06-6.53402E-05



 n o d a l   p r i n t   o u t   f o r   t i m e  s t e p    3001                              ( at time 1.4998499E+00 )

 nodal point  x-disp     y-disp      z-disp      x-vel       y-vel       z-vel      x-accl      y-accl      z-accl      x-coor      y-coor      z-coor
    22626 -9.83470E-05-4.00567E-02-4.66710E+00-4.91856E-04-2.95895E-02-3.11725E+00 8.46499E-03 1.67881E-02-2.01746E-02 4.79641E+01-2.20698E+01 2.67140E+00



 n o d a l   p r i n t   o u t   f o r   t i m e  s t e p    3001                              ( at time 1.4998499E+00 )

 nodal point  x-rot      y-rot       z-rot       x-rot vel   y-rot vel   z-rot vel   x-rot acc   y-rot acc   z-rot acc
    22626  1.36401E-06 4.71880E-05 8.11644E-05-5.13121E-07 3.24124E-05 5.81430E-05 3.18033E-05-1.26990E-04-1.61118E-04



 n o d a l   p r i n t   o u t   f o r   t i m e  s t e p    3201                              ( at time 1.5998399E+00 )

 nodal point  x-disp     y-disp      z-disp      x-vel       y-vel       z-vel      x-accl      y-accl      z-accl      x-coor      y-coor      z-coor
    22626 -1.49035E-04-4.29328E-02-4.97888E+00-7.78650E-04-2.73741E-02-3.11953E+00-2.86823E-03 2.21561E-02-2.28189E-02 4.79640E+01-2.20727E+01 2.35962E+00



 n o d a l   p r i n t   o u t   f o r   t i m e  s t e p    3201                              ( at time 1.5998399E+00 )

 nodal point  x-rot      y-rot       z-rot       x-rot vel   y-rot vel   z-rot vel   x-rot acc   y-rot acc   z-rot acc
    22626  1.17638E-06 5.02692E-05 8.61096E-05-3.04188E-07 3.26599E-05 4.84279E-05 2.08953E-06 2.47542E-06-9.71608E-05



 n o d a l   p r i n t   o u t   f o r   t i m e  s t e p    3401                              ( at time 1.6998299E+00 )

 nodal point  x-disp     y-disp      z-disp      x-vel       y-vel       z-vel      x-accl      y-accl      z-accl      x-coor      y-coor      z-coor
    22626 -2.39722E-04-4.54338E-02-5.29099E+00-1.14632E-03-2.23131E-02-3.12334E+00-3.67710E-03 5.06147E-02-3.80578E-02 4.79639E+01-2.20752E+01 2.04751E+00



 n o d a l   p r i n t   o u t   f o r   t i m e  s t e p    3401                              ( at time 1.6998299E+00 )

 nodal point  x-rot      y-rot       z-rot       x-rot vel   y-rot vel   z-rot vel   x-rot acc   y-rot acc   z-rot acc
    22626  1.06022E-06 5.34042E-05 9.12166E-05-3.08360E-06 3.08279E-05 4.89686E-05-2.77969E-05-1.83216E-05 5.40770E-06



 n o d a l   p r i n t   o u t   f o r   t i m e  s t e p    3601                              ( at time 1.7998199E+00 )

 nodal point  x-disp     y-disp      z-disp      x-vel       y-vel       z-vel      x-accl      y-accl      z-accl      x-coor      y-coor      z-coor
    22626 -3.42503E-04-4.74095E-02-5.60350E+00-1.35444E-03-1.75620E-02-3.12743E+00-2.08136E-03 4.75164E-02-4.08667E-02 4.79638E+01-2.20772E+01 1.73500E+00



 n o d a l   p r i n t   o u t   f o r   t i m e  s t e p    3601                              ( at time 1.7998199E+00 )

 nodal point  x-rot      y-rot       z-rot       x-rot vel   y-rot vel   z-rot vel   x-rot acc   y-rot acc   z-rot acc
    22626  1.00117E-06 5.62610E-05 9.60750E-05 7.84507E-07 2.18754E-05 4.31137E-05 3.86850E-05-8.95346E-05-5.85552E-05



 n o d a l   p r i n t   o u t   f o r   t i m e  s t e p    3801                              ( at time 1.8998099E+00 )

 nodal point  x-disp     y-disp      z-disp      x-vel       y-vel       z-vel      x-accl      y-accl      z-accl      x-coor      y-coor      z-coor
    22626 -5.32270E-04-4.90310E-02-5.91634E+00-2.15701E-03-1.50246E-02-3.12997E+00-8.02656E-03 2.53767E-02-2.54513E-02 4.79636E+01-2.20788E+01 1.42216E+00



 n o d a l   p r i n t   o u t   f o r   t i m e  s t e p    3801                              ( at time 1.8998099E+00 )

 nodal point  x-rot      y-rot       z-rot       x-rot vel   y-rot vel   z-rot vel   x-rot acc   y-rot acc   z-rot acc
    22626  8.75412E-07 5.82202E-05 9.95843E-05 2.66045E-06 1.63339E-05 2.83878E-05 1.87613E-05-5.54209E-05-1.47274E-04



 n o d a l   p r i n t   o u t   f o r   t i m e  s t e p    4001                              ( at time 1.9997999E+00 )

 nodal point  x-disp     y-disp      z-disp      x-vel       y-vel       z-vel      x-accl      y-accl      z-accl      x-coor      y-coor      z-coor
    22626 -7.05090E-04-5.04107E-02-6.22942E+00-1.64869E-03-1.27184E-02-3.13217E+00 5.08373E-03 2.30641E-02-2.20082E-02 4.79635E+01-2.20802E+01 1.10908E+00



 n o d a l   p r i n t   o u t   f o r   t i m e  s t e p    4001                              ( at time 1.9997999E+00 )

 nodal point  x-rot      y-rot       z-rot       x-rot vel   y-rot vel   z-rot vel   x-rot acc   y-rot acc   z-rot acc
    22626  1.16966E-06 5.96404E-05 1.01992E-04 4.39389E-06 1.38959E-05 2.05410E-05 1.73361E-05-2.43817E-05-7.84766E-05



 n o d a l   p r i n t   o u t   f o r   t i m e  s t e p    4201                              ( at time 2.0997899E+00 )

 nodal point  x-disp     y-disp      z-disp      x-vel       y-vel       z-vel      x-accl      y-accl      z-accl      x-coor      y-coor      z-coor
    22626 -8.75921E-04-5.14950E-02-6.54277E+00-1.87973E-03-9.07732E-03-3.13526E+00-2.31057E-03 3.64143E-02-3.09236E-02 4.79633E+01-2.20813E+01 7.95732E-01



 n o d a l   p r i n t   o u t   f o r   t i m e  s t e p    4201                              ( at time 2.0997899E+00 )

 nodal point  x-rot      y-rot       z-rot       x-rot vel   y-rot vel   z-rot vel   x-rot acc   y-rot acc   z-rot acc
    22626  1.55540E-06 6.03028E-05 1.03119E-04-1.31762E-07 3.60199E-06 2.01860E-06-4.52610E-05-1.02950E-04-1.85242E-04



 n o d a l   p r i n t   o u t   f o r   t i m e  s t e p    4401                              ( at time 2.1997798E+00 )

 nodal point  x-disp     y-disp      z-disp      x-vel       y-vel       z-vel      x-accl      y-accl      z-accl      x-coor      y-coor      z-coor
    22626 -1.11715E-03-5.21728E-02-6.85644E+00-2.72559E-03-4.30016E-03-3.13903E+00-8.45947E-03 4.77764E-02-3.76429E-02 4.79631E+01-2.20820E+01 4.82061E-01



 n o d a l   p r i n t   o u t   f o r   t i m e  s t e p    4401                              ( at time 2.1997798E+00 )

 nodal point  x-rot      y-rot       z-rot       x-rot vel   y-rot vel   z-rot vel   x-rot acc   y-rot acc   z-rot acc
    22626  1.46217E-06 6.03981E-05 1.03167E-04-5.81328E-07-1.12165E-06-1.88860E-06-4.49612E-06-4.72412E-05-3.90760E-05



 n o d a l   p r i n t   o u t   f o r   t i m e  s t e p    4601                              ( at time 2.2997698E+00 )

 nodal point  x-disp     y-disp      z-disp      x-vel       y-vel       z-vel      x-accl      y-accl      z-accl      x-coor      y-coor      z-coor
    22626 -1.42317E-03-5.23588E-02-7.17050E+00-3.49120E-03-3.28568E-05-3.14236E+00-7.65685E-03 4.26773E-02-3.32961E-02 4.79628E+01-2.20821E+01 1.68004E-01



 n o d a l   p r i n t   o u t   f o r   t i m e  s t e p    4601                              ( at time 2.2997698E+00 )

 nodal point  x-rot      y-rot       z-rot       x-rot vel   y-rot vel   z-rot vel   x-rot acc   y-rot acc   z-rot acc
    22626  1.13147E-06 6.01707E-05 1.02879E-04-3.84736E-06-8.92154E-06-1.20965E-05-3.26636E-05-7.80066E-05-1.02089E-04



 n o d a l   p r i n t   o u t   f o r   t i m e  s t e p    4801                              ( at time 2.3997598E+00 )

 nodal point  x-disp     y-disp      z-disp      x-vel       y-vel       z-vel      x-accl      y-accl      z-accl      x-coor      y-coor      z-coor
    22626 -1.78983E-03-5.22656E-02-7.48480E+00-3.56828E-03 1.88434E-03-3.14445E+00-7.70875E-04 1.91739E-02-2.09210E-02 4.79624E+01-2.20821E+01-1.46303E-01



 n o d a l   p r i n t   o u t   f o r   t i m e  s t e p    4801                              ( at time 2.3997598E+00 )

 nodal point  x-rot      y-rot       z-rot       x-rot vel   y-rot vel   z-rot vel   x-rot acc   y-rot acc   z-rot acc
    22626  6.89249E-07 5.89563E-05 1.00434E-04-4.88685E-06-1.52518E-05-3.30571E-05-1.03959E-05-6.33088E-05-2.09628E-04



 n o d a l   p r i n t   o u t   f o r   t i m e  s t e p    5001                              ( at time 2.4997498E+00 )

 nodal point  x-disp     y-disp      z-disp      x-vel       y-vel       z-vel      x-accl      y-accl      z-accl      x-coor      y-coor      z-coor
    22626 -2.17942E-03-5.19585E-02-7.79933E+00-4.22488E-03 4.95128E-03-3.14715E+00-6.56670E-03 3.06725E-02-2.69678E-02 4.79620E+01-2.20817E+01-4.60832E-01



 n o d a l   p r i n t   o u t   f o r   t i m e  s t e p    5001                              ( at time 2.4997498E+00 )

 nodal point  x-rot      y-rot       z-rot       x-rot vel   y-rot vel   z-rot vel   x-rot acc   y-rot acc   z-rot acc
    22626  3.31707E-07 5.67981E-05 9.65191E-05-3.38079E-06-2.61507E-05-4.82764E-05 1.50621E-05-1.09000E-04-1.52208E-04



 n o d a l   p r i n t   o u t   f o r   t i m e  s t e p    5201                              ( at time 2.5997398E+00 )

 nodal point  x-disp     y-disp      z-disp      x-vel       y-vel       z-vel      x-accl      y-accl      z-accl      x-coor      y-coor      z-coor
    22626 -2.64958E-03-5.12405E-02-8.11420E+00-5.21496E-03 9.37569E-03-3.15078E+00-9.90181E-03 4.42486E-02-3.63267E-02 4.79615E+01-2.20810E+01-7.75703E-01



 n o d a l   p r i n t   o u t   f o r   t i m e  s t e p    5201                              ( at time 2.5997398E+00 )

 nodal point  x-rot      y-rot       z-rot       x-rot vel   y-rot vel   z-rot vel   x-rot acc   y-rot acc   z-rot acc
    22626  3.64615E-08 5.37726E-05 9.11812E-05-3.99901E-06-3.49221E-05-6.14189E-05-6.18287E-06-8.77230E-05-1.31438E-04



 n o d a l   p r i n t   o u t   f o r   t i m e  s t e p    5401                              ( at time 2.6997298E+00 )

 nodal point  x-disp     y-disp      z-disp      x-vel       y-vel       z-vel      x-accl      y-accl      z-accl      x-coor      y-coor      z-coor
    22626 -3.21426E-03-5.00977E-02-8.42943E+00-6.35819E-03 1.30029E-02-3.15422E+00-1.14334E-02 3.62758E-02-3.44287E-02 4.79610E+01-2.20799E+01-1.09093E+00



 n o d a l   p r i n t   o u t   f o r   t i m e  s t e p    5401                              ( at time 2.6997298E+00 )

 nodal point  x-rot      y-rot       z-rot       x-rot vel   y-rot vel   z-rot vel   x-rot acc   y-rot acc   z-rot acc
    22626 -2.19560E-07 5.01286E-05 8.47707E-05-1.35017E-06-4.06691E-05-6.64529E-05 2.64911E-05-5.74754E-05-5.03454E-05



 n o d a l   p r i n t   o u t   f o r   t i m e  s t e p    5601                              ( at time 2.7997198E+00 )

 nodal point  x-disp     y-disp      z-disp      x-vel       y-vel       z-vel      x-accl      y-accl      z-accl      x-coor      y-coor      z-coor
    22626 -3.92027E-03-4.86729E-02-8.74494E+00-7.58688E-03 1.51752E-02-3.15641E+00-1.22881E-02 2.17246E-02-2.18628E-02 4.79603E+01-2.20785E+01-1.40643E+00



 n o d a l   p r i n t   o u t   f o r   t i m e  s t e p    5601                              ( at time 2.7997198E+00 )

 nodal point  x-rot      y-rot       z-rot       x-rot vel   y-rot vel   z-rot vel   x-rot acc   y-rot acc   z-rot acc
    22626 -2.98041E-07 4.53194E-05 7.67412E-05 8.98887E-07-5.64712E-05-9.73633E-05 2.24928E-05-1.58037E-04-3.09135E-04



 n o d a l   p r i n t   o u t   f o r   t i m e  s t e p    5801                              ( at time 2.8997098E+00 )

 nodal point  x-disp     y-disp      z-disp      x-vel       y-vel       z-vel      x-accl      y-accl      z-accl      x-coor      y-coor      z-coor
    22626 -4.68356E-03-4.70995E-02-9.06064E+00-7.76492E-03 1.61895E-02-3.15810E+00-1.78054E-03 1.01445E-02-1.69414E-02 4.79595E+01-2.20769E+01-1.72214E+00



 n o d a l   p r i n t   o u t   f o r   t i m e  s t e p    5801                              ( at time 2.8997098E+00 )

 nodal point  x-rot      y-rot       z-rot       x-rot vel   y-rot vel   z-rot vel   x-rot acc   y-rot acc   z-rot acc
    22626 -5.62702E-08 3.89767E-05 6.59518E-05 2.71203E-06-6.59348E-05-1.14811E-04 1.81332E-05-9.46453E-05-1.74497E-04



 n o d a l   p r i n t   o u t   f o r   t i m e  s t e p    6001                              ( at time 2.9996998E+00 )

 nodal point  x-disp     y-disp      z-disp      x-vel       y-vel       z-vel      x-accl      y-accl      z-accl      x-coor      y-coor      z-coor
    22626 -5.50087E-03-4.53642E-02-9.37652E+00-8.81909E-03 1.86860E-02-3.16044E+00-1.05428E-02 2.49676E-02-2.34269E-02 4.79587E+01-2.20752E+01-2.03802E+00



 n o d a l   p r i n t   o u t   f o r   t i m e  s t e p    6001                              ( at time 2.9996998E+00 )

 nodal point  x-rot      y-rot       z-rot       x-rot vel   y-rot vel   z-rot vel   x-rot acc   y-rot acc   z-rot acc
    22626  1.94276E-07 3.21557E-05 5.44354E-05 6.09524E-07-7.04417E-05-1.20348E-04-2.10271E-05-4.50739E-05-5.53772E-05



 n o d a l   p r i n t   o u t   f o r   t i m e  s t e p    6201                              ( at time 3.0996898E+00 )

 nodal point  x-disp     y-disp      z-disp      x-vel       y-vel       z-vel      x-accl      y-accl      z-accl      x-coor      y-coor      z-coor
    22626 -6.45928E-03-4.33720E-02-9.69265E+00-1.02791E-02 2.07142E-02-3.16243E+00-1.46014E-02 2.02839E-02-1.98575E-02 4.79577E+01-2.20732E+01-2.35414E+00



 n o d a l   p r i n t   o u t   f o r   t i m e  s t e p    6201                              ( at time 3.0996898E+00 )

 nodal point  x-rot      y-rot       z-rot       x-rot vel   y-rot vel   z-rot vel   x-rot acc   y-rot acc   z-rot acc
    22626  1.06941E-07 2.49151E-05 4.19892E-05-2.67175E-06-7.42955E-05-1.31276E-04-3.28161E-05-3.85417E-05-1.09289E-04



 n o d a l   p r i n t   o u t   f o r   t i m e  s t e p    6401                              ( at time 3.1996798E+00 )

 nodal point  x-disp     y-disp      z-disp      x-vel       y-vel       z-vel      x-accl      y-accl      z-accl      x-coor      y-coor      z-coor
    22626 -7.52020E-03-4.13304E-02-1.00089E+01-1.08679E-02 1.98234E-02-3.16303E+00-5.88894E-03-8.90850E-03-5.97536E-03 4.79567E+01-2.20711E+01-2.67040E+00



 n o d a l   p r i n t   o u t   f o r   t i m e  s t e p    6401                              ( at time 3.1996798E+00 )

 nodal point  x-rot      y-rot       z-rot       x-rot vel   y-rot vel   z-rot vel   x-rot acc   y-rot acc   z-rot acc
    22626 -9.02724E-08 1.69300E-05 2.85350E-05-1.94673E-06-8.51669E-05-1.43172E-04 7.25090E-06-1.08725E-04-1.18972E-04



 n o d a l   p r i n t   o u t   f o r   t i m e  s t e p    6601                              ( at time 3.2996698E+00 )

 nodal point  x-disp     y-disp      z-disp      x-vel       y-vel       z-vel      x-accl      y-accl      z-accl      x-coor      y-coor      z-coor
    22626 -8.61976E-03-3.94436E-02-1.03252E+01-1.10944E-02 1.79031E-02-3.16273E+00-2.26489E-03-1.92057E-02 2.93046E-03 4.79556E+01-2.20692E+01-2.98665E+00



 n o d a l   p r i n t   o u t   f o r   t i m e  s t e p    6601                              ( at time 3.2996698E+00 )

 nodal point  x-rot      y-rot       z-rot       x-rot vel   y-rot vel   z-rot vel   x-rot acc   y-rot acc   z-rot acc
    22626 -4.05133E-07 8.28508E-06 1.38717E-05-3.32096E-06-8.84959E-05-1.49916E-04-1.37436E-05-3.32931E-05-6.74474E-05



 n o d a l   p r i n t   o u t   f o r   t i m e  s t e p    6801                              ( at time 3.3996598E+00 )

 nodal point  x-disp     y-disp      z-disp      x-vel       y-vel       z-vel      x-accl      y-accl      z-accl      x-coor      y-coor      z-coor
    22626 -9.75726E-03-3.77427E-02-1.06414E+01-1.15864E-02 1.61318E-02-3.16265E+00-4.92006E-03-1.77139E-02 7.94012E-04 4.79544E+01-2.20675E+01-3.30289E+00



 n o d a l   p r i n t   o u t   f o r   t i m e  s t e p    6801                              ( at time 3.3996598E+00 )

 nodal point  x-rot      y-rot       z-rot       x-rot vel   y-rot vel   z-rot vel   x-rot acc   y-rot acc   z-rot acc
    22626 -5.31240E-07-4.88743E-07-1.24365E-06-3.12760E-06-8.73605E-05-1.51819E-04 1.93373E-06 1.13549E-05-1.90252E-05



 n o d a l   p r i n t   o u t   f o r   t i m e  s t e p    7001                              ( at time 3.4996498E+00 )

 nodal point  x-disp     y-disp      z-disp      x-vel       y-vel       z-vel      x-accl      y-accl      z-accl      x-coor      y-coor      z-coor
    22626 -1.09497E-02-3.61992E-02-1.09576E+01-1.22695E-02 1.47139E-02-3.16294E+00-6.83208E-03-1.41808E-02-2.87562E-03 4.79532E+01-2.20660E+01-3.61914E+00



 n o d a l   p r i n t   o u t   f o r   t i m e  s t e p    7001                              ( at time 3.4996498E+00 )

 nodal point  x-rot      y-rot       z-rot       x-rot vel   y-rot vel   z-rot vel   x-rot acc   y-rot acc   z-rot acc
    22626 -5.65537E-07-9.09611E-06-1.59309E-05-1.23940E-07-8.63769E-05-1.45605E-04 3.00397E-05 9.83722E-06 6.21430E-05



 n o d a l   p r i n t   o u t   f o r   t i m e  s t e p    7201                              ( at time 3.5996397E+00 )

 nodal point  x-disp     y-disp      z-disp      x-vel       y-vel       z-vel      x-accl      y-accl      z-accl      x-coor      y-coor      z-coor
    22626 -1.21940E-02-3.48362E-02-1.12739E+01-1.22818E-02 1.22037E-02-3.16263E+00-1.23329E-04-2.51042E-02 3.14983E-03 4.79520E+01-2.20646E+01-3.93540E+00



 n o d a l   p r i n t   o u t   f o r   t i m e  s t e p    7201                              ( at time 3.5996397E+00 )

 nodal point  x-rot      y-rot       z-rot       x-rot vel   y-rot vel   z-rot vel   x-rot acc   y-rot acc   z-rot acc
    22626 -7.17442E-07-1.75704E-05-3.01669E-05 5.17735E-07-8.33279E-05-1.36580E-04 6.41740E-06 3.04923E-05 9.02547E-05



 n o d a l   p r i n t   o u t   f o r   t i m e  s t e p    7401                              ( at time 3.6996297E+00 )

 nodal point  x-disp     y-disp      z-disp      x-vel       y-vel       z-vel      x-accl      y-accl      z-accl      x-coor      y-coor      z-coor
    22626 -1.34101E-02-3.37845E-02-1.15901E+01-1.19909E-02 8.86077E-03-3.16163E+00 2.90911E-03-3.34330E-02 9.91204E-03 4.79508E+01-2.20636E+01-4.25158E+00



 n o d a l   p r i n t   o u t   f o r   t i m e  s t e p    7401                              ( at time 3.6996297E+00 )

 nodal point  x-rot      y-rot       z-rot       x-rot vel   y-rot vel   z-rot vel   x-rot acc   y-rot acc   z-rot acc
    22626 -5.68135E-07-2.57858E-05-4.38076E-05 2.76894E-06-8.07587E-05-1.35286E-04 2.25143E-05 2.56950E-05 1.29464E-05



 n o d a l   p r i n t   o u t   f o r   t i m e  s t e p    7601                              ( at time 3.7996197E+00 )

 nodal point  x-disp     y-disp      z-disp      x-vel       y-vel       z-vel      x-accl      y-accl      z-accl      x-coor      y-coor      z-coor
    22626 -1.45832E-02-3.30303E-02-1.19062E+01-1.14989E-02 6.20301E-03-3.16094E+00 4.92117E-03-2.65803E-02 6.92199E-03 4.79496E+01-2.20628E+01-4.56767E+00



 n o d a l   p r i n t   o u t   f o r   t i m e  s t e p    7601                              ( at time 3.7996197E+00 )

 nodal point  x-rot      y-rot       z-rot       x-rot vel   y-rot vel   z-rot vel   x-rot acc   y-rot acc   z-rot acc
    22626 -2.64396E-07-3.35152E-05-5.68950E-05 3.63562E-06-7.11460E-05-1.19600E-04 8.66766E-06 9.61371E-05 1.56872E-04



 n o d a l   p r i n t   o u t   f o r   t i m e  s t e p    7801                              ( at time 3.8996097E+00 )

 nodal point  x-disp     y-disp      z-disp      x-vel       y-vel       z-vel      x-accl      y-accl      z-accl      x-coor      y-coor      z-coor
    22626 -1.57023E-02-3.25129E-02-1.22222E+01-1.08600E-02 4.39695E-03-3.16089E+00 6.38913E-03-1.80624E-02 5.00728E-04 4.79485E+01-2.20623E+01-4.88373E+00



 n o d a l   p r i n t   o u t   f o r   t i m e  s t e p    7801                              ( at time 3.8996097E+00 )

 nodal point  x-rot      y-rot       z-rot       x-rot vel   y-rot vel   z-rot vel   x-rot acc   y-rot acc   z-rot acc
    22626 -6.01785E-08-4.00232E-05-6.78238E-05-7.75306E-07-5.69702E-05-9.39083E-05-4.41136E-05 1.41772E-04 2.56945E-04



 n o d a l   p r i n t   o u t   f o r   t i m e  s t e p    8001                              ( at time 3.9995997E+00 )

 nodal point  x-disp     y-disp      z-disp      x-vel       y-vel       z-vel      x-accl      y-accl      z-accl      x-coor      y-coor      z-coor
    22626 -1.67605E-02-3.21173E-02-1.25383E+01-1.02677E-02 3.43920E-03-3.16122E+00 5.92373E-03-9.57845E-03-3.31197E-03 4.79474E+01-2.20619E+01-5.19981E+00



 n o d a l   p r i n t   o u t   f o r   t i m e  s t e p    8001                              ( at time 3.9995997E+00 )

 nodal point  x-rot      y-rot       z-rot       x-rot vel   y-rot vel   z-rot vel   x-rot acc   y-rot acc   z-rot acc
    22626 -1.15662E-07-4.51712E-05-7.62595E-05-2.52479E-06-4.48873E-05-7.70418E-05-1.74966E-05 1.20841E-04 1.68682E-04



 n o d a l   p r i n t   o u t   f o r   t i m e  s t e p    8201                              ( at time 4.0995897E+00 )

 nodal point  x-disp     y-disp      z-disp      x-vel       y-vel       z-vel      x-accl      y-accl      z-accl      x-coor      y-coor      z-coor
    22626 -1.77036E-02-3.18902E-02-1.28544E+01-8.47015E-03 8.91701E-04-3.16075E+00 1.79774E-02-2.54775E-02 4.75930E-03 4.79465E+01-2.20617E+01-5.51587E+00



 n o d a l   p r i n t   o u t   f o r   t i m e  s t e p    8201                              ( at time 4.0995897E+00 )

 nodal point  x-rot      y-rot       z-rot       x-rot vel   y-rot vel   z-rot vel   x-rot acc   y-rot acc   z-rot acc
    22626 -3.75193E-07-4.91775E-05-8.29482E-05-2.86793E-06-3.18182E-05-5.40284E-05-3.43169E-06 1.30704E-04 2.30157E-04



 n o d a l   p r i n t   o u t   f o r   t i m e  s t e p    8401                              ( at time 4.1995797E+00 )

 nodal point  x-disp     y-disp      z-disp      x-vel       y-vel       z-vel      x-accl      y-accl      z-accl      x-coor      y-coor      z-coor
    22626 -1.84703E-02-3.19196E-02-1.31704E+01-6.86055E-03-1.36166E-03-3.16013E+00 1.60976E-02-2.25359E-02 6.21859E-03 4.79457E+01-2.20617E+01-5.83188E+00



 n o d a l   p r i n t   o u t   f o r   t i m e  s t e p    8401                              ( at time 4.1995797E+00 )

 nodal point  x-rot      y-rot       z-rot       x-rot vel   y-rot vel   z-rot vel   x-rot acc   y-rot acc   z-rot acc
    22626 -7.36755E-07-5.14795E-05-8.65916E-05-5.39701E-06-1.33353E-05-1.97998E-05-2.52934E-05 1.84848E-04 3.42321E-04



 n o d a l   p r i n t   o u t   f o r   t i m e  s t e p    8601                              ( at time 4.2995697E+00 )

 nodal point  x-disp     y-disp      z-disp      x-vel       y-vel       z-vel      x-accl      y-accl      z-accl      x-coor      y-coor      z-coor
    22626 -1.90955E-02-3.21702E-02-1.34863E+01-5.52427E-03-3.39295E-03-3.15990E+00 1.33641E-02-2.03150E-02 2.27713E-03 4.79451E+01-2.20620E+01-6.14784E+00



 n o d a l   p r i n t   o u t   f o r   t i m e  s t e p    8601                              ( at time 4.2995697E+00 )

 nodal point  x-rot      y-rot       z-rot       x-rot vel   y-rot vel   z-rot vel   x-rot acc   y-rot acc   z-rot acc
    22626 -1.35573E-06-5.18569E-05-8.70937E-05-6.75923E-06 3.24219E-06 8.40042E-06-1.36235E-05 1.65792E-04 2.82030E-04



 n o d a l   p r i n t   o u t   f o r   t i m e  s t e p    8801                              ( at time 4.3995597E+00 )

 nodal point  x-disp     y-disp      z-disp      x-vel       y-vel       z-vel      x-accl      y-accl      z-accl      x-coor      y-coor      z-coor
    22626 -1.95617E-02-3.25431E-02-1.38023E+01-3.80461E-03-4.10814E-03-3.16053E+00 1.71984E-02-7.15258E-03-6.27820E-03 4.79446E+01-2.20623E+01-6.46383E+00



 n o d a l   p r i n t   o u t   f o r   t i m e  s t e p    8801                              ( at time 4.3995597E+00 )

 nodal point  x-rot      y-rot       z-rot       x-rot vel   y-rot vel   z-rot vel   x-rot acc   y-rot acc   z-rot acc
    22626 -2.03672E-06-5.05857E-05-8.44021E-05-7.49440E-06 2.21330E-05 4.40979E-05-7.35241E-06 1.88927E-04 3.57011E-04



 n o d a l   p r i n t   o u t   f o r   t i m e  s t e p    9001                              ( at time 4.4995497E+00 )

 nodal point  x-disp     y-disp      z-disp      x-vel       y-vel       z-vel      x-accl      y-accl      z-accl      x-coor      y-coor      z-coor
    22626 -1.98575E-02-3.30512E-02-1.41183E+01-1.99874E-03-6.42005E-03-3.16012E+00 1.80604E-02-2.31214E-02 4.10596E-03 4.79443E+01-2.20628E+01-6.77984E+00



 n o d a l   p r i n t   o u t   f o r   t i m e  s t e p    9001                              ( at time 4.4995497E+00 )

 nodal point  x-rot      y-rot       z-rot       x-rot vel   y-rot vel   z-rot vel   x-rot acc   y-rot acc   z-rot acc
    22626 -2.81722E-06-4.70839E-05-7.78469E-05-6.13165E-06 4.41042E-05 8.09079E-05 1.36288E-05 2.19733E-04 3.68135E-04



 n o d a l   p r i n t   o u t   f o r   t i m e  s t e p    9201                              ( at time 4.5995397E+00 )

 nodal point  x-disp     y-disp      z-disp      x-vel       y-vel       z-vel      x-accl      y-accl      z-accl      x-coor      y-coor      z-coor
    22626 -1.99600E-02-3.38466E-02-1.44343E+01-1.47842E-05-9.28474E-03-3.15952E+00 1.98416E-02-2.86498E-02 5.98253E-03 4.79442E+01-2.20636E+01-7.09578E+00



 n o d a l   p r i n t   o u t   f o r   t i m e  s t e p    9201                              ( at time 4.5995397E+00 )

 nodal point  x-rot      y-rot       z-rot       x-rot vel   y-rot vel   z-rot vel   x-rot acc   y-rot acc   z-rot acc
    22626 -3.44898E-06-4.18754E-05-6.83326E-05-5.25636E-06 6.01147E-05 1.07304E-04 8.75378E-06 1.60121E-04 2.63983E-04



 n o d a l   p r i n t   o u t   f o r   t i m e  s t e p    9401                              ( at time 4.6995297E+00 )

 nodal point  x-disp     y-disp      z-disp      x-vel       y-vel       z-vel      x-accl      y-accl      z-accl      x-coor      y-coor      z-coor
    22626 -1.98474E-02-3.48541E-02-1.47502E+01 2.16989E-03-1.08359E-02-3.15942E+00 2.18490E-02-1.55135E-02 9.68077E-04 4.79443E+01-2.20646E+01-7.41170E+00



 n o d a l   p r i n t   o u t   f o r   t i m e  s t e p    9401                              ( at time 4.6995297E+00 )

 nodal point  x-rot      y-rot       z-rot       x-rot vel   y-rot vel   z-rot vel   x-rot acc   y-rot acc   z-rot acc
    22626 -4.04027E-06-3.46941E-05-5.54183E-05-6.91786E-06 8.57465E-05 1.50792E-04-1.66167E-05 2.56344E-04 4.34924E-04



 n o d a l   p r i n t   o u t   f o r   t i m e  s t e p    9601                              ( at time 4.7995197E+00 )

 nodal point  x-disp     y-disp      z-disp      x-vel       y-vel       z-vel      x-accl      y-accl      z-accl      x-coor      y-coor      z-coor
    22626 -1.95119E-02-3.60335E-02-1.50661E+01 4.30343E-03-1.24792E-02-3.15833E+00 2.13375E-02-1.64345E-02 1.09493E-02 4.79447E+01-2.20658E+01-7.72757E+00



 n o d a l   p r i n t   o u t   f o r   t i m e  s t e p    9601                              ( at time 4.7995197E+00 )

 nodal point  x-rot      y-rot       z-rot       x-rot vel   y-rot vel   z-rot vel   x-rot acc   y-rot acc   z-rot acc
    22626 -5.18495E-06-2.44410E-05-3.77674E-05-1.62991E-05 1.23054E-04 1.95902E-04-9.38216E-05 3.73112E-04 4.51150E-04



 n o d a l   p r i n t   o u t   f o r   t i m e  s t e p    9801                              ( at time 4.8995097E+00 )

 nodal point  x-disp     y-disp      z-disp      x-vel       y-vel       z-vel      x-accl      y-accl      z-accl      x-coor      y-coor      z-coor
    22626 -1.90037E-02-3.72722E-02-1.53818E+01 6.06931E-03-1.25948E-02-3.15587E+00 1.76606E-02-1.15600E-03 2.45811E-02 4.79452E+01-2.20671E+01-8.04327E+00



 n o d a l   p r i n t   o u t   f o r   t i m e  s t e p    9801                              ( at time 4.8995097E+00 )

 nodal point  x-rot      y-rot       z-rot       x-rot vel   y-rot vel   z-rot vel   x-rot acc   y-rot acc   z-rot acc
    22626 -5.64162E-06-9.96501E-06-1.71286E-05 2.98912E-06 1.71762E-04 2.18675E-04 1.92901E-04 4.87127E-04 2.27758E-04



 n o d a l   p r i n t   o u t   f o r   t i m e  s t e p   10001                              ( at time 4.9994997E+00 )

 nodal point  x-disp     y-disp      z-disp      x-vel       y-vel       z-vel      x-accl      y-accl      z-accl      x-coor      y-coor      z-coor
    22626 -1.82648E-02-3.86317E-02-1.56969E+01 8.91243E-03-1.45910E-02-3.14755E+00 2.84340E-02-1.99640E-02 8.31875E-02 4.79459E+01-2.20684E+01-8.35845E+00



 n o d a l   p r i n t   o u t   f o r   t i m e  s t e p   10001                              ( at time 4.9994997E+00 )

 nodal point  x-rot      y-rot       z-rot       x-rot vel   y-rot vel   z-rot vel   x-rot acc   y-rot acc   z-rot acc
    22626 -5.47203E-06 1.15231E-05 6.32644E-06 3.79669E-06 2.59977E-04 2.44650E-04 8.07648E-06 8.82240E-04 2.59768E-04



 n o d a l   p r i n t   o u t   f o r   t i m e  s t e p   10202                              ( at time 5.0999896E+00 )

 nodal point  x-disp     y-disp      z-disp      x-vel       y-vel       z-vel      x-accl      y-accl      z-accl      x-coor      y-coor      z-coor
    22626 -1.72502E-02-4.00873E-02-1.60126E+01 1.10298E-02-1.38676E-02-3.13491E+00 2.10700E-02 7.19858E-03 1.25753E-01 4.79469E+01-2.20699E+01-8.67414E+00



 n o d a l   p r i n t   o u t   f o r   t i m e  s t e p   10202                              ( at time 5.0999896E+00 )

 nodal point  x-rot      y-rot       z-rot       x-rot vel   y-rot vel   z-rot vel   x-rot acc   y-rot acc   z-rot acc
    22626 -2.04020E-06 4.45647E-05 3.13485E-05 6.97586E-05 4.01130E-04 2.52764E-04 6.56405E-04 1.40465E-03 8.07447E-05



 n o d a l   p r i n t   o u t   f o r   t i m e  s t e p   10402                              ( at time 5.1999796E+00 )

 nodal point  x-disp     y-disp      z-disp      x-vel       y-vel       z-vel      x-accl      y-accl      z-accl      x-coor      y-coor      z-coor
    22626 -1.60367E-02-4.13623E-02-1.63252E+01 1.35838E-02-1.07634E-02-3.11592E+00 2.55428E-02 3.10455E-02 1.89904E-01 4.79481E+01-2.20712E+01-8.98670E+00



 n o d a l   p r i n t   o u t   f o r   t i m e  s t e p   10402                              ( at time 5.1999796E+00 )

 nodal point  x-rot      y-rot       z-rot       x-rot vel   y-rot vel   z-rot vel   x-rot acc   y-rot acc   z-rot acc
    22626  8.06874E-06 9.41245E-05 5.65087E-05 1.40960E-04 5.84942E-04 2.40829E-04 7.12079E-04 1.83830E-03-1.19360E-04



 n o d a l   p r i n t   o u t   f o r   t i m e  s t e p   10602                              ( at time 5.2999696E+00 )

 nodal point  x-disp     y-disp      z-disp      x-vel       y-vel       z-vel      x-accl      y-accl      z-accl      x-coor      y-coor      z-coor
    22626 -1.45118E-02-4.22537E-02-1.66356E+01 1.68528E-02-7.17897E-03-3.09232E+00 3.26939E-02 3.58476E-02 2.36084E-01 4.79497E+01-2.20720E+01-9.29714E+00



 n o d a l   p r i n t   o u t   f o r   t i m e  s t e p   10602                              ( at time 5.2999696E+00 )

 nodal point  x-rot      y-rot       z-rot       x-rot vel   y-rot vel   z-rot vel   x-rot acc   y-rot acc   z-rot acc
    22626  2.82398E-05 1.63764E-04 7.91864E-05 2.53257E-04 8.16550E-04 2.13740E-04 1.12309E-03 2.31631E-03-2.70912E-04



 n o d a l   p r i n t   o u t   f o r   t i m e  s t e p   10802                              ( at time 5.3999596E+00 )

 nodal point  x-disp     y-disp      z-disp      x-vel       y-vel       z-vel      x-accl      y-accl      z-accl      x-coor      y-coor      z-coor
    22626 -1.26816E-02-4.27589E-02-1.69435E+01 2.05824E-02-3.24542E-03-3.06499E+00 3.72998E-02 3.93395E-02 2.73327E-01 4.79515E+01-2.20725E+01-9.60501E+00



 n o d a l   p r i n t   o u t   f o r   t i m e  s t e p   10802                              ( at time 5.3999596E+00 )

 nodal point  x-rot      y-rot       z-rot       x-rot vel   y-rot vel   z-rot vel   x-rot acc   y-rot acc   z-rot acc
    22626  5.96440E-05 2.57041E-04 9.88086E-05 3.76912E-04 1.05478E-03 1.77525E-04 1.23667E-03 2.38255E-03-3.62193E-04



 n o d a l   p r i n t   o u t   f o r   t i m e  s t e p   11002                              ( at time 5.4999496E+00 )

 nodal point  x-disp     y-disp      z-disp      x-vel       y-vel       z-vel      x-accl      y-accl      z-accl      x-coor      y-coor      z-coor
    22626 -1.04475E-02-4.27377E-02-1.72484E+01 2.42027E-02 3.65993E-03-3.03351E+00 3.62065E-02 6.90604E-02 3.14763E-01 4.79537E+01-2.20725E+01-9.90990E+00



 n o d a l   p r i n t   o u t   f o r   t i m e  s t e p   11002                              ( at time 5.4999496E+00 )

 nodal point  x-rot      y-rot       z-rot       x-rot vel   y-rot vel   z-rot vel   x-rot acc   y-rot acc   z-rot acc
    22626  1.06324E-04 3.76534E-04 1.13402E-04 5.59326E-04 1.34138E-03 1.17423E-04 1.82433E-03 2.86630E-03-6.01076E-04



 n o d a l   p r i n t   o u t   f o r   t i m e  s t e p   11202                              ( at time 5.5999396E+00 )

 nodal point  x-disp     y-disp      z-disp      x-vel       y-vel       z-vel      x-accl      y-accl      z-accl      x-coor      y-coor      z-coor
    22626 -7.89393E-03-4.20055E-02-1.75500E+01 2.71386E-02 1.06233E-02-3.00017E+00 2.93620E-02 6.96406E-02 3.33448E-01 4.79563E+01-2.20718E+01-1.02115E+01



 n o d a l   p r i n t   o u t   f o r   t i m e  s t e p   11202                              ( at time 5.5999396E+00 )

 nodal point  x-rot      y-rot       z-rot       x-rot vel   y-rot vel   z-rot vel   x-rot acc   y-rot acc   z-rot acc
    22626  1.69271E-04 5.26746E-04 1.22722E-04 7.07042E-04 1.65844E-03 6.11971E-05 1.47731E-03 3.17087E-03-5.62319E-04



 n o d a l   p r i n t   o u t   f o r   t i m e  s t e p   11402                              ( at time 5.6999296E+00 )

 nodal point  x-disp     y-disp      z-disp      x-vel       y-vel       z-vel      x-accl      y-accl      z-accl      x-coor      y-coor      z-coor
    22626 -4.97597E-03-4.05928E-02-1.78482E+01 3.12406E-02 1.86321E-02-2.96364E+00 4.10238E-02 8.00957E-02 3.65378E-01 4.79592E+01-2.20704E+01-1.05097E+01



 n o d a l   p r i n t   o u t   f o r   t i m e  s t e p   11402                              ( at time 5.6999296E+00 )

 nodal point  x-rot      y-rot       z-rot       x-rot vel   y-rot vel   z-rot vel   x-rot acc   y-rot acc   z-rot acc
    22626  2.48393E-04 7.09068E-04 1.25595E-04 8.88494E-04 1.97462E-03-2.37243E-05 1.81469E-03 3.16210E-03-8.49296E-04



 n o d a l   p r i n t   o u t   f o r   t i m e  s t e p   11602                              ( at time 5.7999195E+00 )

 nodal point  x-disp     y-disp      z-disp      x-vel       y-vel       z-vel      x-accl      y-accl      z-accl      x-coor      y-coor      z-coor
    22626 -1.63460E-03-3.82474E-02-1.81426E+01 3.57849E-02 2.73747E-02-2.92522E+00 4.54471E-02 8.74345E-02 3.84222E-01 4.79625E+01-2.20680E+01-1.08041E+01



 n o d a l   p r i n t   o u t   f o r   t i m e  s t e p   11602                              ( at time 5.7999195E+00 )

 nodal point  x-rot      y-rot       z-rot       x-rot vel   y-rot vel   z-rot vel   x-rot acc   y-rot acc   z-rot acc
    22626  3.47095E-04 9.23397E-04 1.19702E-04 1.07038E-03 2.31345E-03-9.93619E-05 1.81908E-03 3.38871E-03-7.56452E-04



 n o d a l   p r i n t   o u t   f o r   t i m e  s t e p   11802                              ( at time 5.8999095E+00 )

 nodal point  x-disp     y-disp      z-disp      x-vel       y-vel       z-vel      x-accl      y-accl      z-accl      x-coor      y-coor      z-coor
    22626  2.15771E-03-3.52389E-02-1.84331E+01 4.03032E-02 3.29766E-02-2.88444E+00 4.51879E-02 5.60252E-02 4.07882E-01 4.79663E+01-2.20650E+01-1.10946E+01



 n o d a l   p r i n t   o u t   f o r   t i m e  s t e p   11802                              ( at time 5.8999095E+00 )

 nodal point  x-rot      y-rot       z-rot       x-rot vel   y-rot vel   z-rot vel   x-rot acc   y-rot acc   z-rot acc
    22626  4.61846E-04 1.17277E-03 1.06401E-04 1.22165E-03 2.66963E-03-1.69227E-04 1.51284E-03 3.56211E-03-6.98724E-04



 n o d a l   p r i n t   o u t   f o r   t i m e  s t e p   12002                              ( at time 5.9998995E+00 )

 nodal point  x-disp     y-disp      z-disp      x-vel       y-vel       z-vel      x-accl      y-accl      z-accl      x-coor      y-coor      z-coor
    22626  6.52304E-03-3.15289E-02-1.87195E+01 4.69029E-02 4.14506E-02-2.84344E+00 6.60034E-02 8.47483E-02 4.09962E-01 4.79707E+01-2.20613E+01-1.13810E+01



 n o d a l   p r i n t   o u t   f o r   t i m e  s t e p   12002                              ( at time 5.9998995E+00 )

 nodal point  x-rot      y-rot       z-rot       x-rot vel   y-rot vel   z-rot vel   x-rot acc   y-rot acc   z-rot acc
    22626  5.94040E-04 1.45515E-03 8.40161E-05 1.42986E-03 2.97624E-03-2.84036E-04 2.08228E-03 3.06645E-03-1.14821E-03



 n o d a l   p r i n t   o u t   f o r   t i m e  s t e p   12202                              ( at time 6.0998895E+00 )

 nodal point  x-disp     y-disp      z-disp      x-vel       y-vel       z-vel      x-accl      y-accl      z-accl      x-coor      y-coor      z-coor
    22626  1.15399E-02-2.69189E-02-1.90016E+01 5.33116E-02 5.04183E-02-2.79944E+00 6.40934E-02 8.96854E-02 4.40125E-01 4.79757E+01-2.20567E+01-1.16631E+01



 n o d a l   p r i n t   o u t   f o r   t i m e  s t e p   12202                              ( at time 6.0998895E+00 )

 nodal point  x-rot      y-rot       z-rot       x-rot vel   y-rot vel   z-rot vel   x-rot acc   y-rot acc   z-rot acc
    22626  7.45858E-04 1.76979E-03 5.08811E-05 1.59650E-03 3.31037E-03-3.76199E-04 1.66656E-03 3.34160E-03-9.21715E-04



 n o d a l   p r i n t   o u t   f o r   t i m e  s t e p   12402                              ( at time 6.1998795E+00 )

 nodal point  x-disp     y-disp      z-disp      x-vel       y-vel       z-vel      x-accl      y-accl      z-accl      x-coor      y-coor      z-coor
    22626  1.71276E-02-2.15346E-02-1.92793E+01 5.90341E-02 5.72253E-02-2.75607E+00 5.72304E-02 6.80768E-02 4.33711E-01 4.79813E+01-2.20513E+01-1.19408E+01



 n o d a l   p r i n t   o u t   f o r   t i m e  s t e p   12402                              ( at time 6.1998795E+00 )

 nodal point  x-rot      y-rot       z-rot       x-rot vel   y-rot vel   z-rot vel   x-rot acc   y-rot acc   z-rot acc
    22626  9.14602E-04 2.11828E-03 8.87931E-06 1.78765E-03 3.64760E-03-4.72367E-04 1.91175E-03 3.37266E-03-9.61782E-04



 n o d a l   p r i n t   o u t   f o r   t i m e  s t e p   12602                              ( at time 6.2998695E+00 )

 nodal point  x-disp     y-disp      z-disp      x-vel       y-vel       z-vel      x-accl      y-accl      z-accl      x-coor      y-coor      z-coor
    22626  2.34246E-02-1.54669E-02-1.95526E+01 6.69273E-02 6.51240E-02-2.70939E+00 7.89404E-02 7.89951E-02 4.66890E-01 4.79876E+01-2.20453E+01-1.22141E+01



 n o d a l   p r i n t   o u t   f o r   t i m e  s t e p   12602                              ( at time 6.2998695E+00 )

 nodal point  x-rot      y-rot       z-rot       x-rot vel   y-rot vel   z-rot vel   x-rot acc   y-rot acc   z-rot acc
    22626  1.10277E-03 2.49879E-03-4.42549E-05 1.97388E-03 3.96182E-03-5.97145E-04 1.86241E-03 3.14246E-03-1.24790E-03



 n o d a l   p r i n t   o u t   f o r   t i m e  s t e p   12802                              ( at time 6.3998595E+00 )

 nodal point  x-disp     y-disp      z-disp      x-vel       y-vel       z-vel      x-accl      y-accl      z-accl      x-coor      y-coor      z-coor
    22626  3.05594E-02-8.58300E-03-1.98212E+01 7.52005E-02 7.22460E-02-2.66382E+00 8.27401E-02 7.12279E-02 4.55678E-01 4.79947E+01-2.20384E+01-1.24827E+01



 n o d a l   p r i n t   o u t   f o r   t i m e  s t e p   12802                              ( at time 6.3998595E+00 )

 nodal point  x-rot      y-rot       z-rot       x-rot vel   y-rot vel   z-rot vel   x-rot acc   y-rot acc   z-rot acc
    22626  1.31052E-03 2.91104E-03-1.08812E-04 2.18432E-03 4.28016E-03-6.92245E-04 2.10460E-03 3.18376E-03-9.51096E-04



 n o d a l   p r i n t   o u t   f o r   t i m e  s t e p   13002                              ( at time 6.4998495E+00 )

 nodal point  x-disp     y-disp      z-disp      x-vel       y-vel       z-vel      x-accl      y-accl      z-accl      x-coor      y-coor      z-coor
    22626  3.84709E-02-9.79372E-04-2.00852E+01 8.32389E-02 8.06079E-02-2.61631E+00 8.03920E-02 8.36272E-02 4.75154E-01 4.80027E+01-2.20308E+01-1.27467E+01



 n o d a l   p r i n t   o u t   f o r   t i m e  s t e p   13002                              ( at time 6.4998495E+00 )

 nodal point  x-rot      y-rot       z-rot       x-rot vel   y-rot vel   z-rot vel   x-rot acc   y-rot acc   z-rot acc
    22626  1.53766E-03 3.35419E-03-1.82535E-04 2.36496E-03 4.58823E-03-7.90557E-04 1.80665E-03 3.08098E-03-9.83222E-04



 n o d a l   p r i n t   o u t   f o r   t i m e  s t e p   13202                              ( at time 6.5998395E+00 )

 nodal point  x-disp     y-disp      z-disp      x-vel       y-vel       z-vel      x-accl      y-accl      z-accl      x-coor      y-coor      z-coor
    22626  4.72009E-02 7.53516E-03-2.03445E+01 9.22831E-02 8.90077E-02-2.56950E+00 9.04507E-02 8.40058E-02 4.68137E-01 4.80114E+01-2.20223E+01-1.30060E+01



 n o d a l   p r i n t   o u t   f o r   t i m e  s t e p   13202                              ( at time 6.5998395E+00 )

 nodal point  x-rot      y-rot       z-rot       x-rot vel   y-rot vel   z-rot vel   x-rot acc   y-rot acc   z-rot acc
    22626  1.78367E-03 3.82736E-03-2.67332E-04 2.55749E-03 4.87476E-03-8.98161E-04 1.92545E-03 2.86565E-03-1.07615E-03



 n o d a l   p r i n t   o u t   f o r   t i m e  s t e p   13402                              ( at time 6.6998295E+00 )

 nodal point  x-disp     y-disp      z-disp      x-vel       y-vel       z-vel      x-accl      y-accl      z-accl      x-coor      y-coor      z-coor
    22626  5.68996E-02 1.68620E-02-2.05987E+01 1.01747E-01 9.75998E-02-2.51651E+00 9.46460E-02 8.59299E-02 5.29963E-01 4.80211E+01-2.20129E+01-1.32602E+01



 n o d a l   p r i n t   o u t   f o r   t i m e  s t e p   13402                              ( at time 6.6998295E+00 )

 nodal point  x-rot      y-rot       z-rot       x-rot vel   y-rot vel   z-rot vel   x-rot acc   y-rot acc   z-rot acc
    22626  2.04901E-03 4.32892E-03-3.63444E-04 2.75130E-03 5.15231E-03-1.02375E-03 1.93832E-03 2.77570E-03-1.25602E-03



 n o d a l   p r i n t   o u t   f o r   t i m e  s t e p   13602                              ( at time 6.7998195E+00 )

 nodal point  x-disp     y-disp      z-disp      x-vel       y-vel       z-vel      x-accl      y-accl      z-accl      x-coor      y-coor      z-coor
    22626  6.75415E-02 2.70254E-02-2.08478E+01 1.10767E-01 1.05780E-01-2.46498E+00 9.02076E-02 8.18131E-02 5.15322E-01 4.80317E+01-2.20028E+01-1.35093E+01



 n o d a l   p r i n t   o u t   f o r   t i m e  s t e p   13602                              ( at time 6.7998195E+00 )

 nodal point  x-rot      y-rot       z-rot       x-rot vel   y-rot vel   z-rot vel   x-rot acc   y-rot acc   z-rot acc
    22626  2.33431E-03 4.85881E-03-4.71098E-04 2.94888E-03 5.44158E-03-1.12520E-03 1.97595E-03 2.89298E-03-1.01456E-03



 n o d a l   p r i n t   o u t   f o r   t i m e  s t e p   13802                              ( at time 6.8998095E+00 )

 nodal point  x-disp     y-disp      z-disp      x-vel       y-vel       z-vel      x-accl      y-accl      z-accl      x-coor      y-coor      z-coor
    22626  7.90676E-02 3.80090E-02-2.10916E+01 1.19768E-01 1.13513E-01-2.41172E+00 9.00200E-02 7.73314E-02 5.32710E-01 4.80432E+01-2.19918E+01-1.37531E+01



 n o d a l   p r i n t   o u t   f o r   t i m e  s t e p   13802                              ( at time 6.8998095E+00 )

 nodal point  x-rot      y-rot       z-rot       x-rot vel   y-rot vel   z-rot vel   x-rot acc   y-rot acc   z-rot acc
    22626  2.63832E-03 5.41680E-03-5.89433E-04 3.13822E-03 5.73085E-03-1.23651E-03 1.89367E-03 2.89305E-03-1.11328E-03



 n o d a l   p r i n t   o u t   f o r   t i m e  s t e p   14002                              ( at time 6.9997995E+00 )

 nodal point  x-disp     y-disp      z-disp      x-vel       y-vel       z-vel      x-accl      y-accl      z-accl      x-coor      y-coor      z-coor
    22626  9.14539E-02 4.98365E-02-2.13300E+01 1.29058E-01 1.21961E-01-2.35798E+00 9.29172E-02 8.44937E-02 5.37402E-01 4.80556E+01-2.19800E+01-1.39915E+01



 n o d a l   p r i n t   o u t   f o r   t i m e  s t e p   14002                              ( at time 6.9997995E+00 )

 nodal point  x-rot      y-rot       z-rot       x-rot vel   y-rot vel   z-rot vel   x-rot acc   y-rot acc   z-rot acc
    22626  2.96477E-03 6.00451E-03-7.21068E-04 3.38061E-03 6.02399E-03-1.35677E-03 2.42407E-03 2.93167E-03-1.20270E-03



 n o d a l   p r i n t   o u t   f o r   t i m e  s t e p   14202                              ( at time 7.0997895E+00 )

 nodal point  x-disp     y-disp      z-disp      x-vel       y-vel       z-vel      x-accl      y-accl      z-accl      x-coor      y-coor      z-coor
    22626  1.04734E-01 6.24245E-02-2.15631E+01 1.36990E-01 1.29111E-01-2.30278E+00 7.93258E-02 7.15046E-02 5.52111E-01 4.80689E+01-2.19674E+01-1.42246E+01



 n o d a l   p r i n t   o u t   f o r   t i m e  s t e p   14202                              ( at time 7.0997895E+00 )

 nodal point  x-rot      y-rot       z-rot       x-rot vel   y-rot vel   z-rot vel   x-rot acc   y-rot acc   z-rot acc
    22626  3.31433E-03 6.62013E-03-8.63266E-04 3.60124E-03 6.31105E-03-1.47419E-03 2.20654E-03 2.87092E-03-1.17430E-03



 n o d a l   p r i n t   o u t   f o r   t i m e  s t e p   14402                              ( at time 7.1997794E+00 )

 nodal point  x-disp     y-disp      z-disp      x-vel       y-vel       z-vel      x-accl      y-accl      z-accl      x-coor      y-coor      z-coor
    22626  1.18826E-01 7.56378E-02-2.17906E+01 1.44962E-01 1.35246E-01-2.24740E+00 7.97260E-02 6.13561E-02 5.53867E-01 4.80830E+01-2.19542E+01-1.44521E+01



 n o d a l   p r i n t   o u t   f o r   t i m e  s t e p   14402                              ( at time 7.1997794E+00 )

 nodal point  x-rot      y-rot       z-rot       x-rot vel   y-rot vel   z-rot vel   x-rot acc   y-rot acc   z-rot acc
    22626  3.68563E-03 7.26577E-03-1.01603E-03 3.82486E-03 6.60061E-03-1.57982E-03 2.23645E-03 2.89583E-03-1.05640E-03



 n o d a l   p r i n t   o u t   f o r   t i m e  s t e p   14602                              ( at time 7.2997694E+00 )

 nodal point  x-disp     y-disp      z-disp      x-vel       y-vel       z-vel      x-accl      y-accl      z-accl      x-coor      y-coor      z-coor
    22626  1.33711E-01 8.95348E-02-2.20123E+01 1.52549E-01 1.42021E-01-2.18931E+00 7.58818E-02 6.77611E-02 5.80906E-01 4.80979E+01-2.19403E+01-1.46738E+01



 n o d a l   p r i n t   o u t   f o r   t i m e  s t e p   14602                              ( at time 7.2997694E+00 )

 nodal point  x-rot      y-rot       z-rot       x-rot vel   y-rot vel   z-rot vel   x-rot acc   y-rot acc   z-rot acc
    22626  4.08133E-03 7.94170E-03-1.17996E-03 4.08773E-03 6.92113E-03-1.68628E-03 2.62894E-03 3.20561E-03-1.06468E-03



 n o d a l   p r i n t   o u t   f o r   t i m e  s t e p   14802                              ( at time 7.3997594E+00 )

 nodal point  x-disp     y-disp      z-disp      x-vel       y-vel       z-vel      x-accl      y-accl      z-accl      x-coor      y-coor      z-coor
    22626  1.49331E-01 1.04056E-01-2.22282E+01 1.60036E-01 1.48599E-01-2.12811E+00 7.48740E-02 6.57826E-02 6.12087E-01 4.81135E+01-2.19257E+01-1.48897E+01



 n o d a l   p r i n t   o u t   f o r   t i m e  s t e p   14802                              ( at time 7.3997594E+00 )

 nodal point  x-rot      y-rot       z-rot       x-rot vel   y-rot vel   z-rot vel   x-rot acc   y-rot acc   z-rot acc
    22626  4.50139E-03 8.64871E-03-1.35359E-03 4.31911E-03 7.23587E-03-1.78343E-03 2.31404E-03 3.14771E-03-9.71682E-04



 n o d a l   p r i n t   o u t   f o r   t i m e  s t e p   15002                              ( at time 7.4997494E+00 )

 nodal point  x-disp     y-disp      z-disp      x-vel       y-vel       z-vel      x-accl      y-accl      z-accl      x-coor      y-coor      z-coor
    22626  1.65521E-01 1.19024E-01-2.24380E+01 1.64233E-01 1.50638E-01-2.06769E+00 4.19685E-02 2.03893E-02 6.04237E-01 4.81297E+01-2.19108E+01-1.50995E+01



 n o d a l   p r i n t   o u t   f o r   t i m e  s t e p   15002                              ( at time 7.4997494E+00 )

 nodal point  x-rot      y-rot       z-rot       x-rot vel   y-rot vel   z-rot vel   x-rot acc   y-rot acc   z-rot acc
    22626  4.94524E-03 9.38787E-03-1.53617E-03 4.56326E-03 7.54814E-03-1.86212E-03 2.44174E-03 3.12292E-03-7.86929E-04



 n o d a l   p r i n t   o u t   f o r   t i m e  s t e p   15202                              ( at time 7.5997394E+00 )

 nodal point  x-disp     y-disp      z-disp      x-vel       y-vel       z-vel      x-accl      y-accl      z-accl      x-coor      y-coor      z-coor
    22626  1.82265E-01 1.34460E-01-2.26413E+01 1.71154E-01 1.56235E-01-2.00010E+00 6.92254E-02 5.59773E-02 6.75942E-01 4.81464E+01-2.18953E+01-1.53028E+01



 n o d a l   p r i n t   o u t   f o r   t i m e  s t e p   15202                              ( at time 7.5997394E+00 )

 nodal point  x-rot      y-rot       z-rot       x-rot vel   y-rot vel   z-rot vel   x-rot acc   y-rot acc   z-rot acc
    22626  5.41560E-03 1.01587E-02-1.72794E-03 4.83764E-03 7.85495E-03-1.95948E-03 2.74407E-03 3.06841E-03-9.73689E-04



 n o d a l   p r i n t   o u t   f o r   t i m e  s t e p   15402                              ( at time 7.6997294E+00 )

 nodal point  x-disp     y-disp      z-disp      x-vel       y-vel       z-vel      x-accl      y-accl      z-accl      x-coor      y-coor      z-coor
    22626  1.99686E-01 1.50127E-01-2.28380E+01 1.77032E-01 1.57093E-01-1.93433E+00 5.87836E-02 8.58736E-03 6.57766E-01 4.81639E+01-2.18797E+01-1.54995E+01



 n o d a l   p r i n t   o u t   f o r   t i m e  s t e p   15402                              ( at time 7.6997294E+00 )

 nodal point  x-rot      y-rot       z-rot       x-rot vel   y-rot vel   z-rot vel   x-rot acc   y-rot acc   z-rot acc
    22626  5.91490E-03 1.09587E-02-1.92828E-03 5.12102E-03 8.15087E-03-2.04437E-03 2.83411E-03 2.95957E-03-8.49040E-04



 n o d a l   p r i n t   o u t   f o r   t i m e  s t e p   15602                              ( at time 7.7997194E+00 )

 nodal point  x-disp     y-disp      z-disp      x-vel       y-vel       z-vel      x-accl      y-accl      z-accl      x-coor      y-coor      z-coor
    22626  2.17767E-01 1.65856E-01-2.30281E+01 1.83444E-01 1.59024E-01-1.86631E+00 6.41216E-02 1.93052E-02 6.80291E-01 4.81819E+01-2.18639E+01-1.56896E+01



 n o d a l   p r i n t   o u t   f o r   t i m e  s t e p   15602                              ( at time 7.7997194E+00 )

 nodal point  x-rot      y-rot       z-rot       x-rot vel   y-rot vel   z-rot vel   x-rot acc   y-rot acc   z-rot acc
    22626  6.43827E-03 1.17862E-02-2.13492E-03 5.38536E-03 8.40134E-03-2.10746E-03 2.64367E-03 2.50491E-03-6.30877E-04



 n o d a l   p r i n t   o u t   f o r   t i m e  s t e p   15802                              ( at time 7.8997094E+00 )

 nodal point  x-disp     y-disp      z-disp      x-vel       y-vel       z-vel      x-accl      y-accl      z-accl      x-coor      y-coor      z-coor
    22626  2.36373E-01 1.81831E-01-2.32113E+01 1.89019E-01 1.59828E-01-1.79958E+00 5.57604E-02 8.04208E-03 6.67436E-01 4.82006E+01-2.18480E+01-1.58728E+01



 n o d a l   p r i n t   o u t   f o r   t i m e  s t e p   15802                              ( at time 7.8997094E+00 )

 nodal point  x-rot      y-rot       z-rot       x-rot vel   y-rot vel   z-rot vel   x-rot acc   y-rot acc   z-rot acc
    22626  6.99364E-03 1.26396E-02-2.34940E-03 5.72631E-03 8.65025E-03-2.17241E-03 3.40979E-03 2.48938E-03-6.49626E-04



 n o d a l   p r i n t   o u t   f o r   t i m e  s t e p   16002                              ( at time 7.9996994E+00 )

 nodal point  x-disp     y-disp      z-disp      x-vel       y-vel       z-vel      x-accl      y-accl      z-accl      x-coor      y-coor      z-coor
    22626  2.55617E-01 1.97774E-01-2.33875E+01 1.94674E-01 1.58919E-01-1.72657E+00 5.65568E-02-9.09476E-03 7.30141E-01 4.82198E+01-2.18320E+01-1.60490E+01



 n o d a l   p r i n t   o u t   f o r   t i m e  s t e p   16002                              ( at time 7.9996994E+00 )

 nodal point  x-rot      y-rot       z-rot       x-rot vel   y-rot vel   z-rot vel   x-rot acc   y-rot acc   z-rot acc
    22626  7.58006E-03 1.35194E-02-2.57062E-03 6.00699E-03 8.93044E-03-2.25599E-03 2.80706E-03 2.80218E-03-8.35819E-04



 n o d a l   p r i n t   o u t   f o r   t i m e  s t e p   16202                              ( at time 8.0996894E+00 )

 nodal point  x-disp     y-disp      z-disp      x-vel       y-vel       z-vel      x-accl      y-accl      z-accl      x-coor      y-coor      z-coor
    22626  2.75336E-01 2.13426E-01-2.35568E+01 1.99460E-01 1.56218E-01-1.65694E+00 4.78626E-02-2.70035E-02 6.96358E-01 4.82395E+01-2.18164E+01-1.62183E+01



 n o d a l   p r i n t   o u t   f o r   t i m e  s t e p   16202                              ( at time 8.0996894E+00 )

 nodal point  x-rot      y-rot       z-rot       x-rot vel   y-rot vel   z-rot vel   x-rot acc   y-rot acc   z-rot acc
    22626  8.19755E-03 1.44241E-02-2.79829E-03 6.33318E-03 9.17420E-03-2.30252E-03 3.26224E-03 2.43781E-03-4.65378E-04



 n o d a l   p r i n t   o u t   f o r   t i m e  s t e p   16402                              ( at time 8.1996794E+00 )

 nodal point  x-disp     y-disp      z-disp      x-vel       y-vel       z-vel      x-accl      y-accl      z-accl      x-coor      y-coor      z-coor
    22626  2.95570E-01 2.29118E-01-2.37190E+01 2.05131E-01 1.55287E-01-1.58718E+00 5.67194E-02-9.32013E-03 6.97637E-01 4.82598E+01-2.18007E+01-1.63805E+01



 n o d a l   p r i n t   o u t   f o r   t i m e  s t e p   16402                              ( at time 8.1996794E+00 )

 nodal point  x-rot      y-rot       z-rot       x-rot vel   y-rot vel   z-rot vel   x-rot acc   y-rot acc   z-rot acc
    22626  8.84866E-03 1.53500E-02-3.03266E-03 6.68990E-03 9.35965E-03-2.36311E-03 3.56758E-03 1.85466E-03-6.05996E-04



 n o d a l   p r i n t   o u t   f o r   t i m e  s t e p   16602                              ( at time 8.2996694E+00 )

 nodal point  x-disp     y-disp      z-disp      x-vel       y-vel       z-vel      x-accl      y-accl      z-accl      x-coor      y-coor      z-coor
    22626  3.16414E-01 2.44455E-01-2.38738E+01 2.11257E-01 1.50334E-01-1.51229E+00 6.12604E-02-4.95351E-02 7.48982E-01 4.82806E+01-2.17853E+01-1.65353E+01



 n o d a l   p r i n t   o u t   f o r   t i m e  s t e p   16602                              ( at time 8.2996694E+00 )

 nodal point  x-rot      y-rot       z-rot       x-rot vel   y-rot vel   z-rot vel   x-rot acc   y-rot acc   z-rot acc
    22626  9.53385E-03 1.62969E-02-3.27221E-03 7.01644E-03 9.55377E-03-2.45066E-03 3.26571E-03 1.94144E-03-8.75546E-04



 n o d a l   p r i n t   o u t   f o r   t i m e  s t e p   16802                              ( at time 8.3996594E+00 )

 nodal point  x-disp     y-disp      z-disp      x-vel       y-vel       z-vel      x-accl      y-accl      z-accl      x-coor      y-coor      z-coor
    22626  3.37763E-01 2.59153E-01-2.40214E+01 2.15398E-01 1.44553E-01-1.44084E+00 4.14194E-02-5.78136E-02 7.14585E-01 4.83019E+01-2.17706E+01-1.66829E+01



 n o d a l   p r i n t   o u t   f o r   t i m e  s t e p   16802                              ( at time 8.3996594E+00 )

 nodal point  x-rot      y-rot       z-rot       x-rot vel   y-rot vel   z-rot vel   x-rot acc   y-rot acc   z-rot acc
    22626  1.02533E-02 1.72613E-02-3.51893E-03 7.37596E-03 9.72705E-03-2.51250E-03 3.59555E-03 1.73295E-03-6.18500E-04



 n o d a l   p r i n t   o u t   f o r   t i m e  s t e p   17002                              ( at time 8.4996494E+00 )

 nodal point  x-disp     y-disp      z-disp      x-vel       y-vel       z-vel      x-accl      y-accl      z-accl      x-coor      y-coor      z-coor
    22626  3.59582E-01 2.73308E-01-2.41617E+01 2.21633E-01 1.38862E-01-1.36562E+00 6.23534E-02-5.69134E-02 7.52321E-01 4.83238E+01-2.17565E+01-1.68232E+01



 n o d a l   p r i n t   o u t   f o r   t i m e  s t e p   17002                              ( at time 8.4996494E+00 )

 nodal point  x-rot      y-rot       z-rot       x-rot vel   y-rot vel   z-rot vel   x-rot acc   y-rot acc   z-rot acc
    22626  1.10081E-02 1.82410E-02-3.77144E-03 7.72772E-03 9.84384E-03-2.55729E-03 3.51796E-03 1.16800E-03-4.47935E-04



 n o d a l   p r i n t   o u t   f o r   t i m e  s t e p   17202                              ( at time 8.5996394E+00 )

 nodal point  x-disp     y-disp      z-disp      x-vel       y-vel       z-vel      x-accl      y-accl      z-accl      x-coor      y-coor      z-coor
    22626  3.82054E-01 2.86744E-01-2.42944E+01 2.27739E-01 1.30860E-01-1.28849E+00 6.10658E-02-8.00242E-02 7.71305E-01 4.83462E+01-2.17430E+01-1.69559E+01



 n o d a l   p r i n t   o u t   f o r   t i m e  s t e p   17202                              ( at time 8.5996394E+00 )

 nodal point  x-rot      y-rot       z-rot       x-rot vel   y-rot vel   z-rot vel   x-rot acc   y-rot acc   z-rot acc
    22626  1.18022E-02 1.92341E-02-4.02917E-03 8.14871E-03 1.00053E-02-2.59545E-03 4.21040E-03 1.61451E-03-3.81648E-04



 n o d a l   p r i n t   o u t   f o r   t i m e  s t e p   17402                              ( at time 8.6996293E+00 )

 nodal point  x-disp     y-disp      z-disp      x-vel       y-vel       z-vel      x-accl      y-accl      z-accl      x-coor      y-coor      z-coor
    22626  4.05101E-01 2.99512E-01-2.44196E+01 2.34138E-01 1.25881E-01-1.21509E+00 6.39910E-02-4.97980E-02 7.34153E-01 4.83693E+01-2.17303E+01-1.70811E+01



 n o d a l   p r i n t   o u t   f o r   t i m e  s t e p   17402                              ( at time 8.6996293E+00 )

 nodal point  x-rot      y-rot       z-rot       x-rot vel   y-rot vel   z-rot vel   x-rot acc   y-rot acc   z-rot acc
    22626  1.26353E-02 2.02373E-02-4.29274E-03 8.52303E-03 1.00853E-02-2.66631E-03 3.74355E-03 8.00145E-04-7.08613E-04



 n o d a l   p r i n t   o u t   f o r   t i m e  s t e p   17602                              ( at time 8.7996193E+00 )

 nodal point  x-disp     y-disp      z-disp      x-vel       y-vel       z-vel      x-accl      y-accl      z-accl      x-coor      y-coor      z-coor
    22626  4.28822E-01 3.11731E-01-2.45376E+01 2.41258E-01 1.18857E-01-1.14366E+00 7.12097E-02-7.02480E-02 7.14292E-01 4.83930E+01-2.17181E+01-1.71991E+01



 n o d a l   p r i n t   o u t   f o r   t i m e  s t e p   17602                              ( at time 8.7996193E+00 )

 nodal point  x-rot      y-rot       z-rot       x-rot vel   y-rot vel   z-rot vel   x-rot acc   y-rot acc   z-rot acc
    22626  1.35091E-02 2.12516E-02-4.56171E-03 8.95158E-03 1.01985E-02-2.72950E-03 4.28591E-03 1.13234E-03-6.32018E-04



 n o d a l   p r i n t   o u t   f o r   t i m e  s t e p   17802                              ( at time 8.8996093E+00 )

 nodal point  x-disp     y-disp      z-disp      x-vel       y-vel       z-vel      x-accl      y-accl      z-accl      x-coor      y-coor      z-coor
    22626  4.53378E-01 3.23372E-01-2.46482E+01 2.49542E-01 1.14151E-01-1.06997E+00 8.28523E-02-4.70610E-02 7.37042E-01 4.84176E+01-2.17064E+01-1.73097E+01



 n o d a l   p r i n t   o u t   f o r   t i m e  s t e p   17802                              ( at time 8.8996093E+00 )

 nodal point  x-rot      y-rot       z-rot       x-rot vel   y-rot vel   z-rot vel   x-rot acc   y-rot acc   z-rot acc
    22626  1.44233E-02 2.22761E-02-4.83565E-03 9.35448E-03 1.02582E-02-2.76213E-03 4.02935E-03 5.97532E-04-3.26352E-04



 n o d a l   p r i n t   o u t   f o r   t i m e  s t e p   18002                              ( at time 8.9995993E+00 )

 nodal point  x-disp     y-disp      z-disp      x-vel       y-vel       z-vel      x-accl      y-accl      z-accl      x-coor      y-coor      z-coor
    22626  4.78671E-01 3.34463E-01-2.47516E+01 2.56090E-01 1.07795E-01-9.99722E-01 6.54865E-02-6.35671E-02 7.02520E-01 4.84429E+01-2.16953E+01-1.74131E+01



 n o d a l   p r i n t   o u t   f o r   t i m e  s t e p   18002                              ( at time 8.9995993E+00 )

 nodal point  x-rot      y-rot       z-rot       x-rot vel   y-rot vel   z-rot vel   x-rot acc   y-rot acc   z-rot acc
    22626  1.53794E-02 2.33063E-02-5.11297E-03 9.76220E-03 1.03440E-02-2.80084E-03 4.07765E-03 8.57444E-04-3.87062E-04



 n o d a l   p r i n t   o u t   f o r   t i m e  s t e p   18202                              ( at time 9.0995893E+00 )

 nodal point  x-disp     y-disp      z-disp      x-vel       y-vel       z-vel      x-accl      y-accl      z-accl      x-coor      y-coor      z-coor
    22626  5.04627E-01 3.45184E-01-2.48480E+01 2.64117E-01 1.05700E-01-9.31111E-01 8.02717E-02-2.09502E-02 6.86184E-01 4.84688E+01-2.16846E+01-1.75095E+01



 n o d a l   p r i n t   o u t   f o r   t i m e  s t e p   18202                              ( at time 9.0995893E+00 )

 nodal point  x-rot      y-rot       z-rot       x-rot vel   y-rot vel   z-rot vel   x-rot acc   y-rot acc   z-rot acc
    22626  1.63764E-02 2.43480E-02-5.39613E-03 1.01771E-02 1.04488E-02-2.85849E-03 4.14924E-03 1.04857E-03-5.76594E-04



 n o d a l   p r i n t   o u t   f o r   t i m e  s t e p   18402                              ( at time 9.1995793E+00 )

 nodal point  x-disp     y-disp      z-disp      x-vel       y-vel       z-vel      x-accl      y-accl      z-accl      x-coor      y-coor      z-coor
    22626  5.31423E-01 3.55553E-01-2.49377E+01 2.72389E-01 1.03330E-01-8.61717E-01 8.27330E-02-2.37107E-02 6.94006E-01 4.84956E+01-2.16742E+01-1.75992E+01



 n o d a l   p r i n t   o u t   f o r   t i m e  s t e p   18402                              ( at time 9.1995793E+00 )

 nodal point  x-rot      y-rot       z-rot       x-rot vel   y-rot vel   z-rot vel   x-rot acc   y-rot acc   z-rot acc
    22626  1.74139E-02 2.53959E-02-5.68253E-03 1.05653E-02 1.05068E-02-2.88711E-03 3.88281E-03 5.80086E-04-2.86283E-04



 n o d a l   p r i n t   o u t   f o r   t i m e  s t e p   18602                              ( at time 9.2995693E+00 )

 nodal point  x-disp     y-disp      z-disp      x-vel       y-vel       z-vel      x-accl      y-accl      z-accl      x-coor      y-coor      z-coor
    22626  5.59035E-01 3.65679E-01-2.50205E+01 2.80027E-01 9.93632E-02-7.94200E-01 7.63836E-02-3.96686E-02 6.75239E-01 4.85232E+01-2.16641E+01-1.76820E+01



 n o d a l   p r i n t   o u t   f o r   t i m e  s t e p   18602                              ( at time 9.2995693E+00 )

 nodal point  x-rot      y-rot       z-rot       x-rot vel   y-rot vel   z-rot vel   x-rot acc   y-rot acc   z-rot acc
    22626  1.84920E-02 2.64502E-02-5.97171E-03 1.09904E-02 1.05824E-02-2.91114E-03 4.25145E-03 7.55668E-04-2.40278E-04



 n o d a l   p r i n t   o u t   f o r   t i m e  s t e p   18802                              ( at time 9.3995593E+00 )

 nodal point  x-disp     y-disp      z-disp      x-vel       y-vel       z-vel      x-accl      y-accl      z-accl      x-coor      y-coor      z-coor
    22626  5.87471E-01 3.75582E-01-2.50964E+01 2.87419E-01 9.87921E-02-7.26873E-01 7.39345E-02-5.71115E-03 6.73334E-01 4.85517E+01-2.16542E+01-1.77579E+01



 n o d a l   p r i n t   o u t   f o r   t i m e  s t e p   18802                              ( at time 9.3995593E+00 )

 nodal point  x-rot      y-rot       z-rot       x-rot vel   y-rot vel   z-rot vel   x-rot acc   y-rot acc   z-rot acc
    22626  1.96116E-02 2.75113E-02-6.26533E-03 1.13924E-02 1.06342E-02-2.95573E-03 4.02057E-03 5.17802E-04-4.45902E-04



 n o d a l   p r i n t   o u t   f o r   t i m e  s t e p   19002                              ( at time 9.4995493E+00 )

 nodal point  x-disp     y-disp      z-disp      x-vel       y-vel       z-vel      x-accl      y-accl      z-accl      x-coor      y-coor      z-coor
    22626  6.16656E-01 3.85452E-01-2.51658E+01 2.95408E-01 9.79887E-02-6.60730E-01 7.98923E-02-8.03507E-03 6.61501E-01 4.85808E+01-2.16443E+01-1.78273E+01



 n o d a l   p r i n t   o u t   f o r   t i m e  s t e p   19002                              ( at time 9.4995493E+00 )

 nodal point  x-rot      y-rot       z-rot       x-rot vel   y-rot vel   z-rot vel   x-rot acc   y-rot acc   z-rot acc
    22626  2.07698E-02 2.85783E-02-6.56234E-03 1.17806E-02 1.07558E-02-2.96681E-03 3.88179E-03 1.21602E-03-1.10860E-04



 n o d a l   p r i n t   o u t   f o r   t i m e  s t e p   19202                              ( at time 9.5995393E+00 )

 nodal point  x-disp     y-disp      z-disp      x-vel       y-vel       z-vel      x-accl      y-accl      z-accl      x-coor      y-coor      z-coor
    22626  6.46593E-01 3.95167E-01-2.52285E+01 3.03059E-01 9.64971E-02-5.95706E-01 7.65242E-02-1.49174E-02 6.50300E-01 4.86108E+01-2.16346E+01-1.78900E+01



 n o d a l   p r i n t   o u t   f o r   t i m e  s t e p   19202                              ( at time 9.5995393E+00 )

 nodal point  x-rot      y-rot       z-rot       x-rot vel   y-rot vel   z-rot vel   x-rot acc   y-rot acc   z-rot acc
    22626  2.19677E-02 2.96511E-02-6.86222E-03 1.21795E-02 1.07315E-02-2.99060E-03 3.98950E-03-2.42399E-04-2.37928E-04



 n o d a l   p r i n t   o u t   f o r   t i m e  s t e p   19402                              ( at time 9.6995293E+00 )

 nodal point  x-disp     y-disp      z-disp      x-vel       y-vel       z-vel      x-accl      y-accl      z-accl      x-coor      y-coor      z-coor
    22626  6.77303E-01 4.04875E-01-2.52847E+01 3.09059E-01 9.80769E-02-5.29042E-01 6.00065E-02 1.58000E-02 6.66710E-01 4.86415E+01-2.16249E+01-1.79462E+01



 n o d a l   p r i n t   o u t   f o r   t i m e  s t e p   19402                              ( at time 9.6995293E+00 )

 nodal point  x-rot      y-rot       z-rot       x-rot vel   y-rot vel   z-rot vel   x-rot acc   y-rot acc   z-rot acc
    22626  2.32055E-02 3.07261E-02-7.16693E-03 1.26124E-02 1.07732E-02-3.06106E-03 4.32993E-03 4.16772E-04-7.04701E-04



 n o d a l   p r i n t   o u t   f o r   t i m e  s t e p   19602                              ( at time 9.7995193E+00 )

 nodal point  x-disp     y-disp      z-disp      x-vel       y-vel       z-vel      x-accl      y-accl      z-accl      x-coor      y-coor      z-coor
    22626  7.08741E-01 4.14640E-01-2.53345E+01 3.17518E-01 9.65433E-02-4.65472E-01 8.45956E-02-1.53379E-02 6.35766E-01 4.86729E+01-2.16152E+01-1.79960E+01



 n o d a l   p r i n t   o u t   f o r   t i m e  s t e p   19602                              ( at time 9.7995193E+00 )

 nodal point  x-rot      y-rot       z-rot       x-rot vel   y-rot vel   z-rot vel   x-rot acc   y-rot acc   z-rot acc
    22626  2.44842E-02 3.18065E-02-7.47585E-03 1.29896E-02 1.08228E-02-3.07621E-03 3.77197E-03 4.95858E-04-1.51523E-04



 n o d a l   p r i n t   o u t   f o r   t i m e  s t e p   19802                              ( at time 9.8995093E+00 )

 nodal point  x-disp     y-disp      z-disp      x-vel       y-vel       z-vel      x-accl      y-accl      z-accl      x-coor      y-coor      z-coor
    22626  7.40943E-01 4.24300E-01-2.53778E+01 3.25702E-01 9.66353E-02-4.02210E-01 8.18472E-02 9.20240E-04 6.32675E-01 4.87051E+01-2.16055E+01-1.80393E+01



 n o d a l   p r i n t   o u t   f o r   t i m e  s t e p   19802                              ( at time 9.8995093E+00 )

 nodal point  x-rot      y-rot       z-rot       x-rot vel   y-rot vel   z-rot vel   x-rot acc   y-rot acc   z-rot acc
    22626  2.58026E-02 3.28864E-02-7.78733E-03 1.33579E-02 1.08199E-02-3.11555E-03 3.68311E-03-2.82871E-05-3.93430E-04



 n o d a l   p r i n t   o u t   f o r   t i m e  s t e p   20003                              ( at time 9.9999992E+00 )

 nodal point  x-disp     y-disp      z-disp      x-vel       y-vel       z-vel      x-accl      y-accl      z-accl      x-coor      y-coor      z-coor
[...]
    22626  2.55330E-01 1.56733E-01-6.88385E-02 1.82098E-02 8.70365E-03-6.04111E-03-7.86164E-04-5.05494E-04 5.87453E-04



 n o d a l   p r i n t   o u t   f o r   t i m e  s t e p   45205                              ( at time 2.2599738E+01 )

 nodal point  x-disp     y-disp      z-disp      x-vel       y-vel       z-vel      x-accl      y-accl      z-accl      x-coor      y-coor      z-coor
    22626  4.48773E+00 1.08928E+00-1.98846E+01 2.36039E-01-1.96944E-02 5.12008E-01 2.54169E-02-6.50975E-02-8.23490E-02 5.24519E+01-2.09405E+01-1.25461E+01



 n o d a l   p r i n t   o u t   f o r   t i m e  s t e p   45205                              ( at time 2.2599738E+01 )

 nodal point  x-rot      y-rot       z-rot       x-rot vel   y-rot vel   z-rot vel   x-rot acc   y-rot acc   z-rot acc
    22626  2.57146E-01 1.57601E-01-6.94400E-02 1.81180E-02 8.64731E-03-5.98526E-03-9.18294E-04-5.63409E-04 5.58551E-04



 n o d a l   p r i n t   o u t   f o r   t i m e  s t e p   45405                              ( at time 2.2699728E+01 )

 nodal point  x-disp     y-disp      z-disp      x-vel       y-vel       z-vel      x-accl      y-accl      z-accl      x-coor      y-coor      z-coor
    22626  4.51146E+00 1.08696E+00-1.98338E+01 2.38893E-01-2.70479E-02 5.04597E-01 2.85404E-02-7.35424E-02-7.41188E-02 5.24756E+01-2.09428E+01-1.24953E+01



 n o d a l   p r i n t   o u t   f o r   t i m e  s t e p   45405                              ( at time 2.2699728E+01 )

 nodal point  x-rot      y-rot       z-rot       x-rot vel   y-rot vel   z-rot vel   x-rot acc   y-rot acc   z-rot acc
    22626  2.58953E-01 1.58463E-01-7.00361E-02 1.80138E-02 8.58425E-03-5.92778E-03-1.04258E-03-6.30761E-04 5.74890E-04



 n o d a l   p r i n t   o u t   f o r   t i m e  s t e p   45605                              ( at time 2.2799718E+01 )

 nodal point  x-disp     y-disp      z-disp      x-vel       y-vel       z-vel      x-accl      y-accl      z-accl      x-coor      y-coor      z-coor
    22626  4.53553E+00 1.08386E+00-1.97838E+01 2.42394E-01-3.47092E-02 4.95210E-01 3.50111E-02-7.66200E-02-9.38758E-02 5.24997E+01-2.09459E+01-1.24453E+01



 n o d a l   p r i n t   o u t   f o r   t i m e  s t e p   45605                              ( at time 2.2799718E+01 )

 nodal point  x-rot      y-rot       z-rot       x-rot vel   y-rot vel   z-rot vel   x-rot acc   y-rot acc   z-rot acc
    22626  2.60748E-01 1.59317E-01-7.06258E-02 1.78924E-02 8.50962E-03-5.86449E-03-1.21331E-03-7.46281E-04 6.32952E-04



 n o d a l   p r i n t   o u t   f o r   t i m e  s t e p   45805                              ( at time 2.2899708E+01 )

 nodal point  x-disp     y-disp      z-disp      x-vel       y-vel       z-vel      x-accl      y-accl      z-accl      x-coor      y-coor      z-coor
    22626  4.55993E+00 1.08001E+00-1.97348E+01 2.45500E-01-4.20459E-02 4.84930E-01 3.10670E-02-7.33755E-02-1.02815E-01 5.25241E+01-2.09498E+01-1.23963E+01



 n o d a l   p r i n t   o u t   f o r   t i m e  s t e p   45805                              ( at time 2.2899708E+01 )

 nodal point  x-rot      y-rot       z-rot       x-rot vel   y-rot vel   z-rot vel   x-rot acc   y-rot acc   z-rot acc
    22626  2.62531E-01 1.60164E-01-7.12088E-02 1.77675E-02 8.43775E-03-5.79727E-03-1.24988E-03-7.18781E-04 6.72270E-04



 n o d a l   p r i n t   o u t   f o r   t i m e  s t e p   46005                              ( at time 2.2999698E+01 )

 nodal point  x-disp     y-disp      z-disp      x-vel       y-vel       z-vel      x-accl      y-accl      z-accl      x-coor      y-coor      z-coor
    22626  4.58461E+00 1.07544E+00-1.96868E+01 2.48409E-01-4.96271E-02 4.74553E-01 2.90921E-02-7.58191E-02-1.03779E-01 5.25488E+01-2.09543E+01-1.23483E+01



 n o d a l   p r i n t   o u t   f o r   t i m e  s t e p   46005                              ( at time 2.2999698E+01 )

 nodal point  x-rot      y-rot       z-rot       x-rot vel   y-rot vel   z-rot vel   x-rot acc   y-rot acc   z-rot acc
    22626  2.64301E-01 1.61004E-01-7.17852E-02 1.76382E-02 8.34819E-03-5.72971E-03-1.29278E-03-8.95744E-04 6.75671E-04



 n o d a l   p r i n t   o u t   f o r   t i m e  s t e p   46205                              ( at time 2.3099688E+01 )

 nodal point  x-disp     y-disp      z-disp      x-vel       y-vel       z-vel      x-accl      y-accl      z-accl      x-coor      y-coor      z-coor
    22626  4.60962E+00 1.07010E+00-1.96399E+01 2.51939E-01-5.68063E-02 4.64595E-01 3.53012E-02-7.17992E-02-9.95949E-02 5.25738E+01-2.09597E+01-1.23014E+01



 n o d a l   p r i n t   o u t   f o r   t i m e  s t e p   46205                              ( at time 2.3099688E+01 )

 nodal point  x-rot      y-rot       z-rot       x-rot vel   y-rot vel   z-rot vel   x-rot acc   y-rot acc   z-rot acc
    22626  2.66058E-01 1.61834E-01-7.23543E-02 1.74934E-02 8.26478E-03-5.65499E-03-1.44863E-03-8.34120E-04 7.47250E-04



 n o d a l   p r i n t   o u t   f o r   t i m e  s t e p   46405                              ( at time 2.3199678E+01 )

 nodal point  x-disp     y-disp      z-disp      x-vel       y-vel       z-vel      x-accl      y-accl      z-accl      x-coor      y-coor      z-coor
    22626  4.63493E+00 1.06414E+00-1.95939E+01 2.54587E-01-6.24408E-02 4.54604E-01 2.64845E-02-5.63507E-02-9.99152E-02 5.25991E+01-2.09657E+01-1.22554E+01



 n o d a l   p r i n t   o u t   f o r   t i m e  s t e p   46405                              ( at time 2.3199678E+01 )

 nodal point  x-rot      y-rot       z-rot       x-rot vel   y-rot vel   z-rot vel   x-rot acc   y-rot acc   z-rot acc
    22626  2.67800E-01 1.62656E-01-7.29159E-02 1.73583E-02 8.17676E-03-5.57927E-03-1.35036E-03-8.80283E-04 7.57258E-04



 n o d a l   p r i n t   o u t   f o r   t i m e  s t e p   46605                              ( at time 2.3299668E+01 )

 nodal point  x-disp     y-disp      z-disp      x-vel       y-vel       z-vel      x-accl      y-accl      z-accl      x-coor      y-coor      z-coor
    22626  4.66053E+00 1.05762E+00-1.95490E+01 2.57509E-01-6.81285E-02 4.45138E-01 2.92187E-02-5.68831E-02-9.46728E-02 5.26247E+01-2.09722E+01-1.22105E+01



 n o d a l   p r i n t   o u t   f o r   t i m e  s t e p   46605                              ( at time 2.3299668E+01 )

 nodal point  x-rot      y-rot       z-rot       x-rot vel   y-rot vel   z-rot vel   x-rot acc   y-rot acc   z-rot acc
    22626  2.69529E-01 1.63470E-01-7.34703E-02 1.72298E-02 8.09964E-03-5.49796E-03-1.28516E-03-7.71360E-04 8.13195E-04



 n o d a l   p r i n t   o u t   f o r   t i m e  s t e p   46805                              ( at time 2.3399658E+01 )

 nodal point  x-disp     y-disp      z-disp      x-vel       y-vel       z-vel      x-accl      y-accl      z-accl      x-coor      y-coor      z-coor
    22626  4.68643E+00 1.05056E+00-1.95049E+01 2.60281E-01-7.27041E-02 4.36453E-01 2.77312E-02-4.57606E-02-8.68543E-02 5.26506E+01-2.09792E+01-1.21664E+01



 n o d a l   p r i n t   o u t   f o r   t i m e  s t e p   46805                              ( at time 2.3399658E+01 )

 nodal point  x-rot      y-rot       z-rot       x-rot vel   y-rot vel   z-rot vel   x-rot acc   y-rot acc   z-rot acc
    22626  2.71244E-01 1.64275E-01-7.40166E-02 1.70855E-02 8.01489E-03-5.42427E-03-1.44325E-03-8.47563E-04 7.36995E-04



 n o d a l   p r i n t   o u t   f o r   t i m e  s t e p   47005                              ( at time 2.3499648E+01 )

 nodal point  x-disp     y-disp      z-disp      x-vel       y-vel       z-vel      x-accl      y-accl      z-accl      x-coor      y-coor      z-coor
    22626  4.71262E+00 1.04313E+00-1.94617E+01 2.63181E-01-7.61346E-02 4.28000E-01 2.90006E-02-3.43077E-02-8.45429E-02 5.26768E+01-2.09867E+01-1.21232E+01



 n o d a l   p r i n t   o u t   f o r   t i m e  s t e p   47005                              ( at time 2.3499648E+01 )

 nodal point  x-rot      y-rot       z-rot       x-rot vel   y-rot vel   z-rot vel   x-rot acc   y-rot acc   z-rot acc
    22626  2.72947E-01 1.65072E-01-7.45552E-02 1.69571E-02 7.93536E-03-5.34450E-03-1.28409E-03-7.95366E-04 7.97774E-04



 n o d a l   p r i n t   o u t   f o r   t i m e  s t e p   47205                              ( at time 2.3599638E+01 )

 nodal point  x-disp     y-disp      z-disp      x-vel       y-vel       z-vel      x-accl      y-accl      z-accl      x-coor      y-coor      z-coor
    22626  4.73907E+00 1.03539E+00-1.94192E+01 2.65899E-01-7.84002E-02 4.21172E-01 2.71800E-02-2.26591E-02-6.82877E-02 5.27032E+01-2.09944E+01-1.20807E+01



 n o d a l   p r i n t   o u t   f o r   t i m e  s t e p   47205                              ( at time 2.3599638E+01 )

 nodal point  x-rot      y-rot       z-rot       x-rot vel   y-rot vel   z-rot vel   x-rot acc   y-rot acc   z-rot acc
    22626  2.74635E-01 1.65862E-01-7.50856E-02 1.68097E-02 7.86195E-03-5.25949E-03-1.47458E-03-7.34215E-04 8.50168E-04



 n o d a l   p r i n t   o u t   f o r   t i m e  s t e p   47405                              ( at time 2.3699628E+01 )

 nodal point  x-disp     y-disp      z-disp      x-vel       y-vel       z-vel      x-accl      y-accl      z-accl      x-coor      y-coor      z-coor
    22626  4.76576E+00 1.02744E+00-1.93775E+01 2.68027E-01-8.01205E-02 4.14310E-01 2.12808E-02-1.72045E-02-6.86187E-02 5.27299E+01-2.10023E+01-1.20390E+01



 n o d a l   p r i n t   o u t   f o r   t i m e  s t e p   47405                              ( at time 2.3699628E+01 )

 nodal point  x-rot      y-rot       z-rot       x-rot vel   y-rot vel   z-rot vel   x-rot acc   y-rot acc   z-rot acc
    22626  2.76309E-01 1.66644E-01-7.56076E-02 1.66877E-02 7.77553E-03-5.17297E-03-1.21994E-03-8.64272E-04 8.65315E-04



 n o d a l   p r i n t   o u t   f o r   t i m e  s t e p   47605                              ( at time 2.3799618E+01 )

 nodal point  x-disp     y-disp      z-disp      x-vel       y-vel       z-vel      x-accl      y-accl      z-accl      x-coor      y-coor      z-coor
    22626  4.79267E+00 1.01941E+00-1.93363E+01 2.70185E-01-8.05667E-02 4.08804E-01 2.15888E-02-4.46205E-03-5.50751E-02 5.27568E+01-2.10104E+01-1.19978E+01



 n o d a l   p r i n t   o u t   f o r   t i m e  s t e p   47605                              ( at time 2.3799618E+01 )

 nodal point  x-rot      y-rot       z-rot       x-rot vel   y-rot vel   z-rot vel   x-rot acc   y-rot acc   z-rot acc
    22626  2.77969E-01 1.67417E-01-7.61214E-02 1.65180E-02 7.70509E-03-5.09252E-03-1.69674E-03-7.04414E-04 8.04570E-04



 n o d a l   p r i n t   o u t   f o r   t i m e  s t e p   47805                              ( at time 2.3899608E+01 )

 nodal point  x-disp     y-disp      z-disp      x-vel       y-vel       z-vel      x-accl      y-accl      z-accl      x-coor      y-coor      z-coor
    22626  4.81975E+00 1.01137E+00-1.92957E+01 2.71658E-01-8.02327E-02 4.04339E-01 1.47285E-02 3.34025E-03-4.46459E-02 5.27839E+01-2.10184E+01-1.19572E+01



 n o d a l   p r i n t   o u t   f o r   t i m e  s t e p   47805                              ( at time 2.3899608E+01 )

 nodal point  x-rot      y-rot       z-rot       x-rot vel   y-rot vel   z-rot vel   x-rot acc   y-rot acc   z-rot acc
    22626  2.79614E-01 1.68183E-01-7.66265E-02 1.63751E-02 7.62754E-03-5.01110E-03-1.42930E-03-7.75611E-04 8.14223E-04



 n o d a l   p r i n t   o u t   f o r   t i m e  s t e p   48005                              ( at time 2.3999598E+01 )

 nodal point  x-disp     y-disp      z-disp      x-vel       y-vel       z-vel      x-accl      y-accl      z-accl      x-coor      y-coor      z-coor
    22626  4.84697E+00 1.00339E+00-1.92555E+01 2.72825E-01-7.84828E-02 3.99886E-01 1.16743E-02 1.75005E-02-4.45427E-02 5.28112E+01-2.10264E+01-1.19170E+01



 n o d a l   p r i n t   o u t   f o r   t i m e  s t e p   48005                              ( at time 2.3999598E+01 )

 nodal point  x-rot      y-rot       z-rot       x-rot vel   y-rot vel   z-rot vel   x-rot acc   y-rot acc   z-rot acc
    22626  2.81246E-01 1.68942E-01-7.71235E-02 1.62524E-02 7.53661E-03-4.93648E-03-1.22732E-03-9.09351E-04 7.46323E-04



 n o d a l   p r i n t   o u t   f o r   t i m e  s t e p   48205                              ( at time 2.4099588E+01 )

 nodal point  x-disp     y-disp      z-disp      x-vel       y-vel       z-vel      x-accl      y-accl      z-accl      x-coor      y-coor      z-coor
    22626  4.87437E+00 9.95564E-01-1.92156E+01 2.74776E-01-7.75628E-02 3.96779E-01 1.95044E-02 9.20112E-03-3.10694E-02 5.28385E+01-2.10342E+01-1.18771E+01



 n o d a l   p r i n t   o u t   f o r   t i m e  s t e p   48205                              ( at time 2.4099588E+01 )

 nodal point  x-rot      y-rot       z-rot       x-rot vel   y-rot vel   z-rot vel   x-rot acc   y-rot acc   z-rot acc
    22626  2.82864E-01 1.69693E-01-7.76120E-02 1.61277E-02 7.49106E-03-4.84102E-03-1.24747E-03-4.55533E-04 9.54698E-04



 n o d a l   p r i n t   o u t   f o r   t i m e  s t e p   48405                              ( at time 2.4199578E+01 )

 nodal point  x-disp     y-disp      z-disp      x-vel       y-vel       z-vel      x-accl      y-accl      z-accl      x-coor      y-coor      z-coor
    22626  4.90192E+00 9.87998E-01-1.91762E+01 2.76114E-01-7.46336E-02 3.93390E-01 1.33857E-02 2.92955E-02-3.38938E-02 5.28661E+01-2.10418E+01-1.18377E+01



 n o d a l   p r i n t   o u t   f o r   t i m e  s t e p   48405                              ( at time 2.4199578E+01 )

 nodal point  x-rot      y-rot       z-rot       x-rot vel   y-rot vel   z-rot vel   x-rot acc   y-rot acc   z-rot acc
    22626  2.84470E-01 1.70439E-01-7.80926E-02 1.60121E-02 7.42137E-03-4.75231E-03-1.15590E-03-6.97056E-04 8.87229E-04



 n o d a l   p r i n t   o u t   f o r   t i m e  s t e p   48605                              ( at time 2.4299568E+01 )

 nodal point  x-disp     y-disp      z-disp      x-vel       y-vel       z-vel      x-accl      y-accl      z-accl      x-coor      y-coor      z-coor
    22626  4.92963E+00 9.80687E-01-1.91370E+01 2.78209E-01-7.20754E-02 3.90255E-01 2.09544E-02 2.55842E-02-3.13519E-02 5.28938E+01-2.10491E+01-1.17985E+01



 n o d a l   p r i n t   o u t   f o r   t i m e  s t e p   48605                              ( at time 2.4299568E+01 )

 nodal point  x-rot      y-rot       z-rot       x-rot vel   y-rot vel   z-rot vel   x-rot acc   y-rot acc   z-rot acc
    22626  2.86067E-01 1.71178E-01-7.85639E-02 1.59314E-02 7.37303E-03-4.68996E-03-8.06897E-04-4.83396E-04 6.23498E-04



 n o d a l   p r i n t   o u t   f o r   t i m e  s t e p   48805                              ( at time 2.4399558E+01 )

 nodal point  x-disp     y-disp      z-disp      x-vel       y-vel       z-vel      x-accl      y-accl      z-accl      x-coor      y-coor      z-coor
    22626  4.95747E+00 9.73603E-01-1.90982E+01 2.78721E-01-6.93246E-02 3.85529E-01 5.11335E-03 2.75105E-02-4.72654E-02 5.29216E+01-2.10562E+01-1.17597E+01



 n o d a l   p r i n t   o u t   f o r   t i m e  s t e p   48805                              ( at time 2.4399558E+01 )

 nodal point  x-rot      y-rot       z-rot       x-rot vel   y-rot vel   z-rot vel   x-rot acc   y-rot acc   z-rot acc
    22626  2.87656E-01 1.71913E-01-7.90291E-02 1.58467E-02 7.31864E-03-4.62263E-03-8.47507E-04-5.43975E-04 6.73352E-04



 n o d a l   p r i n t   o u t   f o r   t i m e  s t e p   49006                              ( at time 2.4500048E+01 )

 nodal point  x-disp     y-disp      z-disp      x-vel       y-vel       z-vel      x-accl      y-accl      z-accl      x-coor      y-coor      z-coor
    22626  4.98555E+00 9.66798E-01-1.90596E+01 2.79977E-01-6.57404E-02 3.82888E-01 1.25015E-02 3.56675E-02-2.62812E-02 5.29497E+01-2.10630E+01-1.17211E+01



 n o d a l   p r i n t   o u t   f o r   t i m e  s t e p   49006                              ( at time 2.4500048E+01 )

 nodal point  x-rot      y-rot       z-rot       x-rot vel   y-rot vel   z-rot vel   x-rot acc   y-rot acc   z-rot acc
    22626  2.89247E-01 1.72647E-01-7.94899E-02 1.58198E-02 7.29392E-03-4.56770E-03-2.67120E-04-2.46022E-04 5.46618E-04



 n o d a l   p r i n t   o u t   f o r   t i m e  s t e p   49206                              ( at time 2.4600038E+01 )

 nodal point  x-disp     y-disp      z-disp      x-vel       y-vel       z-vel      x-accl      y-accl      z-accl      x-coor      y-coor      z-coor
    22626  5.01351E+00 9.60274E-01-1.90216E+01 2.79779E-01-6.36488E-02 3.77031E-01-1.97876E-03 2.09182E-02-5.85788E-02 5.29777E+01-2.10695E+01-1.16831E+01



 n o d a l   p r i n t   o u t   f o r   t i m e  s t e p   49206                              ( at time 2.4600038E+01 )

 nodal point  x-rot      y-rot       z-rot       x-rot vel   y-rot vel   z-rot vel   x-rot acc   y-rot acc   z-rot acc
    22626  2.90828E-01 1.73373E-01-7.99440E-02 1.57934E-02 7.22849E-03-4.51138E-03-2.64445E-04-6.54328E-04 5.63292E-04



 n o d a l   p r i n t   o u t   f o r   t i m e  s t e p   49406                              ( at time 2.4700028E+01 )

 nodal point  x-disp     y-disp      z-disp      x-vel       y-vel       z-vel      x-accl      y-accl      z-accl      x-coor      y-coor      z-coor
    22626  5.04153E+00 9.54100E-01-1.89840E+01 2.80206E-01-6.06017E-02 3.74478E-01 4.27085E-03 3.04740E-02-2.55255E-02 5.30057E+01-2.10757E+01-1.16455E+01



 n o d a l   p r i n t   o u t   f o r   t i m e  s t e p   49406                              ( at time 2.4700028E+01 )

 nodal point  x-rot      y-rot       z-rot       x-rot vel   y-rot vel   z-rot vel   x-rot acc   y-rot acc   z-rot acc
    22626  2.92405E-01 1.74096E-01-8.03927E-02 1.57710E-02 7.22613E-03-4.46578E-03-2.23654E-04-2.35930E-05 4.56017E-04



 n o d a l   p r i n t   o u t   f o r   t i m e  s t e p   49606                              ( at time 2.4800018E+01 )

 nodal point  x-disp     y-disp      z-disp      x-vel       y-vel       z-vel      x-accl      y-accl      z-accl      x-coor      y-coor      z-coor
    22626  5.06955E+00 9.48193E-01-1.89467E+01 2.80685E-01-5.70453E-02 3.71763E-01 4.79146E-03 3.55673E-02-2.71554E-02 5.30337E+01-2.10816E+01-1.16082E+01



 n o d a l   p r i n t   o u t   f o r   t i m e  s t e p   49606                              ( at time 2.4800018E+01 )

 nodal point  x-rot      y-rot       z-rot       x-rot vel   y-rot vel   z-rot vel   x-rot acc   y-rot acc   z-rot acc
    22626  2.93981E-01 1.74816E-01-8.08373E-02 1.57401E-02 7.17197E-03-4.42666E-03-3.09116E-04-5.41646E-04 3.91229E-04



 n o d a l   p r i n t   o u t   f o r   t i m e  s t e p   49806                              ( at time 2.4900008E+01 )

 nodal point  x-disp     y-disp      z-disp      x-vel       y-vel       z-vel      x-accl      y-accl      z-accl      x-coor      y-coor      z-coor
    22626  5.09761E+00 9.42620E-01-1.89097E+01 2.80436E-01-5.47655E-02 3.67915E-01-2.49086E-03 2.28005E-02-3.84832E-02 5.30618E+01-2.10872E+01-1.15712E+01



 n o d a l   p r i n t   o u t   f o r   t i m e  s t e p   49806                              ( at time 2.4900008E+01 )

 nodal point  x-rot      y-rot       z-rot       x-rot vel   y-rot vel   z-rot vel   x-rot acc   y-rot acc   z-rot acc
    22626  2.95554E-01 1.75532E-01-8.12771E-02 1.57285E-02 7.15379E-03-4.36839E-03-1.15758E-04-1.81810E-04 5.82756E-04



 n o d a l   p r i n t   o u t   f o r   t i m e  s t e p   50006                              ( at time 2.4999998E+01 )

 nodal point  x-disp     y-disp      z-disp      x-vel       y-vel       z-vel      x-accl      y-accl      z-accl      x-coor      y-coor      z-coor
    22626  5.12569E+00 9.37289E-01-1.88731E+01 2.81026E-01-5.20798E-02 3.65189E-01 5.89812E-03 2.68598E-02-2.72669E-02 5.30899E+01-2.10925E+01-1.15346E+01



 n o d a l   p r i n t   o u t   f o r   t i m e  s t e p   50006                              ( at time 2.4999998E+01 )

 nodal point  x-rot      y-rot       z-rot       x-rot vel   y-rot vel   z-rot vel   x-rot acc   y-rot acc   z-rot acc
    22626  2.97125E-01 1.76245E-01-8.17129E-02 1.56972E-02 7.11591E-03-4.33408E-03-3.13512E-04-3.78906E-04 3.43149E-04
