 LSTC 50th% Full_FE H-III Dummy (Beta Version, February 17, 2019)        
                    ls-dyna smp s R16 R16.0_619_d222963 date 03/18/2025

{BEGIN LEGEND}
 Entity #        Title
    22626                                                                                     
{END LEGEND}




 n o d a l   p r i n t   o u t   f o r   t i m e  s t e p       1                              ( at time 0.0000000E+00 )

 nodal point  x-disp     y-disp      z-disp      x-vel       y-vel       z-vel      x-accl      y-accl      z-accl      x-coor      y-coor      z-coor
    22626  0.00000E+00 0.00000E+00 0.00000E+00 0.00000E+00 0.00000E+00-3.12000E+00 0.00000E+00 0.00000E+00 0.00000E+00 4.79642E+01-2.20298E+01 7.33850E+00



 n o d a l   p r i n t   o u t   f o r   t i m e  s t e p       1                              ( at time 0.0000000E+00 )

 nodal point  x-rot      y-rot       z-rot       x-rot vel   y-rot vel   z-rot vel   x-rot acc   y-rot acc   z-rot acc
    22626  0.00000E+00 0.00000E+00 0.00000E+00 0.00000E+00 0.00000E+00 0.00000E+00 0.00000E+00 0.00000E+00 0.00000E+00



 n o d a l   p r i n t   o u t   f o r   t i m e  s t e p     201                              ( at time 9.9989993E-02 )

 nodal point  x-disp     y-disp      z-disp      x-vel       y-vel       z-vel      x-accl      y-accl      z-accl      x-coor      y-coor      z-coor
    22626  8.34283E-07-4.04502E-06-3.12016E-01 4.76705E-05-4.96449E-04-3.12074E+00 4.76752E-04-4.96499E-03-7.42510E-03 4.79642E+01-2.20298E+01 7.02648E+00



 n o d a l   p r i n t   o u t   f o r   t i m e  s t e p     201                              ( at time 9.9989993E-02 )

 nodal point  x-rot      y-rot       z-rot       x-rot vel   y-rot vel   z-rot vel   x-rot acc   y-rot acc   z-rot acc
    22626  9.60840E-09 3.04102E-08 5.27068E-08 1.30646E-06 2.72320E-06 5.21209E-06 1.30659E-05 2.72347E-05 5.21261E-05



 n o d a l   p r i n t   o u t   f o r   t i m e  s t e p     401                              ( at time 1.9997999E-01 )

 nodal point  x-disp     y-disp      z-disp      x-vel       y-vel       z-vel      x-accl      y-accl      z-accl      x-coor      y-coor      z-coor
    22626 -5.12764E-05-5.21568E-04-6.23853E-01-1.09620E-03-1.11153E-02-3.11558E+00-1.14399E-02-1.06199E-01 5.16276E-02 4.79641E+01-2.20303E+01 6.71465E+00



 n o d a l   p r i n t   o u t   f o r   t i m e  s t e p     401                              ( at time 1.9997999E-01 )

 nodal point  x-rot      y-rot       z-rot       x-rot vel   y-rot vel   z-rot vel   x-rot acc   y-rot acc   z-rot acc
    22626  4.60498E-07 1.32994E-06 2.50256E-06 2.64990E-06 1.90787E-05 3.49936E-05 1.34358E-05 1.63571E-04 2.97844E-04



 n o d a l   p r i n t   o u t   f o r   t i m e  s t e p     601                              ( at time 2.9996998E-01 )

 nodal point  x-disp     y-disp      z-disp      x-vel       y-vel       z-vel      x-accl      y-accl      z-accl      x-coor      y-coor      z-coor
    22626 -2.45663E-05-1.97632E-03-9.35238E-01 1.66209E-03-1.60471E-02-3.11415E+00 2.75857E-02-4.93230E-02 1.43232E-02 4.79642E+01-2.20318E+01 6.40326E+00



 n o d a l   p r i n t   o u t   f o r   t i m e  s t e p     601                              ( at time 2.9996998E-01 )

 nodal point  x-rot      y-rot       z-rot       x-rot vel   y-rot vel   z-rot vel   x-rot acc   y-rot acc   z-rot acc
    22626  6.75202E-07 2.41152E-06 4.82750E-06 8.26825E-06 5.37436E-06 1.47407E-05 5.61891E-05-1.37057E-04-2.02549E-04



 n o d a l   p r i n t   o u t   f o r   t i m e  s t e p     801                              ( at time 3.9995997E-01 )

 nodal point  x-disp     y-disp      z-disp      x-vel       y-vel       z-vel      x-accl      y-accl      z-accl      x-coor      y-coor      z-coor
    22626  5.94508E-05-3.57406E-03-1.24663E+00 1.92494E-04-1.73923E-02-3.11353E+00-1.46974E-02-1.34533E-02 6.17804E-03 4.79642E+01-2.20334E+01 6.09187E+00



 n o d a l   p r i n t   o u t   f o r   t i m e  s t e p     801                              ( at time 3.9995997E-01 )

 nodal point  x-rot      y-rot       z-rot       x-rot vel   y-rot vel   z-rot vel   x-rot acc   y-rot acc   z-rot acc
    22626  1.58167E-06 3.68066E-06 6.68084E-06 6.27135E-06 2.42290E-05 3.81595E-05-1.99710E-05 1.88565E-04 2.34211E-04



 n o d a l   p r i n t   o u t   f o r   t i m e  s t e p    1001                              ( at time 4.9994997E-01 )

 nodal point  x-disp     y-disp      z-disp      x-vel       y-vel       z-vel      x-accl      y-accl      z-accl      x-coor      y-coor      z-coor
    22626  7.27553E-05-5.63142E-03-1.55782E+00 8.89086E-04-2.38470E-02-3.11085E+00 6.96662E-03-6.45538E-02 2.67914E-02 4.79643E+01-2.20354E+01 5.78068E+00



 n o d a l   p r i n t   o u t   f o r   t i m e  s t e p    1001                              ( at time 4.9994997E-01 )

 nodal point  x-rot      y-rot       z-rot       x-rot vel   y-rot vel   z-rot vel   x-rot acc   y-rot acc   z-rot acc
    22626  1.49464E-06 6.64801E-06 1.18373E-05-4.82193E-06 4.37499E-05 7.19211E-05-1.10944E-04 1.95229E-04 3.37650E-04



 n o d a l   p r i n t   o u t   f o r   t i m e  s t e p    1201                              ( at time 5.9993996E-01 )

 nodal point  x-disp     y-disp      z-disp      x-vel       y-vel       z-vel      x-accl      y-accl      z-accl      x-coor      y-coor      z-coor
    22626  5.29542E-05-8.13747E-03-1.86888E+00-5.62820E-04-2.61242E-02-3.11084E+00-1.45205E-02-2.27744E-02 1.28759E-04 4.79642E+01-2.20379E+01 5.46962E+00



 n o d a l   p r i n t   o u t   f o r   t i m e  s t e p    1201                              ( at time 5.9993996E-01 )

 nodal point  x-rot      y-rot       z-rot       x-rot vel   y-rot vel   z-rot vel   x-rot acc   y-rot acc   z-rot acc
    22626  1.26592E-06 9.87446E-06 1.77370E-05-2.18615E-06 2.63158E-05 5.29425E-05 2.63604E-05-1.74359E-04-1.89805E-04



 n o d a l   p r i n t   o u t   f o r   t i m e  s t e p    1401                              ( at time 6.9992995E-01 )

 nodal point  x-disp     y-disp      z-disp      x-vel       y-vel       z-vel      x-accl      y-accl      z-accl      x-coor      y-coor      z-coor
    22626  1.97143E-05-1.10207E-02-2.17976E+00 7.16052E-04-3.22412E-02-3.10770E+00 1.27900E-02-6.11757E-02 3.14172E-02 4.79642E+01-2.20408E+01 5.15874E+00



 n o d a l   p r i n t   o u t   f o r   t i m e  s t e p    1401                              ( at time 6.9992995E-01 )

 nodal point  x-rot      y-rot       z-rot       x-rot vel   y-rot vel   z-rot vel   x-rot acc   y-rot acc   z-rot acc
    22626  1.10228E-06 1.30692E-05 2.27049E-05-2.40167E-06 3.79215E-05 5.93995E-05-2.15533E-06 1.16069E-04 6.45764E-05



 n o d a l   p r i n t   o u t   f o r   t i m e  s t e p    1601                              ( at time 7.9991994E-01 )

 nodal point  x-disp     y-disp      z-disp      x-vel       y-vel       z-vel      x-accl      y-accl      z-accl      x-coor      y-coor      z-coor
    22626  1.33042E-04-1.45710E-02-2.49038E+00 1.37072E-03-3.68173E-02-3.10600E+00 6.54738E-03-4.57658E-02 1.69699E-02 4.79643E+01-2.20444E+01 4.84812E+00



 n o d a l   p r i n t   o u t   f o r   t i m e  s t e p    1601                              ( at time 7.9991994E-01 )

 nodal point  x-rot      y-rot       z-rot       x-rot vel   y-rot vel   z-rot vel   x-rot acc   y-rot acc   z-rot acc
    22626  1.00741E-06 1.72055E-05 2.96651E-05 2.98006E-06 4.87599E-05 7.64016E-05 5.38226E-05 1.08395E-04 1.70038E-04



 n o d a l   p r i n t   o u t   f o r   t i m e  s t e p    1801                              ( at time 8.9990994E-01 )

 nodal point  x-disp     y-disp      z-disp      x-vel       y-vel       z-vel      x-accl      y-accl      z-accl      x-coor      y-coor      z-coor
    22626  2.07403E-04-1.82141E-02-2.80104E+00-5.08676E-04-3.64300E-02-3.10742E+00-1.87959E-02 3.87357E-03-1.41730E-02 4.79644E+01-2.20480E+01 4.53746E+00



 n o d a l   p r i n t   o u t   f o r   t i m e  s t e p    1801                              ( at time 8.9990994E-01 )

 nodal point  x-rot      y-rot       z-rot       x-rot vel   y-rot vel   z-rot vel   x-rot acc   y-rot acc   z-rot acc
    22626  1.02494E-06 2.13187E-05 3.66567E-05-2.01363E-06 3.79161E-05 6.83184E-05-4.99419E-05-1.08449E-04-8.08401E-05



 n o d a l   p r i n t   o u t   f o r   t i m e  s t e p    2001                              ( at time 9.9989993E-01 )

 nodal point  x-disp     y-disp      z-disp      x-vel       y-vel       z-vel      x-accl      y-accl      z-accl      x-coor      y-coor      z-coor
    22626  1.09766E-04-2.19275E-02-3.11175E+00-8.17692E-04-3.84009E-02-3.10755E+00-3.09046E-03-1.97113E-02-1.37581E-03 4.79643E+01-2.20517E+01 4.22675E+00



 n o d a l   p r i n t   o u t   f o r   t i m e  s t e p    2001                              ( at time 9.9989993E-01 )

 nodal point  x-rot      y-rot       z-rot       x-rot vel   y-rot vel   z-rot vel   x-rot acc   y-rot acc   z-rot acc
    22626  8.56605E-07 2.55328E-05 4.38493E-05-8.83169E-07 4.62571E-05 8.59418E-05 1.13058E-05 8.34184E-05 1.76251E-04



 n o d a l   p r i n t   o u t   f o r   t i m e  s t e p    2201                              ( at time 1.0998899E+00 )

 nodal point  x-disp     y-disp      z-disp      x-vel       y-vel       z-vel      x-accl      y-accl      z-accl      x-coor      y-coor      z-coor
    22626  9.19284E-05-2.58761E-02-3.42246E+00-2.14485E-04-4.02579E-02-3.10712E+00 6.03268E-03-1.85718E-02 4.38019E-03 4.79643E+01-2.20557E+01 3.91605E+00



 n o d a l   p r i n t   o u t   f o r   t i m e  s t e p    2201                              ( at time 1.0998899E+00 )

 nodal point  x-rot      y-rot       z-rot       x-rot vel   y-rot vel   z-rot vel   x-rot acc   y-rot acc   z-rot acc
    22626  9.33874E-07 3.03115E-05 5.24801E-05 5.31356E-06 4.64705E-05 7.51804E-05 6.19736E-05 2.13425E-06-1.07625E-04



 n o d a l   p r i n t   o u t   f o r   t i m e  s t e p    2401                              ( at time 1.1998799E+00 )

 nodal point  x-disp     y-disp      z-disp      x-vel       y-vel       z-vel      x-accl      y-accl      z-accl      x-coor      y-coor      z-coor
    22626  1.34329E-04-2.98901E-02-3.73320E+00 7.35346E-04-3.98036E-02-3.10849E+00 9.49925E-03 4.54363E-03-1.37772E-02 4.79643E+01-2.20597E+01 3.60531E+00



 n o d a l   p r i n t   o u t   f o r   t i m e  s t e p    2401                              ( at time 1.1998799E+00 )

 nodal point  x-rot      y-rot       z-rot       x-rot vel   y-rot vel   z-rot vel   x-rot acc   y-rot acc   z-rot acc
    22626  1.33714E-06 3.44647E-05 5.93285E-05 5.01352E-06 3.98857E-05 6.54256E-05-3.00078E-06-6.58550E-05-9.75574E-05



 n o d a l   p r i n t   o u t   f o r   t i m e  s t e p    2601                              ( at time 1.2998699E+00 )

 nodal point  x-disp     y-disp      z-disp      x-vel       y-vel       z-vel      x-accl      y-accl      z-accl      x-coor      y-coor      z-coor
    22626  1.46187E-04-3.37303E-02-4.04413E+00-4.21967E-04-3.65938E-02-3.11133E+00-1.15743E-02 3.21011E-02-2.83198E-02 4.79643E+01-2.20635E+01 3.29437E+00



 n o d a l   p r i n t   o u t   f o r   t i m e  s t e p    2601                              ( at time 1.2998699E+00 )

 nodal point  x-rot      y-rot       z-rot       x-rot vel   y-rot vel   z-rot vel   x-rot acc   y-rot acc   z-rot acc
    22626  1.63943E-06 3.85431E-05 6.61326E-05-2.52214E-06 4.54141E-05 7.98839E-05-7.53641E-05 5.52897E-05 1.44598E-04



 n o d a l   p r i n t   o u t   f o r   t i m e  s t e p    2801                              ( at time 1.3998599E+00 )

 nodal point  x-disp     y-disp      z-disp      x-vel       y-vel       z-vel      x-accl      y-accl      z-accl      x-coor      y-coor      z-coor
    22626  3.22117E-05-3.71241E-02-4.35543E+00-1.30898E-03-3.14337E-02-3.11511E+00-8.87106E-03 5.16061E-02-3.78027E-02 4.79642E+01-2.20669E+01 2.98307E+00



 n o d a l   p r i n t   o u t   f o r   t i m e  s t e p    2801                              ( at time 1.3998599E+00 )

 nodal point  x-rot      y-rot       z-rot       x-rot vel   y-rot vel   z-rot vel   x-rot acc   y-rot acc   z-rot acc
    22626  1.20493E-06 4.29482E-05 7.39897E-05-4.53481E-06 4.46008E-05 7.34804E-05-2.01287E-05-8.13377E-06-6.40423E-05



 n o d a l   p r i n t   o u t   f o r   t i m e  s t e p    3001                              ( at time 1.4998499E+00 )

 nodal point  x-disp     y-disp      z-disp      x-vel       y-vel       z-vel      x-accl      y-accl      z-accl      x-coor      y-coor      z-coor
    22626 -7.75255E-05-4.01687E-02-4.66702E+00-4.95807E-04-2.97681E-02-3.11713E+00 8.13260E-03 1.66579E-02-2.02605E-02 4.79641E+01-2.20700E+01 2.67148E+00



 n o d a l   p r i n t   o u t   f o r   t i m e  s t e p    3001                              ( at time 1.4998499E+00 )

 nodal point  x-rot      y-rot       z-rot       x-rot vel   y-rot vel   z-rot vel   x-rot acc   y-rot acc   z-rot acc
    22626  8.26910E-07 4.68517E-05 8.05201E-05-1.59666E-06 3.18666E-05 5.69901E-05 2.93844E-05-1.27355E-04-1.64919E-04



 n o d a l   p r i n t   o u t   f o r   t i m e  s t e p    3201                              ( at time 1.5998399E+00 )

 nodal point  x-disp     y-disp      z-disp      x-vel       y-vel       z-vel      x-accl      y-accl      z-accl      x-coor      y-coor      z-coor
    22626 -1.24285E-04-4.30593E-02-4.97879E+00-6.93452E-04-2.75099E-02-3.11940E+00-1.97665E-03 2.25838E-02-2.26616E-02 4.79641E+01-2.20728E+01 2.35971E+00



 n o d a l   p r i n t   o u t   f o r   t i m e  s t e p    3201                              ( at time 1.5998399E+00 )

 nodal point  x-rot      y-rot       z-rot       x-rot vel   y-rot vel   z-rot vel   x-rot acc   y-rot acc   z-rot acc
    22626  5.15600E-07 4.99110E-05 8.53955E-05-1.58537E-06 3.26949E-05 4.80119E-05 1.12860E-07 8.28465E-06-8.97913E-05



 n o d a l   p r i n t   o u t   f o r   t i m e  s t e p    3401                              ( at time 1.6998299E+00 )

 nodal point  x-disp     y-disp      z-disp      x-vel       y-vel       z-vel      x-accl      y-accl      z-accl      x-coor      y-coor      z-coor
    22626 -2.10838E-04-4.55736E-02-5.29088E+00-1.13050E-03-2.24407E-02-3.12325E+00-4.37091E-03 5.06970E-02-3.85084E-02 4.79640E+01-2.20754E+01 2.04762E+00



 n o d a l   p r i n t   o u t   f o r   t i m e  s t e p    3401                              ( at time 1.6998299E+00 )

 nodal point  x-rot      y-rot       z-rot       x-rot vel   y-rot vel   z-rot vel   x-rot acc   y-rot acc   z-rot acc
    22626  3.00837E-07 5.29935E-05 9.04301E-05-3.76865E-06 2.98600E-05 4.77715E-05-2.18349E-05-2.83523E-05-2.40367E-06



 n o d a l   p r i n t   o u t   f o r   t i m e  s t e p    3601                              ( at time 1.7998199E+00 )

 nodal point  x-disp     y-disp      z-disp      x-vel       y-vel       z-vel      x-accl      y-accl      z-accl      x-coor      y-coor      z-coor
    22626 -3.12319E-04-4.75643E-02-5.60339E+00-1.32426E-03-1.77169E-02-3.12732E+00-1.93783E-03 4.72428E-02-4.07260E-02 4.79639E+01-2.20774E+01 1.73511E+00



 n o d a l   p r i n t   o u t   f o r   t i m e  s t e p    3601                              ( at time 1.7998199E+00 )

 nodal point  x-rot      y-rot       z-rot       x-rot vel   y-rot vel   z-rot vel   x-rot acc   y-rot acc   z-rot acc
    22626  1.53982E-07 5.57829E-05 9.51898E-05-3.65861E-07 2.14054E-05 4.21060E-05 3.40313E-05-8.45544E-05-5.66613E-05



 n o d a l   p r i n t   o u t   f o r   t i m e  s t e p    3801                              ( at time 1.8998099E+00 )

 nodal point  x-disp     y-disp      z-disp      x-vel       y-vel       z-vel      x-accl      y-accl      z-accl      x-coor      y-coor      z-coor
    22626 -4.99929E-04-4.92020E-02-5.91621E+00-2.16712E-03-1.51664E-02-3.12982E+00-8.42945E-03 2.55083E-02-2.49745E-02 4.79637E+01-2.20790E+01 1.42229E+00



 n o d a l   p r i n t   o u t   f o r   t i m e  s t e p    3801                              ( at time 1.8998099E+00 )

 nodal point  x-rot      y-rot       z-rot       x-rot vel   y-rot vel   z-rot vel   x-rot acc   y-rot acc   z-rot acc
    22626 -9.10251E-08 5.76813E-05 9.86048E-05 1.54587E-06 1.55122E-05 2.74781E-05 1.91192E-05-5.89379E-05-1.46293E-04



 n o d a l   p r i n t   o u t   f o r   t i m e  s t e p    4001                              ( at time 1.9997999E+00 )

 nodal point  x-disp     y-disp      z-disp      x-vel       y-vel       z-vel      x-accl      y-accl      z-accl      x-coor      y-coor      z-coor
    22626 -6.73276E-04-5.05922E-02-6.22929E+00-1.64811E-03-1.28134E-02-3.13210E+00 5.19064E-03 2.35316E-02-2.28142E-02 4.79635E+01-2.20804E+01 1.10922E+00



 n o d a l   p r i n t   o u t   f o r   t i m e  s t e p    4001                              ( at time 1.9997999E+00 )

 nodal point  x-rot      y-rot       z-rot       x-rot vel   y-rot vel   z-rot vel   x-rot acc   y-rot acc   z-rot acc
    22626  1.14784E-07 5.90166E-05 1.00917E-04 3.41115E-06 1.32736E-05 2.01195E-05 1.86546E-05-2.23882E-05-7.35935E-05



 n o d a l   p r i n t   o u t   f o r   t i m e  s t e p    4201                              ( at time 2.0997899E+00 )

 nodal point  x-disp     y-disp      z-disp      x-vel       y-vel       z-vel      x-accl      y-accl      z-accl      x-coor      y-coor      z-coor
    22626 -8.42285E-04-5.16835E-02-6.54262E+00-1.85798E-03-9.15430E-03-3.13518E+00-2.09891E-03 3.65951E-02-3.08258E-02 4.79633E+01-2.20815E+01 7.95878E-01



 n o d a l   p r i n t   o u t   f o r   t i m e  s t e p    4201                              ( at time 2.0997899E+00 )

 nodal point  x-rot      y-rot       z-rot       x-rot vel   y-rot vel   z-rot vel   x-rot acc   y-rot acc   z-rot acc
    22626  3.99743E-07 5.96626E-05 1.02009E-04-1.40847E-06 3.28357E-06 1.49977E-06-4.82009E-05-9.99103E-05-1.86216E-04



 n o d a l   p r i n t   o u t   f o r   t i m e  s t e p    4401                              ( at time 2.1997798E+00 )

 nodal point  x-disp     y-disp      z-disp      x-vel       y-vel       z-vel      x-accl      y-accl      z-accl      x-coor      y-coor      z-coor
    22626 -1.08432E-03-5.23699E-02-6.85629E+00-2.77298E-03-4.41105E-03-3.13895E+00-9.15092E-03 4.74373E-02-3.76763E-02 4.79631E+01-2.20822E+01 4.82213E-01



 n o d a l   p r i n t   o u t   f o r   t i m e  s t e p    4401                              ( at time 2.1997798E+00 )

 nodal point  x-rot      y-rot       z-rot       x-rot vel   y-rot vel   z-rot vel   x-rot acc   y-rot acc   z-rot acc
    22626  2.22448E-07 5.96534E-05 1.01938E-04-1.14278E-06-2.04055E-06-2.97480E-06 2.65710E-06-5.32466E-05-4.47502E-05



 n o d a l   p r i n t   o u t   f o r   t i m e  s t e p    4601                              ( at time 2.2997698E+00 )

 nodal point  x-disp     y-disp      z-disp      x-vel       y-vel       z-vel      x-accl      y-accl      z-accl      x-coor      y-coor      z-coor
    22626 -1.39325E-03-5.25651E-02-7.17034E+00-3.51200E-03-8.89753E-05-3.14227E+00-7.39095E-03 4.32250E-02-3.32388E-02 4.79628E+01-2.20824E+01 1.68163E-01



 n o d a l   p r i n t   o u t   f o r   t i m e  s t e p    4601                              ( at time 2.2997698E+00 )

 nodal point  x-rot      y-rot       z-rot       x-rot vel   y-rot vel   z-rot vel   x-rot acc   y-rot acc   z-rot acc
    22626 -1.67158E-07 5.93402E-05 1.01569E-04-4.58483E-06-9.73636E-06-1.29152E-05-3.44239E-05-7.69657E-05-9.94137E-05



 n o d a l   p r i n t   o u t   f o r   t i m e  s t e p    4801                              ( at time 2.3997598E+00 )

 nodal point  x-disp     y-disp      z-disp      x-vel       y-vel       z-vel      x-accl      y-accl      z-accl      x-coor      y-coor      z-coor
    22626 -1.76173E-03-5.24783E-02-7.48463E+00-3.60752E-03 1.86688E-03-3.14440E+00-9.55224E-04 1.95606E-02-2.12977E-02 4.79624E+01-2.20823E+01-1.46134E-01



 n o d a l   p r i n t   o u t   f o r   t i m e  s t e p    4801                              ( at time 2.3997598E+00 )

 nodal point  x-rot      y-rot       z-rot       x-rot vel   y-rot vel   z-rot vel   x-rot acc   y-rot acc   z-rot acc
    22626 -7.15941E-07 5.80771E-05 9.90860E-05-6.09276E-06-1.62102E-05-3.38423E-05-1.50809E-05-6.47450E-05-2.09292E-04



 n o d a l   p r i n t   o u t   f o r   t i m e  s t e p    5001                              ( at time 2.4997498E+00 )

 nodal point  x-disp     y-disp      z-disp      x-vel       y-vel       z-vel      x-accl      y-accl      z-accl      x-coor      y-coor      z-coor
    22626 -2.15496E-03-5.21706E-02-7.79916E+00-4.24316E-03 4.96522E-03-3.14711E+00-6.35707E-03 3.09864E-02-2.70513E-02 4.79620E+01-2.20820E+01-4.60660E-01



 n o d a l   p r i n t   o u t   f o r   t i m e  s t e p    5001                              ( at time 2.4997498E+00 )

 nodal point  x-rot      y-rot       z-rot       x-rot vel   y-rot vel   z-rot vel   x-rot acc   y-rot acc   z-rot acc
    22626 -1.16680E-06 5.58434E-05 9.51162E-05-3.98529E-06-2.63414E-05-4.86198E-05 2.10768E-05-1.01322E-04-1.47789E-04



 n o d a l   p r i n t   o u t   f o r   t i m e  s t e p    5201                              ( at time 2.5997398E+00 )

 nodal point  x-disp     y-disp      z-disp      x-vel       y-vel       z-vel      x-accl      y-accl      z-accl      x-coor      y-coor      z-coor
    22626 -2.62916E-03-5.14565E-02-8.11403E+00-5.25611E-03 9.27134E-03-3.15070E+00-1.01305E-02 4.30655E-02-3.58904E-02 4.79616E+01-2.20812E+01-7.75526E-01



 n o d a l   p r i n t   o u t   f o r   t i m e  s t e p    5201                              ( at time 2.5997398E+00 )

 nodal point  x-rot      y-rot       z-rot       x-rot vel   y-rot vel   z-rot vel   x-rot acc   y-rot acc   z-rot acc
    22626 -1.53736E-06 5.27376E-05 8.96778E-05-4.75912E-06-3.58913E-05-6.23653E-05-7.73904E-06-9.55084E-05-1.37469E-04



 n o d a l   p r i n t   o u t   f o r   t i m e  s t e p    5401                              ( at time 2.6997298E+00 )

 nodal point  x-disp     y-disp      z-disp      x-vel       y-vel       z-vel      x-accl      y-accl      z-accl      x-coor      y-coor      z-coor
    22626 -3.19877E-03-5.03217E-02-8.42924E+00-6.42464E-03 1.29756E-02-3.15421E+00-1.16865E-02 3.70461E-02-3.51821E-02 4.79610E+01-2.20801E+01-1.09074E+00



 n o d a l   p r i n t   o u t   f o r   t i m e  s t e p    5401                              ( at time 2.6997298E+00 )

 nodal point  x-rot      y-rot       z-rot       x-rot vel   y-rot vel   z-rot vel   x-rot acc   y-rot acc   z-rot acc
    22626 -1.83759E-06 4.89872E-05 8.31738E-05-1.93842E-06-4.12914E-05-6.66686E-05 2.82098E-05-5.40065E-05-4.30375E-05



 n o d a l   p r i n t   o u t   f o r   t i m e  s t e p    5601                              ( at time 2.7997198E+00 )

 nodal point  x-disp     y-disp      z-disp      x-vel       y-vel       z-vel      x-accl      y-accl      z-accl      x-coor      y-coor      z-coor
    22626 -3.91271E-03-4.88972E-02-8.74475E+00-7.68567E-03 1.51522E-02-3.15635E+00-1.26116E-02 2.17687E-02-2.13788E-02 4.79603E+01-2.20787E+01-1.40625E+00



 n o d a l   p r i n t   o u t   f o r   t i m e  s t e p    5601                              ( at time 2.7997198E+00 )

 nodal point  x-rot      y-rot       z-rot       x-rot vel   y-rot vel   z-rot vel   x-rot acc   y-rot acc   z-rot acc
    22626 -1.97202E-06 4.40929E-05 7.50633E-05 2.89132E-07-5.73723E-05-9.86590E-05 2.22777E-05-1.60825E-04-3.19936E-04



 n o d a l   p r i n t   o u t   f o r   t i m e  s t e p    5801                              ( at time 2.8997098E+00 )

 nodal point  x-disp     y-disp      z-disp      x-vel       y-vel       z-vel      x-accl      y-accl      z-accl      x-coor      y-coor      z-coor
    22626 -4.68447E-03-4.73289E-02-9.06044E+00-7.82089E-03 1.61407E-02-3.15804E+00-1.35229E-03 9.88576E-03-1.68794E-02 4.79595E+01-2.20771E+01-1.72194E+00



 n o d a l   p r i n t   o u t   f o r   t i m e  s t e p    5801                              ( at time 2.8997098E+00 )

 nodal point  x-rot      y-rot       z-rot       x-rot vel   y-rot vel   z-rot vel   x-rot acc   y-rot acc   z-rot acc
    22626 -1.77241E-06 3.76501E-05 6.41568E-05 2.44223E-06-6.66170E-05-1.15457E-04 2.15331E-05-9.24559E-05-1.67997E-04



 n o d a l   p r i n t   o u t   f o r   t i m e  s t e p    6001                              ( at time 2.9996998E+00 )

 nodal point  x-disp     y-disp      z-disp      x-vel       y-vel       z-vel      x-accl      y-accl      z-accl      x-coor      y-coor      z-coor
    22626 -5.50481E-03-4.55972E-02-9.37632E+00-8.82114E-03 1.86342E-02-3.16041E+00-1.00035E-02 2.49374E-02-2.37298E-02 4.79587E+01-2.20754E+01-2.03782E+00



 n o d a l   p r i n t   o u t   f o r   t i m e  s t e p    6001                              ( at time 2.9996998E+00 )

 nodal point  x-rot      y-rot       z-rot       x-rot vel   y-rot vel   z-rot vel   x-rot acc   y-rot acc   z-rot acc
    22626 -1.53962E-06 3.07882E-05 5.25907E-05 6.10102E-07-7.08220E-05-1.20736E-04-1.83231E-05-4.20548E-05-5.27985E-05



 n o d a l   p r i n t   o u t   f o r   t i m e  s t e p    6201                              ( at time 3.0996898E+00 )

 nodal point  x-disp     y-disp      z-disp      x-vel       y-vel       z-vel      x-accl      y-accl      z-accl      x-coor      y-coor      z-coor
    22626 -6.47021E-03-4.36160E-02-9.69245E+00-1.04139E-02 2.05630E-02-3.16240E+00-1.59293E-02 1.92898E-02-1.99052E-02 4.79577E+01-2.20734E+01-2.35394E+00



 n o d a l   p r i n t   o u t   f o r   t i m e  s t e p    6201                              ( at time 3.0996898E+00 )

 nodal point  x-rot      y-rot       z-rot       x-rot vel   y-rot vel   z-rot vel   x-rot acc   y-rot acc   z-rot acc
    22626 -1.58670E-06 2.34301E-05 3.99592E-05-1.98280E-06-7.57113E-05-1.33372E-04-2.59316E-05-4.88979E-05-1.26366E-04



 n o d a l   p r i n t   o u t   f o r   t i m e  s t e p    6401                              ( at time 3.1996798E+00 )

 nodal point  x-disp     y-disp      z-disp      x-vel       y-vel       z-vel      x-accl      y-accl      z-accl      x-coor      y-coor      z-coor
    22626 -7.54134E-03-4.15855E-02-1.00087E+01-1.09342E-02 1.97569E-02-3.16297E+00-5.20363E-03-8.06147E-03-5.73215E-03 4.79566E+01-2.20714E+01-2.67020E+00



 n o d a l   p r i n t   o u t   f o r   t i m e  s t e p    6401                              ( at time 3.1996798E+00 )

 nodal point  x-rot      y-rot       z-rot       x-rot vel   y-rot vel   z-rot vel   x-rot acc   y-rot acc   z-rot acc
    22626 -1.71801E-06 1.53526E-05 2.63638E-05-1.56516E-06-8.52786E-05-1.43852E-04 4.17680E-06-9.56819E-05-1.04811E-04



 n o d a l   p r i n t   o u t   f o r   t i m e  s t e p    6601                              ( at time 3.2996698E+00 )

 nodal point  x-disp     y-disp      z-disp      x-vel       y-vel       z-vel      x-accl      y-accl      z-accl      x-coor      y-coor      z-coor
    22626 -8.64719E-03-3.97061E-02-1.03249E+01-1.11924E-02 1.78264E-02-3.16270E+00-2.58220E-03-1.93072E-02 2.75401E-03 4.79555E+01-2.20695E+01-2.98645E+00



 n o d a l   p r i n t   o u t   f o r   t i m e  s t e p    6601                              ( at time 3.2996698E+00 )

 nodal point  x-rot      y-rot       z-rot       x-rot vel   y-rot vel   z-rot vel   x-rot acc   y-rot acc   z-rot acc
    22626 -1.98292E-06 6.65827E-06 1.15999E-05-2.38326E-06-8.94987E-05-1.51567E-04-8.18182E-06-4.22053E-05-7.71635E-05



 n o d a l   p r i n t   o u t   f o r   t i m e  s t e p    6801                              ( at time 3.3996598E+00 )

 nodal point  x-disp     y-disp      z-disp      x-vel       y-vel       z-vel      x-accl      y-accl      z-accl      x-coor      y-coor      z-coor
    22626 -9.79776E-03-3.80148E-02-1.06412E+01-1.17009E-02 1.60319E-02-3.16262E+00-5.08531E-03-1.79469E-02 8.03550E-04 4.79544E+01-2.20678E+01-3.30268E+00



 n o d a l   p r i n t   o u t   f o r   t i m e  s t e p    6801                              ( at time 3.3996598E+00 )

 nodal point  x-rot      y-rot       z-rot       x-rot vel   y-rot vel   z-rot vel   x-rot acc   y-rot acc   z-rot acc
    22626 -2.03152E-06-2.23242E-06-3.69871E-06-2.58513E-06-8.80983E-05-1.53256E-04-2.01890E-06 1.40045E-05-1.68890E-05



 n o d a l   p r i n t   o u t   f o r   t i m e  s t e p    7001                              ( at time 3.4996498E+00 )

 nodal point  x-disp     y-disp      z-disp      x-vel       y-vel       z-vel      x-accl      y-accl      z-accl      x-coor      y-coor      z-coor
    22626 -1.09957E-02-3.64854E-02-1.09574E+01-1.23280E-02 1.44963E-02-3.16281E+00-6.27143E-03-1.53572E-02-1.92185E-03 4.79532E+01-2.20663E+01-3.61892E+00



 n o d a l   p r i n t   o u t   f o r   t i m e  s t e p    7001                              ( at time 3.4996498E+00 )

 nodal point  x-rot      y-rot       z-rot       x-rot vel   y-rot vel   z-rot vel   x-rot acc   y-rot acc   z-rot acc
    22626 -2.02171E-06-1.09020E-05-1.85312E-05 6.79382E-07-8.72509E-05-1.47533E-04 3.26484E-05 8.47516E-06 5.72337E-05



 n o d a l   p r i n t   o u t   f o r   t i m e  s t e p    7201                              ( at time 3.5996397E+00 )

 nodal point  x-disp     y-disp      z-disp      x-vel       y-vel       z-vel      x-accl      y-accl      z-accl      x-coor      y-coor      z-coor
    22626 -1.22503E-02-3.51427E-02-1.12737E+01-1.24155E-02 1.20886E-02-3.16261E+00-8.75485E-04-2.40801E-02 2.02438E-03 4.79519E+01-2.20649E+01-3.93517E+00



 n o d a l   p r i n t   o u t   f o r   t i m e  s t e p    7201                              ( at time 3.5996397E+00 )

 nodal point  x-rot      y-rot       z-rot       x-rot vel   y-rot vel   z-rot vel   x-rot acc   y-rot acc   z-rot acc
    22626 -2.03108E-06-1.95293E-05-3.30206E-05 2.01488E-06-8.48114E-05-1.38849E-04 1.33564E-05 2.43976E-05 8.68527E-05



 n o d a l   p r i n t   o u t   f o r   t i m e  s t e p    7401                              ( at time 3.6996297E+00 )

 nodal point  x-disp     y-disp      z-disp      x-vel       y-vel       z-vel      x-accl      y-accl      z-accl      x-coor      y-coor      z-coor
    22626 -1.34803E-02-3.40991E-02-1.15899E+01-1.21440E-02 8.70108E-03-3.16159E+00 2.71592E-03-3.38781E-02 1.02268E-02 4.79507E+01-2.20639E+01-4.25135E+00



 n o d a l   p r i n t   o u t   f o r   t i m e  s t e p    7401                              ( at time 3.6996297E+00 )

 nodal point  x-rot      y-rot       z-rot       x-rot vel   y-rot vel   z-rot vel   x-rot acc   y-rot acc   z-rot acc
    22626 -1.77469E-06-2.78176E-05-4.68188E-05 3.80868E-06-8.13246E-05-1.36392E-04 1.79397E-05 3.48717E-05 2.45728E-05



 n o d a l   p r i n t   o u t   f o r   t i m e  s t e p    7601                              ( at time 3.7996197E+00 )

 nodal point  x-disp     y-disp      z-disp      x-vel       y-vel       z-vel      x-accl      y-accl      z-accl      x-coor      y-coor      z-coor
    22626 -1.46654E-02-3.33666E-02-1.19059E+01-1.15848E-02 6.00419E-03-3.16088E+00 5.59212E-03-2.69715E-02 7.10321E-03 4.79495E+01-2.20632E+01-4.56744E+00



 n o d a l   p r i n t   o u t   f o r   t i m e  s t e p    7601                              ( at time 3.7996197E+00 )

 nodal point  x-rot      y-rot       z-rot       x-rot vel   y-rot vel   z-rot vel   x-rot acc   y-rot acc   z-rot acc
    22626 -1.30871E-06-3.56384E-05-6.00886E-05 5.28461E-06-7.24810E-05-1.22080E-04 1.47608E-05 8.84450E-05 1.43132E-04



 n o d a l   p r i n t   o u t   f o r   t i m e  s t e p    7801                              ( at time 3.8996097E+00 )

 nodal point  x-disp     y-disp      z-disp      x-vel       y-vel       z-vel      x-accl      y-accl      z-accl      x-coor      y-coor      z-coor
    22626 -1.57928E-02-3.28658E-02-1.22220E+01-1.09387E-02 4.21586E-03-3.16081E+00 6.46195E-03-1.78851E-02 6.43794E-04 4.79484E+01-2.20627E+01-4.88349E+00



 n o d a l   p r i n t   o u t   f o r   t i m e  s t e p    7801                              ( at time 3.8996097E+00 )

 nodal point  x-rot      y-rot       z-rot       x-rot vel   y-rot vel   z-rot vel   x-rot acc   y-rot acc   z-rot acc
    22626 -9.45690E-07-4.22429E-05-7.12144E-05 6.01337E-07-5.77365E-05-9.62458E-05-4.68374E-05 1.47459E-04 2.58367E-04



 n o d a l   p r i n t   o u t   f o r   t i m e  s t e p    8001                              ( at time 3.9995997E+00 )

 nodal point  x-disp     y-disp      z-disp      x-vel       y-vel       z-vel      x-accl      y-accl      z-accl      x-coor      y-coor      z-coor
    22626 -1.68604E-02-3.24954E-02-1.25381E+01-1.03922E-02 3.14456E-03-3.16114E+00 5.46520E-03-1.07141E-02-3.28812E-03 4.79473E+01-2.20623E+01-5.19956E+00



 n o d a l   p r i n t   o u t   f o r   t i m e  s t e p    8001                              ( at time 3.9995997E+00 )

 nodal point  x-rot      y-rot       z-rot       x-rot vel   y-rot vel   z-rot vel   x-rot acc   y-rot acc   z-rot acc
    22626 -8.14964E-07-4.74922E-05-7.99020E-05-1.10972E-07-4.67002E-05-8.00759E-05-7.12381E-06 1.10375E-04 1.61715E-04



 n o d a l   p r i n t   o u t   f o r   t i m e  s t e p    8201                              ( at time 4.0995897E+00 )

 nodal point  x-disp     y-disp      z-disp      x-vel       y-vel       z-vel      x-accl      y-accl      z-accl      x-coor      y-coor      z-coor
    22626 -1.78170E-02-3.22961E-02-1.28541E+01-8.60350E-03 6.36181E-04-3.16063E+00 1.78887E-02-2.50863E-02 5.08359E-03 4.79464E+01-2.20621E+01-5.51561E+00



 n o d a l   p r i n t   o u t   f o r   t i m e  s t e p    8201                              ( at time 4.0995897E+00 )

 nodal point  x-rot      y-rot       z-rot       x-rot vel   y-rot vel   z-rot vel   x-rot acc   y-rot acc   z-rot acc
    22626 -8.23938E-07-5.16232E-05-8.68771E-05-2.23299E-07-3.22682E-05-5.65101E-05-1.12338E-06 1.44334E-04 2.35681E-04



 n o d a l   p r i n t   o u t   f o r   t i m e  s t e p    8401                              ( at time 4.1995797E+00 )

 nodal point  x-disp     y-disp      z-disp      x-vel       y-vel       z-vel      x-accl      y-accl      z-accl      x-coor      y-coor      z-coor
    22626 -1.85981E-02-3.23584E-02-1.31701E+01-6.97388E-03-1.79422E-03-3.16005E+00 1.62979E-02-2.43064E-02 5.83469E-03 4.79456E+01-2.20621E+01-5.83161E+00



 n o d a l   p r i n t   o u t   f o r   t i m e  s t e p    8401                              ( at time 4.1995797E+00 )

 nodal point  x-rot      y-rot       z-rot       x-rot vel   y-rot vel   z-rot vel   x-rot acc   y-rot acc   z-rot acc
    22626 -8.08147E-07-5.40063E-05-9.08353E-05-1.97612E-07-1.42361E-05-2.29730E-05 2.56896E-07 1.80339E-04 3.35405E-04



 n o d a l   p r i n t   o u t   f o r   t i m e  s t e p    8601                              ( at time 4.2995697E+00 )

 nodal point  x-disp     y-disp      z-disp      x-vel       y-vel       z-vel      x-accl      y-accl      z-accl      x-coor      y-coor      z-coor
    22626 -1.92314E-02-3.26572E-02-1.34861E+01-5.55720E-03-3.87809E-03-3.15987E+00 1.41683E-02-2.08408E-02 1.79547E-03 4.79450E+01-2.20624E+01-6.14757E+00



 n o d a l   p r i n t   o u t   f o r   t i m e  s t e p    8601                              ( at time 4.2995697E+00 )

 nodal point  x-rot      y-rot       z-rot       x-rot vel   y-rot vel   z-rot vel   x-rot acc   y-rot acc   z-rot acc
    22626 -8.28659E-07-5.44457E-05-9.16926E-05-5.28664E-07 2.86079E-06 4.58430E-06-3.31085E-06 1.70986E-04 2.75601E-04



 n o d a l   p r i n t   o u t   f o r   t i m e  s t e p    8801                              ( at time 4.3995597E+00 )

 nodal point  x-disp     y-disp      z-disp      x-vel       y-vel       z-vel      x-accl      y-accl      z-accl      x-coor      y-coor      z-coor
    22626 -1.96977E-02-3.30857E-02-1.38021E+01-3.80199E-03-4.73447E-03-3.16048E+00 1.75538E-02-8.56472E-03-6.07552E-03 4.79445E+01-2.20629E+01-6.46355E+00



 n o d a l   p r i n t   o u t   f o r   t i m e  s t e p    8801                              ( at time 4.3995597E+00 )

 nodal point  x-rot      y-rot       z-rot       x-rot vel   y-rot vel   z-rot vel   x-rot acc   y-rot acc   z-rot acc
    22626 -8.06682E-07-5.31697E-05-8.93768E-05 7.54389E-07 2.22635E-05 4.00422E-05 1.28318E-05 1.94047E-04 3.54615E-04



 n o d a l   p r i n t   o u t   f o r   t i m e  s t e p    9001                              ( at time 4.4995497E+00 )

 nodal point  x-disp     y-disp      z-disp      x-vel       y-vel       z-vel      x-accl      y-accl      z-accl      x-coor      y-coor      z-coor
    22626 -1.99952E-02-3.36551E-02-1.41181E+01-2.04764E-03-6.99847E-03-3.16009E+00 1.75452E-02-2.26422E-02 3.84368E-03 4.79442E+01-2.20634E+01-6.77956E+00



 n o d a l   p r i n t   o u t   f o r   t i m e  s t e p    9001                              ( at time 4.4995497E+00 )

 nodal point  x-rot      y-rot       z-rot       x-rot vel   y-rot vel   z-rot vel   x-rot acc   y-rot acc   z-rot acc
    22626 -6.69936E-07-4.97111E-05-8.32740E-05 3.59636E-06 4.39770E-05 7.67591E-05 2.84224E-05 2.17156E-04 3.67204E-04



 n o d a l   p r i n t   o u t   f o r   t i m e  s t e p    9201                              ( at time 4.5995397E+00 )

 nodal point  x-disp     y-disp      z-disp      x-vel       y-vel       z-vel      x-accl      y-accl      z-accl      x-coor      y-coor      z-coor
    22626 -2.01060E-02-3.45090E-02-1.44340E+01-1.19413E-04-9.90073E-03-3.15951E+00 1.92843E-02-2.90255E-02 5.86807E-03 4.79441E+01-2.20643E+01-7.09550E+00



 n o d a l   p r i n t   o u t   f o r   t i m e  s t e p    9201                              ( at time 4.5995397E+00 )

 nodal point  x-rot      y-rot       z-rot       x-rot vel   y-rot vel   z-rot vel   x-rot acc   y-rot acc   z-rot acc
    22626 -3.64303E-07-4.44906E-05-7.41637E-05 4.11100E-06 6.00103E-05 1.02732E-04 5.14690E-06 1.60349E-04 2.59755E-04



 n o d a l   p r i n t   o u t   f o r   t i m e  s t e p    9401                              ( at time 4.6995297E+00 )

 nodal point  x-disp     y-disp      z-disp      x-vel       y-vel       z-vel      x-accl      y-accl      z-accl      x-coor      y-coor      z-coor
    22626 -2.00001E-02-3.55808E-02-1.47499E+01 2.24249E-03-1.16121E-02-3.15923E+00 2.36214E-02-1.71154E-02 2.76832E-03 4.79442E+01-2.20654E+01-7.41141E+00



 n o d a l   p r i n t   o u t   f o r   t i m e  s t e p    9401                              ( at time 4.6995297E+00 )

 nodal point  x-rot      y-rot       z-rot       x-rot vel   y-rot vel   z-rot vel   x-rot acc   y-rot acc   z-rot acc
    22626 -2.16155E-08-3.73251E-05-6.16858E-05 2.01712E-07 8.60160E-05 1.49235E-04-3.90968E-05 2.60083E-04 4.65077E-04



 n o d a l   p r i n t   o u t   f o r   t i m e  s t e p    9601                              ( at time 4.7995197E+00 )

 nodal point  x-disp     y-disp      z-disp      x-vel       y-vel       z-vel      x-accl      y-accl      z-accl      x-coor      y-coor      z-coor
    22626 -1.96652E-02-3.68298E-02-1.50657E+01 4.17626E-03-1.28616E-02-3.15755E+00 1.93397E-02-1.24964E-02 1.67673E-02 4.79445E+01-2.20666E+01-7.72723E+00



 n o d a l   p r i n t   o u t   f o r   t i m e  s t e p    9601                              ( at time 4.7995197E+00 )

 nodal point  x-rot      y-rot       z-rot       x-rot vel   y-rot vel   z-rot vel   x-rot acc   y-rot acc   z-rot acc
    22626 -1.98976E-07-2.67460E-05-4.45766E-05-1.55642E-06 1.27211E-04 1.88145E-04-1.75831E-05 4.11996E-04 3.89141E-04



 n o d a l   p r i n t   o u t   f o r   t i m e  s t e p    9801                              ( at time 4.8995097E+00 )

 nodal point  x-disp     y-disp      z-disp      x-vel       y-vel       z-vel      x-accl      y-accl      z-accl      x-coor      y-coor      z-coor
    22626 -1.91596E-02-3.81344E-02-1.53813E+01 5.99414E-03-1.34901E-02-3.15385E+00 1.81806E-02-6.28540E-03 3.70564E-02 4.79450E+01-2.20679E+01-8.04282E+00



 n o d a l   p r i n t   o u t   f o r   t i m e  s t e p    9801                              ( at time 4.8995097E+00 )

 nodal point  x-rot      y-rot       z-rot       x-rot vel   y-rot vel   z-rot vel   x-rot acc   y-rot acc   z-rot acc
    22626  5.92831E-07-1.11366E-05-2.42717E-05 1.13897E-05 1.92341E-04 2.18182E-04 1.29474E-04 6.51362E-04 3.00402E-04



 n o d a l   p r i n t   o u t   f o r   t i m e  s t e p   10001                              ( at time 4.9994997E+00 )

 nodal point  x-disp     y-disp      z-disp      x-vel       y-vel       z-vel      x-accl      y-accl      z-accl      x-coor      y-coor      z-coor
    22626 -1.84203E-02-3.95468E-02-1.56963E+01 8.82674E-03-1.47801E-02-3.14462E+00 2.83287E-02-1.29010E-02 9.23126E-02 4.79458E+01-2.20693E+01-8.35775E+00



 n o d a l   p r i n t   o u t   f o r   t i m e  s t e p   10001                              ( at time 4.9994997E+00 )

 nodal point  x-rot      y-rot       z-rot       x-rot vel   y-rot vel   z-rot vel   x-rot acc   y-rot acc   z-rot acc
    22626  2.45321E-06 1.24327E-05-1.66120E-06 3.48721E-05 2.89943E-04 2.32165E-04 2.34847E-04 9.76116E-04 1.39842E-04



 n o d a l   p r i n t   o u t   f o r   t i m e  s t e p   10202                              ( at time 5.0999896E+00 )

 nodal point  x-disp     y-disp      z-disp      x-vel       y-vel       z-vel      x-accl      y-accl      z-accl      x-coor      y-coor      z-coor
    22626 -1.74212E-02-4.09959E-02-1.60116E+01 1.11320E-02-1.41144E-02-3.13023E+00 2.29399E-02 6.62473E-03 1.43149E-01 4.79468E+01-2.20708E+01-8.67307E+00



 n o d a l   p r i n t   o u t   f o r   t i m e  s t e p   10202                              ( at time 5.0999896E+00 )

 nodal point  x-rot      y-rot       z-rot       x-rot vel   y-rot vel   z-rot vel   x-rot acc   y-rot acc   z-rot acc
    22626  9.17640E-06 4.92604E-05 2.22116E-05 9.62959E-05 4.47422E-04 2.40234E-04 6.11245E-04 1.56712E-03 8.02917E-05



 n o d a l   p r i n t   o u t   f o r   t i m e  s t e p   10402                              ( at time 5.1999796E+00 )

 nodal point  x-disp     y-disp      z-disp      x-vel       y-vel       z-vel      x-accl      y-accl      z-accl      x-coor      y-coor      z-coor
    22626 -1.61901E-02-4.22624E-02-1.63236E+01 1.35698E-02-1.07120E-02-3.10995E+00 2.43812E-02 3.40267E-02 2.02821E-01 4.79480E+01-2.20721E+01-8.98506E+00



 n o d a l   p r i n t   o u t   f o r   t i m e  s t e p   10402                              ( at time 5.1999796E+00 )

 nodal point  x-rot      y-rot       z-rot       x-rot vel   y-rot vel   z-rot vel   x-rot acc   y-rot acc   z-rot acc
    22626  2.24572E-05 1.03965E-04 4.55721E-05 1.82709E-04 6.45967E-04 2.15992E-04 8.64210E-04 1.98564E-03-2.42443E-04



 n o d a l   p r i n t   o u t   f o r   t i m e  s t e p   10602                              ( at time 5.2999696E+00 )

 nodal point  x-disp     y-disp      z-disp      x-vel       y-vel       z-vel      x-accl      y-accl      z-accl      x-coor      y-coor      z-coor
    22626 -1.46684E-02-4.31365E-02-1.66334E+01 1.64073E-02-6.25314E-03-3.08521E+00 2.83776E-02 4.45932E-02 2.47391E-01 4.79495E+01-2.20729E+01-9.29485E+00



 n o d a l   p r i n t   o u t   f o r   t i m e  s t e p   10602                              ( at time 5.2999696E+00 )

 nodal point  x-rot      y-rot       z-rot       x-rot vel   y-rot vel   z-rot vel   x-rot acc   y-rot acc   z-rot acc
    22626  4.67467E-05 1.80290E-04 6.63423E-05 3.02485E-04 8.81540E-04 1.84456E-04 1.19789E-03 2.35597E-03-3.15384E-04



 n o d a l   p r i n t   o u t   f o r   t i m e  s t e p   10802                              ( at time 5.3999596E+00 )

 nodal point  x-disp     y-disp      z-disp      x-vel       y-vel       z-vel      x-accl      y-accl      z-accl      x-coor      y-coor      z-coor
    22626 -1.28395E-02-4.35894E-02-1.69404E+01 2.04243E-02-2.69325E-03-3.05672E+00 4.01734E-02 3.56025E-02 2.84934E-01 4.79513E+01-2.20734E+01-9.60193E+00



 n o d a l   p r i n t   o u t   f o r   t i m e  s t e p   10802                              ( at time 5.3999596E+00 )

 nodal point  x-rot      y-rot       z-rot       x-rot vel   y-rot vel   z-rot vel   x-rot acc   y-rot acc   z-rot acc
    22626  8.25335E-05 2.81472E-04 8.40001E-05 4.17122E-04 1.14332E-03 1.52577E-04 1.14648E-03 2.61807E-03-3.18824E-04



 n o d a l   p r i n t   o u t   f o r   t i m e  s t e p   11002                              ( at time 5.4999496E+00 )

 nodal point  x-disp     y-disp      z-disp      x-vel       y-vel       z-vel      x-accl      y-accl      z-accl      x-coor      y-coor      z-coor
    22626 -1.06355E-02-4.35580E-02-1.72445E+01 2.38642E-02 3.72356E-03-3.02471E+00 3.44030E-02 6.41746E-02 3.20217E-01 4.79535E+01-2.20733E+01-9.90598E+00



 n o d a l   p r i n t   o u t   f o r   t i m e  s t e p   11002                              ( at time 5.4999496E+00 )

 nodal point  x-rot      y-rot       z-rot       x-rot vel   y-rot vel   z-rot vel   x-rot acc   y-rot acc   z-rot acc
    22626  1.32689E-04 4.10560E-04 9.66819E-05 5.91018E-04 1.43268E-03 9.83460E-05 1.73914E-03 2.89388E-03-5.42367E-04



 n o d a l   p r i n t   o u t   f o r   t i m e  s t e p   11202                              ( at time 5.5999396E+00 )

 nodal point  x-disp     y-disp      z-disp      x-vel       y-vel       z-vel      x-accl      y-accl      z-accl      x-coor      y-coor      z-coor
    22626 -8.11778E-03-4.27589E-02-1.75452E+01 2.67223E-02 1.13223E-02-2.99016E+00 2.85834E-02 7.59946E-02 3.45456E-01 4.79561E+01-2.20725E+01-1.02067E+01



 n o d a l   p r i n t   o u t   f o r   t i m e  s t e p   11202                              ( at time 5.5999396E+00 )

 nodal point  x-rot      y-rot       z-rot       x-rot vel   y-rot vel   z-rot vel   x-rot acc   y-rot acc   z-rot acc
    22626  2.00793E-04 5.70325E-04 1.03535E-04 7.44153E-04 1.77190E-03 4.00996E-05 1.53150E-03 3.39258E-03-5.82523E-04



 n o d a l   p r i n t   o u t   f o r   t i m e  s t e p   11402                              ( at time 5.6999296E+00 )

 nodal point  x-disp     y-disp      z-disp      x-vel       y-vel       z-vel      x-accl      y-accl      z-accl      x-coor      y-coor      z-coor
    22626 -5.23422E-03-4.12459E-02-1.78424E+01 3.07187E-02 1.91595E-02-2.95342E+00 3.99682E-02 7.83799E-02 3.67424E-01 4.79589E+01-2.20710E+01-1.05039E+01



 n o d a l   p r i n t   o u t   f o r   t i m e  s t e p   11402                              ( at time 5.6999296E+00 )

 nodal point  x-rot      y-rot       z-rot       x-rot vel   y-rot vel   z-rot vel   x-rot acc   y-rot acc   z-rot acc
    22626  2.84408E-04 7.64444E-04 1.03605E-04 9.36178E-04 2.10377E-03-3.68793E-05 1.92043E-03 3.31895E-03-7.69863E-04



 n o d a l   p r i n t   o u t   f o r   t i m e  s t e p   11602                              ( at time 5.7999195E+00 )

 nodal point  x-disp     y-disp      z-disp      x-vel       y-vel       z-vel      x-accl      y-accl      z-accl      x-coor      y-coor      z-coor
    22626 -1.96424E-03-3.88757E-02-1.81358E+01 3.48558E-02 2.78224E-02-2.91460E+00 4.13756E-02 8.66377E-02 3.88299E-01 4.79622E+01-2.20687E+01-1.07973E+01



 n o d a l   p r i n t   o u t   f o r   t i m e  s t e p   11602                              ( at time 5.7999195E+00 )

 nodal point  x-rot      y-rot       z-rot       x-rot vel   y-rot vel   z-rot vel   x-rot acc   y-rot acc   z-rot acc
    22626  3.87990E-04 9.91460E-04 9.55177E-05 1.12430E-03 2.44669E-03-1.19168E-04 1.88141E-03 3.42962E-03-8.22967E-04



 n o d a l   p r i n t   o u t   f o r   t i m e  s t e p   11802                              ( at time 5.8999095E+00 )

 nodal point  x-disp     y-disp      z-disp      x-vel       y-vel       z-vel      x-accl      y-accl      z-accl      x-coor      y-coor      z-coor
    22626  1.75579E-03-3.57480E-02-1.84251E+01 3.96692E-02 3.45713E-02-2.87305E+00 4.81384E-02 6.74960E-02 4.15517E-01 4.79659E+01-2.20655E+01-1.10866E+01



 n o d a l   p r i n t   o u t   f o r   t i m e  s t e p   11802                              ( at time 5.8999095E+00 )

 nodal point  x-rot      y-rot       z-rot       x-rot vel   y-rot vel   z-rot vel   x-rot acc   y-rot acc   z-rot acc
    22626  5.07454E-04 1.25477E-03 7.88699E-05 1.28883E-03 2.80976E-03-2.11158E-04 1.64549E-03 3.63106E-03-9.19999E-04



 n o d a l   p r i n t   o u t   f o r   t i m e  s t e p   12002                              ( at time 5.9998995E+00 )

 nodal point  x-disp     y-disp      z-disp      x-vel       y-vel       z-vel      x-accl      y-accl      z-accl      x-coor      y-coor      z-coor
    22626  6.02518E-03-3.19381E-02-1.87103E+01 4.54248E-02 4.21463E-02-2.83024E+00 5.75620E-02 7.57576E-02 4.28160E-01 4.79702E+01-2.20617E+01-1.13718E+01



 n o d a l   p r i n t   o u t   f o r   t i m e  s t e p   12002                              ( at time 5.9998995E+00 )

 nodal point  x-rot      y-rot       z-rot       x-rot vel   y-rot vel   z-rot vel   x-rot acc   y-rot acc   z-rot acc
    22626  6.46628E-04 1.55237E-03 5.32185E-05 1.48535E-03 3.14003E-03-3.11238E-04 1.96534E-03 3.30296E-03-1.00090E-03



 n o d a l   p r i n t   o u t   f o r   t i m e  s t e p   12202                              ( at time 6.0998895E+00 )

 nodal point  x-disp     y-disp      z-disp      x-vel       y-vel       z-vel      x-accl      y-accl      z-accl      x-coor      y-coor      z-coor
    22626  1.09361E-02-2.72842E-02-1.89910E+01 5.19645E-02 5.07558E-02-2.78551E+00 6.54032E-02 8.61034E-02 4.47340E-01 4.79751E+01-2.20571E+01-1.16525E+01



 n o d a l   p r i n t   o u t   f o r   t i m e  s t e p   12202                              ( at time 6.0998895E+00 )

 nodal point  x-rot      y-rot       z-rot       x-rot vel   y-rot vel   z-rot vel   x-rot acc   y-rot acc   z-rot acc
    22626  8.03825E-04 1.88341E-03 1.62494E-05 1.66714E-03 3.49315E-03-4.22987E-04 1.81811E-03 3.53154E-03-1.11759E-03



 n o d a l   p r i n t   o u t   f o r   t i m e  s t e p   12402                              ( at time 6.1998795E+00 )

 nodal point  x-disp     y-disp      z-disp      x-vel       y-vel       z-vel      x-accl      y-accl      z-accl      x-coor      y-coor      z-coor
    22626  1.64363E-02-2.18699E-02-1.92674E+01 5.83577E-02 5.73010E-02-2.74149E+00 6.39381E-02 6.54587E-02 4.40249E-01 4.79806E+01-2.20517E+01-1.19289E+01



 n o d a l   p r i n t   o u t   f o r   t i m e  s t e p   12402                              ( at time 6.1998795E+00 )

 nodal point  x-rot      y-rot       z-rot       x-rot vel   y-rot vel   z-rot vel   x-rot acc   y-rot acc   z-rot acc
    22626  9.81343E-04 2.24915E-03-3.06262E-05 1.87986E-03 3.82385E-03-5.14504E-04 2.12743E-03 3.30737E-03-9.15267E-04



 n o d a l   p r i n t   o u t   f o r   t i m e  s t e p   12602                              ( at time 6.2998695E+00 )

 nodal point  x-disp     y-disp      z-disp      x-vel       y-vel       z-vel      x-accl      y-accl      z-accl      x-coor      y-coor      z-coor
    22626  2.26457E-02-1.57635E-02-1.95391E+01 6.64631E-02 6.44990E-02-2.69418E+00 8.10630E-02 7.19876E-02 4.73128E-01 4.79868E+01-2.20456E+01-1.22006E+01



 n o d a l   p r i n t   o u t   f o r   t i m e  s t e p   12602                              ( at time 6.2998695E+00 )

 nodal point  x-rot      y-rot       z-rot       x-rot vel   y-rot vel   z-rot vel   x-rot acc   y-rot acc   z-rot acc
    22626  1.17832E-03 2.64789E-03-8.85756E-05 2.07718E-03 4.14985E-03-6.43060E-04 1.97344E-03 3.26031E-03-1.28569E-03



 n o d a l   p r i n t   o u t   f o r   t i m e  s t e p   12802                              ( at time 6.3998595E+00 )

 nodal point  x-disp     y-disp      z-disp      x-vel       y-vel       z-vel      x-accl      y-accl      z-accl      x-coor      y-coor      z-coor
    22626  2.96866E-02-8.95666E-03-1.98061E+01 7.44192E-02 7.18155E-02-2.64780E+00 7.95684E-02 7.31724E-02 4.63833E-01 4.79939E+01-2.20387E+01-1.24676E+01



 n o d a l   p r i n t   o u t   f o r   t i m e  s t e p   12802                              ( at time 6.3998595E+00 )

 nodal point  x-rot      y-rot       z-rot       x-rot vel   y-rot vel   z-rot vel   x-rot acc   y-rot acc   z-rot acc
    22626  1.39628E-03 3.07921E-03-1.58145E-04 2.28100E-03 4.45991E-03-7.51604E-04 2.03835E-03 3.10097E-03-1.08555E-03



 n o d a l   p r i n t   o u t   f o r   t i m e  s t e p   13002                              ( at time 6.4998495E+00 )

 nodal point  x-disp     y-disp      z-disp      x-vel       y-vel       z-vel      x-accl      y-accl      z-accl      x-coor      y-coor      z-coor
    22626  3.75558E-02-1.40729E-03-2.00684E+01 8.25095E-02 7.93604E-02-2.59869E+00 8.09119E-02 7.54558E-02 4.91190E-01 4.80017E+01-2.20312E+01-1.27299E+01



 n o d a l   p r i n t   o u t   f o r   t i m e  s t e p   13002                              ( at time 6.4998495E+00 )

 nodal point  x-rot      y-rot       z-rot       x-rot vel   y-rot vel   z-rot vel   x-rot acc   y-rot acc   z-rot acc
    22626  1.63570E-03 3.54117E-03-2.37901E-04 2.49765E-03 4.77963E-03-8.58088E-04 2.16675E-03 3.19747E-03-1.06495E-03



 n o d a l   p r i n t   o u t   f o r   t i m e  s t e p   13202                              ( at time 6.5998395E+00 )

 nodal point  x-disp     y-disp      z-disp      x-vel       y-vel       z-vel      x-accl      y-accl      z-accl      x-coor      y-coor      z-coor
    22626  4.62901E-02 6.90695E-03-2.03259E+01 9.23393E-02 8.65834E-02-2.55133E+00 9.83072E-02 7.22372E-02 4.73590E-01 4.80105E+01-2.20229E+01-1.29874E+01



 n o d a l   p r i n t   o u t   f o r   t i m e  s t e p   13202                              ( at time 6.5998395E+00 )

 nodal point  x-rot      y-rot       z-rot       x-rot vel   y-rot vel   z-rot vel   x-rot acc   y-rot acc   z-rot acc
    22626  1.89641E-03 4.03308E-03-3.28867E-04 2.69986E-03 5.05433E-03-9.56180E-04 2.02224E-03 2.74726E-03-9.81018E-04



 n o d a l   p r i n t   o u t   f o r   t i m e  s t e p   13402                              ( at time 6.6998295E+00 )

 nodal point  x-disp     y-disp      z-disp      x-vel       y-vel       z-vel      x-accl      y-accl      z-accl      x-coor      y-coor      z-coor
    22626  5.59797E-02 1.59418E-02-2.05785E+01 1.02372E-01 9.38567E-02-2.49965E+00 1.00340E-01 7.27408E-02 5.16851E-01 4.80202E+01-2.20138E+01-1.32400E+01



 n o d a l   p r i n t   o u t   f o r   t i m e  s t e p   13402                              ( at time 6.6998295E+00 )

 nodal point  x-rot      y-rot       z-rot       x-rot vel   y-rot vel   z-rot vel   x-rot acc   y-rot acc   z-rot acc
    22626  2.17749E-03 4.55313E-03-4.31526E-04 2.92690E-03 5.33758E-03-1.08850E-03 2.27064E-03 2.83282E-03-1.32336E-03



 n o d a l   p r i n t   o u t   f o r   t i m e  s t e p   13602                              ( at time 6.7998195E+00 )

 nodal point  x-disp     y-disp      z-disp      x-vel       y-vel       z-vel      x-accl      y-accl      z-accl      x-coor      y-coor      z-coor
    22626  6.66736E-02 2.57399E-02-2.08258E+01 1.11616E-01 1.01785E-01-2.44765E+00 9.24490E-02 7.92900E-02 5.20070E-01 4.80309E+01-2.20040E+01-1.34873E+01



 n o d a l   p r i n t   o u t   f o r   t i m e  s t e p   13602                              ( at time 6.7998195E+00 )

 nodal point  x-rot      y-rot       z-rot       x-rot vel   y-rot vel   z-rot vel   x-rot acc   y-rot acc   z-rot acc
    22626  2.48152E-03 5.10056E-03-5.46447E-04 3.15704E-03 5.61349E-03-1.20138E-03 2.30170E-03 2.75943E-03-1.12892E-03



 n o d a l   p r i n t   o u t   f o r   t i m e  s t e p   13802                              ( at time 6.8998095E+00 )

 nodal point  x-disp     y-disp      z-disp      x-vel       y-vel       z-vel      x-accl      y-accl      z-accl      x-coor      y-coor      z-coor
    22626  7.82715E-02 3.62691E-02-2.10680E+01 1.20236E-01 1.08756E-01-2.39548E+00 8.62026E-02 6.97177E-02 5.21779E-01 4.80424E+01-2.19935E+01-1.37295E+01



 n o d a l   p r i n t   o u t   f o r   t i m e  s t e p   13802                              ( at time 6.8998095E+00 )

 nodal point  x-rot      y-rot       z-rot       x-rot vel   y-rot vel   z-rot vel   x-rot acc   y-rot acc   z-rot acc
    22626  2.80874E-03 5.67638E-03-6.72357E-04 3.37491E-03 5.90059E-03-1.32787E-03 2.17886E-03 2.87120E-03-1.26499E-03



 n o d a l   p r i n t   o u t   f o r   t i m e  s t e p   14002                              ( at time 6.9997995E+00 )

 nodal point  x-disp     y-disp      z-disp      x-vel       y-vel       z-vel      x-accl      y-accl      z-accl      x-coor      y-coor      z-coor
    22626  9.07387E-02 4.75569E-02-2.13048E+01 1.29210E-01 1.16578E-01-2.34232E+00 8.97504E-02 7.82270E-02 5.31651E-01 4.80549E+01-2.19822E+01-1.39663E+01



 n o d a l   p r i n t   o u t   f o r   t i m e  s t e p   14002                              ( at time 6.9997995E+00 )

 nodal point  x-rot      y-rot       z-rot       x-rot vel   y-rot vel   z-rot vel   x-rot acc   y-rot acc   z-rot acc
    22626  3.15838E-03 6.28090E-03-8.11632E-04 3.63040E-03 6.17871E-03-1.45451E-03 2.55518E-03 2.78149E-03-1.26657E-03



 n o d a l   p r i n t   o u t   f o r   t i m e  s t e p   14202                              ( at time 7.0997895E+00 )

 nodal point  x-disp     y-disp      z-disp      x-vel       y-vel       z-vel      x-accl      y-accl      z-accl      x-coor      y-coor      z-coor
    22626  1.04059E-01 5.95693E-02-2.15362E+01 1.38024E-01 1.24144E-01-2.28635E+00 8.81460E-02 7.56672E-02 5.59787E-01 4.80682E+01-2.19702E+01-1.41977E+01



 n o d a l   p r i n t   o u t   f o r   t i m e  s t e p   14202                              ( at time 7.0997895E+00 )

 nodal point  x-rot      y-rot       z-rot       x-rot vel   y-rot vel   z-rot vel   x-rot acc   y-rot acc   z-rot acc
    22626  3.53424E-03 6.91238E-03-9.62414E-04 3.89039E-03 6.46126E-03-1.56910E-03 2.60018E-03 2.82585E-03-1.14599E-03



 n o d a l   p r i n t   o u t   f o r   t i m e  s t e p   14402                              ( at time 7.1997794E+00 )

 nodal point  x-disp     y-disp      z-disp      x-vel       y-vel       z-vel      x-accl      y-accl      z-accl      x-coor      y-coor      z-coor
    22626  1.18214E-01 7.21942E-02-2.17621E+01 1.45708E-01 1.28695E-01-2.23124E+00 7.68534E-02 4.55177E-02 5.51098E-01 4.80824E+01-2.19576E+01-1.44236E+01



 n o d a l   p r i n t   o u t   f o r   t i m e  s t e p   14402                              ( at time 7.1997794E+00 )

 nodal point  x-rot      y-rot       z-rot       x-rot vel   y-rot vel   z-rot vel   x-rot acc   y-rot acc   z-rot acc
    22626  3.93396E-03 7.57263E-03-1.12410E-03 4.13014E-03 6.73934E-03-1.68122E-03 2.39769E-03 2.78108E-03-1.12133E-03



 n o d a l   p r i n t   o u t   f o r   t i m e  s t e p   14602                              ( at time 7.2997694E+00 )

 nodal point  x-disp     y-disp      z-disp      x-vel       y-vel       z-vel      x-accl      y-accl      z-accl      x-coor      y-coor      z-coor
    22626  1.33146E-01 8.53689E-02-2.19824E+01 1.53150E-01 1.35152E-01-2.17385E+00 7.44271E-02 6.45730E-02 5.74010E-01 4.80973E+01-2.19444E+01-1.46439E+01



 n o d a l   p r i n t   o u t   f o r   t i m e  s t e p   14602                              ( at time 7.2997694E+00 )

 nodal point  x-rot      y-rot       z-rot       x-rot vel   y-rot vel   z-rot vel   x-rot acc   y-rot acc   z-rot acc
    22626  4.36047E-03 8.26260E-03-1.29747E-03 4.39865E-03 7.03988E-03-1.79500E-03 2.68536E-03 3.00567E-03-1.13785E-03



 n o d a l   p r i n t   o u t   f o r   t i m e  s t e p   14802                              ( at time 7.3997594E+00 )

 nodal point  x-disp     y-disp      z-disp      x-vel       y-vel       z-vel      x-accl      y-accl      z-accl      x-coor      y-coor      z-coor
    22626  1.48842E-01 9.91487E-02-2.21967E+01 1.60879E-01 1.39862E-01-2.11434E+00 7.72986E-02 4.71041E-02 5.95100E-01 4.81130E+01-2.19306E+01-1.48582E+01



 n o d a l   p r i n t   o u t   f o r   t i m e  s t e p   14802                              ( at time 7.3997594E+00 )

 nodal point  x-rot      y-rot       z-rot       x-rot vel   y-rot vel   z-rot vel   x-rot acc   y-rot acc   z-rot acc
    22626  4.81408E-03 8.98217E-03-1.48151E-03 4.66870E-03 7.33448E-03-1.89265E-03 2.70084E-03 2.94631E-03-9.76659E-04



 n o d a l   p r i n t   o u t   f o r   t i m e  s t e p   15002                              ( at time 7.4997494E+00 )

 nodal point  x-disp     y-disp      z-disp      x-vel       y-vel       z-vel      x-accl      y-accl      z-accl      x-coor      y-coor      z-coor
    22626  1.65200E-01 1.13239E-01-2.24051E+01 1.66249E-01 1.42919E-01-2.05347E+00 5.37073E-02 3.05709E-02 6.08841E-01 4.81294E+01-2.19166E+01-1.50666E+01



 n o d a l   p r i n t   o u t   f o r   t i m e  s t e p   15002                              ( at time 7.4997494E+00 )

 nodal point  x-rot      y-rot       z-rot       x-rot vel   y-rot vel   z-rot vel   x-rot acc   y-rot acc   z-rot acc
    22626  5.29482E-03 9.73223E-03-1.67522E-03 4.94589E-03 7.65355E-03-1.99684E-03 2.77217E-03 3.19094E-03-1.04198E-03



 n o d a l   p r i n t   o u t   f o r   t i m e  s t e p   15202                              ( at time 7.5997394E+00 )

 nodal point  x-disp     y-disp      z-disp      x-vel       y-vel       z-vel      x-accl      y-accl      z-accl      x-coor      y-coor      z-coor
    22626  1.82037E-01 1.27649E-01-2.26072E+01 1.71748E-01 1.45435E-01-1.98800E+00 5.49877E-02 2.51712E-02 6.54733E-01 4.81462E+01-2.19021E+01-1.52687E+01



 n o d a l   p r i n t   o u t   f o r   t i m e  s t e p   15202                              ( at time 7.5997394E+00 )

 nodal point  x-rot      y-rot       z-rot       x-rot vel   y-rot vel   z-rot vel   x-rot acc   y-rot acc   z-rot acc
    22626  5.80324E-03 1.05147E-02-1.87824E-03 5.24368E-03 7.97215E-03-2.08535E-03 2.97818E-03 3.18639E-03-8.85139E-04



 n o d a l   p r i n t   o u t   f o r   t i m e  s t e p   15402                              ( at time 7.6997294E+00 )

 nodal point  x-disp     y-disp      z-disp      x-vel       y-vel       z-vel      x-accl      y-accl      z-accl      x-coor      y-coor      z-coor
    22626  1.99513E-01 1.42287E-01-2.28026E+01 1.78369E-01 1.46453E-01-1.92238E+00 6.62230E-02 1.01745E-02 6.56294E-01 4.81637E+01-2.18875E+01-1.54641E+01



 n o d a l   p r i n t   o u t   f o r   t i m e  s t e p   15402                              ( at time 7.6997294E+00 )

 nodal point  x-rot      y-rot       z-rot       x-rot vel   y-rot vel   z-rot vel   x-rot acc   y-rot acc   z-rot acc
    22626  6.34346E-03 1.13260E-02-2.09161E-03 5.55140E-03 8.24600E-03-2.18724E-03 3.07752E-03 2.73877E-03-1.01905E-03



 n o d a l   p r i n t   o u t   f o r   t i m e  s t e p   15602                              ( at time 7.7997194E+00 )

 nodal point  x-disp     y-disp      z-disp      x-vel       y-vel       z-vel      x-accl      y-accl      z-accl      x-coor      y-coor      z-coor
    22626  2.17644E-01 1.56904E-01-2.29914E+01 1.84320E-01 1.46757E-01-1.85390E+00 5.95095E-02 3.03806E-03 6.84849E-01 4.81818E+01-2.18729E+01-1.56529E+01



 n o d a l   p r i n t   o u t   f o r   t i m e  s t e p   15602                              ( at time 7.7997194E+00 )

 nodal point  x-rot      y-rot       z-rot       x-rot vel   y-rot vel   z-rot vel   x-rot acc   y-rot acc   z-rot acc
    22626  6.91227E-03 1.21649E-02-2.31237E-03 5.83698E-03 8.50547E-03-2.26557E-03 2.85611E-03 2.59496E-03-7.83368E-04



 n o d a l   p r i n t   o u t   f o r   t i m e  s t e p   15802                              ( at time 7.8997094E+00 )

 nodal point  x-disp     y-disp      z-disp      x-vel       y-vel       z-vel      x-accl      y-accl      z-accl      x-coor      y-coor      z-coor
    22626  2.36365E-01 1.71586E-01-2.31733E+01 1.90026E-01 1.47023E-01-1.78585E+00 5.70690E-02 2.66698E-03 6.80580E-01 4.82005E+01-2.18582E+01-1.58348E+01



 n o d a l   p r i n t   o u t   f o r   t i m e  s t e p   15802                              ( at time 7.8997094E+00 )

 nodal point  x-rot      y-rot       z-rot       x-rot vel   y-rot vel   z-rot vel   x-rot acc   y-rot acc   z-rot acc
    22626  7.51363E-03 1.30285E-02-2.54116E-03 6.19651E-03 8.75319E-03-2.34246E-03 3.59563E-03 2.47748E-03-7.69010E-04



 n o d a l   p r i n t   o u t   f o r   t i m e  s t e p   16002                              ( at time 7.9996994E+00 )

 nodal point  x-disp     y-disp      z-disp      x-vel       y-vel       z-vel      x-accl      y-accl      z-accl      x-coor      y-coor      z-coor
    22626  2.55651E-01 1.86201E-01-2.33483E+01 1.96721E-01 1.45319E-01-1.71489E+00 6.69620E-02-1.70429E-02 7.09593E-01 4.82198E+01-2.18436E+01-1.60098E+01



 n o d a l   p r i n t   o u t   f o r   t i m e  s t e p   16002                              ( at time 7.9996994E+00 )

 nodal point  x-rot      y-rot       z-rot       x-rot vel   y-rot vel   z-rot vel   x-rot acc   y-rot acc   z-rot acc
    22626  8.14832E-03 1.39168E-02-2.77832E-03 6.50521E-03 8.98744E-03-2.42044E-03 3.08733E-03 2.34272E-03-7.79862E-04



 n o d a l   p r i n t   o u t   f o r   t i m e  s t e p   16202                              ( at time 8.0996894E+00 )

 nodal point  x-disp     y-disp      z-disp      x-vel       y-vel       z-vel      x-accl      y-accl      z-accl      x-coor      y-coor      z-coor
    22626  2.75595E-01 2.00629E-01-2.35162E+01 2.02345E-01 1.43060E-01-1.64528E+00 5.62379E-02-2.25968E-02 6.96237E-01 4.82398E+01-2.18292E+01-1.61777E+01



 n o d a l   p r i n t   o u t   f o r   t i m e  s t e p   16202                              ( at time 8.0996894E+00 )

 nodal point  x-rot      y-rot       z-rot       x-rot vel   y-rot vel   z-rot vel   x-rot acc   y-rot acc   z-rot acc
    22626  8.81619E-03 1.48274E-02-3.02191E-03 6.85205E-03 9.20320E-03-2.47137E-03 3.46875E-03 2.15782E-03-5.09345E-04



 n o d a l   p r i n t   o u t   f o r   t i m e  s t e p   16402                              ( at time 8.1996794E+00 )

 nodal point  x-disp     y-disp      z-disp      x-vel       y-vel       z-vel      x-accl      y-accl      z-accl      x-coor      y-coor      z-coor
    22626  2.96045E-01 2.14777E-01-2.36772E+01 2.06939E-01 1.40567E-01-1.57364E+00 4.59458E-02-2.49247E-02 7.16415E-01 4.82602E+01-2.18150E+01-1.63387E+01



 n o d a l   p r i n t   o u t   f o r   t i m e  s t e p   16402                              ( at time 8.1996794E+00 )

 nodal point  x-rot      y-rot       z-rot       x-rot vel   y-rot vel   z-rot vel   x-rot acc   y-rot acc   z-rot acc
    22626  9.51793E-03 1.57590E-02-3.27115E-03 7.18108E-03 9.42944E-03-2.53204E-03 3.29056E-03 2.26255E-03-6.06788E-04



 n o d a l   p r i n t   o u t   f o r   t i m e  s t e p   16602                              ( at time 8.2996694E+00 )

 nodal point  x-disp     y-disp      z-disp      x-vel       y-vel       z-vel      x-accl      y-accl      z-accl      x-coor      y-coor      z-coor
    22626  3.17044E-01 2.28753E-01-2.38309E+01 2.13325E-01 1.37722E-01-1.50190E+00 6.38652E-02-2.84610E-02 7.17505E-01 4.82812E+01-2.18010E+01-1.64924E+01



 n o d a l   p r i n t   o u t   f o r   t i m e  s t e p   16602                              ( at time 8.2996694E+00 )

 nodal point  x-rot      y-rot       z-rot       x-rot vel   y-rot vel   z-rot vel   x-rot acc   y-rot acc   z-rot acc
    22626  1.02561E-02 1.67101E-02-3.52767E-03 7.56080E-03 9.57655E-03-2.59635E-03 3.79763E-03 1.47128E-03-6.43155E-04



 n o d a l   p r i n t   o u t   f o r   t i m e  s t e p   16802                              ( at time 8.3996594E+00 )

 nodal point  x-disp     y-disp      z-disp      x-vel       y-vel       z-vel      x-accl      y-accl      z-accl      x-coor      y-coor      z-coor
    22626  3.38775E-01 2.42278E-01-2.39774E+01 2.20160E-01 1.31562E-01-1.42741E+00 6.83632E-02-6.16067E-02 7.45018E-01 4.83030E+01-2.17875E+01-1.66389E+01



 n o d a l   p r i n t   o u t   f o r   t i m e  s t e p   16802                              ( at time 8.3996594E+00 )

 nodal point  x-rot      y-rot       z-rot       x-rot vel   y-rot vel   z-rot vel   x-rot acc   y-rot acc   z-rot acc
    22626  1.10297E-02 1.76749E-02-3.79085E-03 7.90118E-03 9.73360E-03-2.65573E-03 3.40410E-03 1.57065E-03-5.93822E-04



 n o d a l   p r i n t   o u t   f o r   t i m e  s t e p   17002                              ( at time 8.4996494E+00 )

 nodal point  x-disp     y-disp      z-disp      x-vel       y-vel       z-vel      x-accl      y-accl      z-accl      x-coor      y-coor      z-coor
    22626  3.60984E-01 2.55100E-01-2.41164E+01 2.23876E-01 1.25566E-01-1.35376E+00 3.71598E-02-5.99625E-02 7.36576E-01 4.83252E+01-2.17747E+01-1.67779E+01



 n o d a l   p r i n t   o u t   f o r   t i m e  s t e p   17002                              ( at time 8.4996494E+00 )

 nodal point  x-rot      y-rot       z-rot       x-rot vel   y-rot vel   z-rot vel   x-rot acc   y-rot acc   z-rot acc
    22626  1.18387E-02 1.86558E-02-4.05953E-03 8.29155E-03 9.87819E-03-2.72120E-03 3.90411E-03 1.44602E-03-6.54742E-04



 n o d a l   p r i n t   o u t   f o r   t i m e  s t e p   17202                              ( at time 8.5996394E+00 )

 nodal point  x-disp     y-disp      z-disp      x-vel       y-vel       z-vel      x-accl      y-accl      z-accl      x-coor      y-coor      z-coor
    22626  3.83704E-01 2.67350E-01-2.42480E+01 2.30231E-01 1.17831E-01-1.27863E+00 6.35603E-02-7.73542E-02 7.51300E-01 4.83479E+01-2.17624E+01-1.69095E+01



 n o d a l   p r i n t   o u t   f o r   t i m e  s t e p   17202                              ( at time 8.5996394E+00 )

 nodal point  x-rot      y-rot       z-rot       x-rot vel   y-rot vel   z-rot vel   x-rot acc   y-rot acc   z-rot acc
    22626  1.26857E-02 1.96497E-02-4.33353E-03 8.65106E-03 9.98356E-03-2.76386E-03 3.59550E-03 1.05387E-03-4.26689E-04



 n o d a l   p r i n t   o u t   f o r   t i m e  s t e p   17402                              ( at time 8.6996293E+00 )

 nodal point  x-disp     y-disp      z-disp      x-vel       y-vel       z-vel      x-accl      y-accl      z-accl      x-coor      y-coor      z-coor
    22626  4.07169E-01 2.78799E-01-2.43717E+01 2.38617E-01 1.12144E-01-1.19931E+00 8.38678E-02-5.68756E-02 7.93329E-01 4.83713E+01-2.17510E+01-1.70332E+01



 n o d a l   p r i n t   o u t   f o r   t i m e  s t e p   17402                              ( at time 8.6996293E+00 )

 nodal point  x-rot      y-rot       z-rot       x-rot vel   y-rot vel   z-rot vel   x-rot acc   y-rot acc   z-rot acc
    22626  1.35707E-02 2.06523E-02-4.61479E-03 9.06428E-03 1.00668E-02-2.84790E-03 4.13251E-03 8.32539E-04-8.40414E-04



 n o d a l   p r i n t   o u t   f o r   t i m e  s t e p   17602                              ( at time 8.7996193E+00 )

 nodal point  x-disp     y-disp      z-disp      x-vel       y-vel       z-vel      x-accl      y-accl      z-accl      x-coor      y-coor      z-coor
    22626  4.31279E-01 2.89621E-01-2.44881E+01 2.43648E-01 1.04692E-01-1.12721E+00 5.03166E-02-7.45308E-02 7.21057E-01 4.83955E+01-2.17402E+01-1.71496E+01



 n o d a l   p r i n t   o u t   f o r   t i m e  s t e p   17602                              ( at time 8.7996193E+00 )

 nodal point  x-rot      y-rot       z-rot       x-rot vel   y-rot vel   z-rot vel   x-rot acc   y-rot acc   z-rot acc
    22626  1.44962E-02 2.16623E-02-4.90050E-03 9.43922E-03 1.01532E-02-2.85361E-03 3.74978E-03 8.63535E-04-5.71471E-05



 n o d a l   p r i n t   o u t   f o r   t i m e  s t e p   17802                              ( at time 8.8996093E+00 )

 nodal point  x-disp     y-disp      z-disp      x-vel       y-vel       z-vel      x-accl      y-accl      z-accl      x-coor      y-coor      z-coor
    22626  4.55933E-01 2.99723E-01-2.45970E+01 2.50430E-01 9.74960E-02-1.05125E+00 6.78240E-02-7.19661E-02 7.59678E-01 4.84201E+01-2.17301E+01-1.72585E+01



 n o d a l   p r i n t   o u t   f o r   t i m e  s t e p   17802                              ( at time 8.8996093E+00 )

 nodal point  x-rot      y-rot       z-rot       x-rot vel   y-rot vel   z-rot vel   x-rot acc   y-rot acc   z-rot acc
    22626  1.54585E-02 2.26836E-02-5.19023E-03 9.83020E-03 1.02671E-02-2.91397E-03 3.91025E-03 1.13914E-03-6.03665E-04



 n o d a l   p r i n t   o u t   f o r   t i m e  s t e p   18002                              ( at time 8.9995993E+00 )

 nodal point  x-disp     y-disp      z-disp      x-vel       y-vel       z-vel      x-accl      y-accl      z-accl      x-coor      y-coor      z-coor
    22626  4.81351E-01 3.09188E-01-2.46986E+01 2.58124E-01 9.25786E-02-9.79813E-01 7.69460E-02-4.91793E-02 7.14435E-01 4.84455E+01-2.17206E+01-1.73601E+01



 n o d a l   p r i n t   o u t   f o r   t i m e  s t e p   18002                              ( at time 8.9995993E+00 )

 nodal point  x-rot      y-rot       z-rot       x-rot vel   y-rot vel   z-rot vel   x-rot acc   y-rot acc   z-rot acc
    22626  1.64622E-02 2.37117E-02-5.48500E-03 1.02319E-02 1.02974E-02-2.96971E-03 4.01756E-03 3.03074E-04-5.57453E-04



 n o d a l   p r i n t   o u t   f o r   t i m e  s t e p   18202                              ( at time 9.0995893E+00 )

 nodal point  x-disp     y-disp      z-disp      x-vel       y-vel       z-vel      x-accl      y-accl      z-accl      x-coor      y-coor      z-coor
    22626  5.07655E-01 3.18200E-01-2.47929E+01 2.66826E-01 8.78209E-02-9.06426E-01 8.70268E-02-4.75822E-02 7.33941E-01 4.84718E+01-2.17116E+01-1.74544E+01



 n o d a l   p r i n t   o u t   f o r   t i m e  s t e p   18202                              ( at time 9.0995893E+00 )

 nodal point  x-rot      y-rot       z-rot       x-rot vel   y-rot vel   z-rot vel   x-rot acc   y-rot acc   z-rot acc
    22626  1.75057E-02 2.47430E-02-5.78431E-03 1.06291E-02 1.03625E-02-3.01122E-03 3.97217E-03 6.51908E-04-4.15128E-04



 n o d a l   p r i n t   o u t   f o r   t i m e  s t e p   18402                              ( at time 9.1995793E+00 )

 nodal point  x-disp     y-disp      z-disp      x-vel       y-vel       z-vel      x-accl      y-accl      z-accl      x-coor      y-coor      z-coor
    22626  5.34604E-01 3.26865E-01-2.48802E+01 2.72517E-01 8.34567E-02-8.42547E-01 5.69154E-02-4.36457E-02 6.38860E-01 4.84988E+01-2.17029E+01-1.75417E+01



 n o d a l   p r i n t   o u t   f o r   t i m e  s t e p   18402                              ( at time 9.1995793E+00 )

 nodal point  x-rot      y-rot       z-rot       x-rot vel   y-rot vel   z-rot vel   x-rot acc   y-rot acc   z-rot acc
    22626  1.85906E-02 2.57832E-02-6.08849E-03 1.10262E-02 1.04535E-02-3.03644E-03 3.97191E-03 9.10041E-04-2.52286E-04



 n o d a l   p r i n t   o u t   f o r   t i m e  s t e p   18602                              ( at time 9.2995693E+00 )

 nodal point  x-disp     y-disp      z-disp      x-vel       y-vel       z-vel      x-accl      y-accl      z-accl      x-coor      y-coor      z-coor
    22626  5.62240E-01 3.34961E-01-2.49609E+01 2.81228E-01 7.79753E-02-7.71451E-01 8.71225E-02-5.48203E-02 7.11030E-01 4.85264E+01-2.16948E+01-1.76224E+01



 n o d a l   p r i n t   o u t   f o r   t i m e  s t e p   18602                              ( at time 9.2995693E+00 )

 nodal point  x-rot      y-rot       z-rot       x-rot vel   y-rot vel   z-rot vel   x-rot acc   y-rot acc   z-rot acc
    22626  1.97116E-02 2.68315E-02-6.39337E-03 1.13959E-02 1.05142E-02-3.04586E-03 3.69729E-03 6.06315E-04-9.42035E-05



 n o d a l   p r i n t   o u t   f o r   t i m e  s t e p   18802                              ( at time 9.3995593E+00 )

 nodal point  x-disp     y-disp      z-disp      x-vel       y-vel       z-vel      x-accl      y-accl      z-accl      x-coor      y-coor      z-coor
    22626  5.90784E-01 3.42883E-01-2.50346E+01 2.88723E-01 7.71056E-02-7.05413E-01 7.49551E-02-8.69764E-03 6.60442E-01 4.85550E+01-2.16869E+01-1.76961E+01



 n o d a l   p r i n t   o u t   f o r   t i m e  s t e p   18802                              ( at time 9.3995593E+00 )

 nodal point  x-rot      y-rot       z-rot       x-rot vel   y-rot vel   z-rot vel   x-rot acc   y-rot acc   z-rot acc
    22626  2.08742E-02 2.78845E-02-6.70464E-03 1.18435E-02 1.05730E-02-3.10027E-03 4.47624E-03 5.88180E-04-5.44089E-04



 n o d a l   p r i n t   o u t   f o r   t i m e  s t e p   19002                              ( at time 9.4995493E+00 )

 nodal point  x-disp     y-disp      z-disp      x-vel       y-vel       z-vel      x-accl      y-accl      z-accl      x-coor      y-coor      z-coor
    22626  6.19944E-01 3.50650E-01-2.51019E+01 2.96248E-01 7.67840E-02-6.40637E-01 7.52549E-02-3.21644E-03 6.47827E-01 4.85841E+01-2.16791E+01-1.77634E+01



 n o d a l   p r i n t   o u t   f o r   t i m e  s t e p   19002                              ( at time 9.4995493E+00 )

 nodal point  x-rot      y-rot       z-rot       x-rot vel   y-rot vel   z-rot vel   x-rot acc   y-rot acc   z-rot acc
    22626  2.20768E-02 2.89426E-02-7.01926E-03 1.21990E-02 1.06004E-02-3.14806E-03 3.55572E-03 2.74433E-04-4.77996E-04



 n o d a l   p r i n t   o u t   f o r   t i m e  s t e p   19202                              ( at time 9.5995393E+00 )

 nodal point  x-disp     y-disp      z-disp      x-vel       y-vel       z-vel      x-accl      y-accl      z-accl      x-coor      y-coor      z-coor
    22626  6.49993E-01 3.58225E-01-2.51627E+01 3.03333E-01 7.48166E-02-5.74949E-01 7.08603E-02-1.96759E-02 6.56947E-01 4.86142E+01-2.16716E+01-1.78242E+01



 n o d a l   p r i n t   o u t   f o r   t i m e  s t e p   19202                              ( at time 9.5995393E+00 )

 nodal point  x-rot      y-rot       z-rot       x-rot vel   y-rot vel   z-rot vel   x-rot acc   y-rot acc   z-rot acc
    22626  2.33152E-02 3.00054E-02-7.33758E-03 1.26049E-02 1.06719E-02-3.18953E-03 4.05875E-03 7.15079E-04-4.14719E-04



 n o d a l   p r i n t   o u t   f o r   t i m e  s t e p   19402                              ( at time 9.6995293E+00 )

 nodal point  x-disp     y-disp      z-disp      x-vel       y-vel       z-vel      x-accl      y-accl      z-accl      x-coor      y-coor      z-coor
    22626  6.80789E-01 3.65700E-01-2.52172E+01 3.14244E-01 7.25313E-02-5.14234E-01 1.09121E-01-2.28554E-02 6.07204E-01 4.86450E+01-2.16641E+01-1.78787E+01



 n o d a l   p r i n t   o u t   f o r   t i m e  s t e p   19402                              ( at time 9.6995293E+00 )

 nodal point  x-rot      y-rot       z-rot       x-rot vel   y-rot vel   z-rot vel   x-rot acc   y-rot acc   z-rot acc
    22626  2.45943E-02 3.10726E-02-7.65853E-03 1.29366E-02 1.06979E-02-3.19760E-03 3.31758E-03 2.59418E-04-8.07468E-05



 n o d a l   p r i n t   o u t   f o r   t i m e  s t e p   19602                              ( at time 9.7995193E+00 )

 nodal point  x-disp     y-disp      z-disp      x-vel       y-vel       z-vel      x-accl      y-accl      z-accl      x-coor      y-coor      z-coor
    22626  7.12240E-01 3.73104E-01-2.52653E+01 3.18610E-01 7.61694E-02-4.50983E-01 4.36687E-02 3.63853E-02 6.32578E-01 4.86764E+01-2.16567E+01-1.79268E+01



 n o d a l   p r i n t   o u t   f o r   t i m e  s t e p   19602                              ( at time 9.7995193E+00 )

 nodal point  x-rot      y-rot       z-rot       x-rot vel   y-rot vel   z-rot vel   x-rot acc   y-rot acc   z-rot acc
    22626  2.59102E-02 3.21432E-02-7.98597E-03 1.34002E-02 1.07211E-02-3.28473E-03 4.63608E-03 2.32836E-04-8.71399E-04



 n o d a l   p r i n t   o u t   f o r   t i m e  s t e p   19802                              ( at time 9.8995093E+00 )

 nodal point  x-disp     y-disp      z-disp      x-vel       y-vel       z-vel      x-accl      y-accl      z-accl      x-coor      y-coor      z-coor
    22626  7.44415E-01 3.80711E-01-2.53076E+01 3.27177E-01 7.05173E-02-3.92200E-01 8.56716E-02-5.65273E-02 5.87889E-01 4.87086E+01-2.16491E+01-1.79691E+01



 n o d a l   p r i n t   o u t   f o r   t i m e  s t e p   19802                              ( at time 9.8995093E+00 )

 nodal point  x-rot      y-rot       z-rot       x-rot vel   y-rot vel   z-rot vel   x-rot acc   y-rot acc   z-rot acc
    22626  2.72658E-02 3.32153E-02-8.31604E-03 1.36537E-02 1.07527E-02-3.27365E-03 2.53516E-03 3.15312E-04 1.10815E-04



 n o d a l   p r i n t   o u t   f o r   t i m e  s t e p   20003                              ( at time 9.9999992E+00 )

 nodal point  x-disp     y-disp      z-disp      x-vel       y-vel       z-vel      x-accl      y-accl      z-accl      x-coor      y-coor      z-coor
[...]
    22626  2.60740E-01 1.56769E-01-7.14812E-02 1.89535E-02 8.99524E-03-6.31239E-03 6.01876E-05 1.13278E-04 3.64744E-04



 n o d a l   p r i n t   o u t   f o r   t i m e  s t e p   45205                              ( at time 2.2599738E+01 )

 nodal point  x-disp     y-disp      z-disp      x-vel       y-vel       z-vel      x-accl      y-accl      z-accl      x-coor      y-coor      z-coor
    22626  4.68741E+00 1.20670E+00-1.99509E+01 2.50377E-01 6.74200E-03 5.13798E-01 1.22876E-02-2.10617E-02-2.59602E-03 5.26516E+01-2.08231E+01-1.26124E+01



 n o d a l   p r i n t   o u t   f o r   t i m e  s t e p   45205                              ( at time 2.2599738E+01 )

 nodal point  x-rot      y-rot       z-rot       x-rot vel   y-rot vel   z-rot vel   x-rot acc   y-rot acc   z-rot acc
    22626  2.62636E-01 1.57669E-01-7.21104E-02 1.89532E-02 9.00432E-03-6.27810E-03-2.96188E-06 9.08123E-05 3.42888E-04



 n o d a l   p r i n t   o u t   f o r   t i m e  s t e p   45405                              ( at time 2.2699728E+01 )

 nodal point  x-disp     y-disp      z-disp      x-vel       y-vel       z-vel      x-accl      y-accl      z-accl      x-coor      y-coor      z-coor
    22626  4.71252E+00 1.20724E+00-1.98995E+01 2.51958E-01 4.28658E-03 5.12966E-01 1.58122E-02-2.45569E-02-8.32769E-03 5.26767E+01-2.08225E+01-1.25610E+01



 n o d a l   p r i n t   o u t   f o r   t i m e  s t e p   45405                              ( at time 2.2699728E+01 )

 nodal point  x-rot      y-rot       z-rot       x-rot vel   y-rot vel   z-rot vel   x-rot acc   y-rot acc   z-rot acc
    22626  2.64531E-01 1.58570E-01-7.27358E-02 1.89574E-02 9.02188E-03-6.23863E-03 4.13553E-05 1.75648E-04 3.94813E-04



 n o d a l   p r i n t   o u t   f o r   t i m e  s t e p   45605                              ( at time 2.2799718E+01 )

 nodal point  x-disp     y-disp      z-disp      x-vel       y-vel       z-vel      x-accl      y-accl      z-accl      x-coor      y-coor      z-coor
    22626  4.73778E+00 1.20754E+00-1.98483E+01 2.53489E-01 1.64523E-03 5.12129E-01 1.53135E-02-2.64159E-02-8.36568E-03 5.27020E+01-2.08222E+01-1.25098E+01



 n o d a l   p r i n t   o u t   f o r   t i m e  s t e p   45605                              ( at time 2.2799718E+01 )

 nodal point  x-rot      y-rot       z-rot       x-rot vel   y-rot vel   z-rot vel   x-rot acc   y-rot acc   z-rot acc
    22626  2.66427E-01 1.59473E-01-7.33573E-02 1.89696E-02 9.03154E-03-6.19906E-03 1.22350E-04 9.65497E-05 3.95685E-04



 n o d a l   p r i n t   o u t   f o r   t i m e  s t e p   45805                              ( at time 2.2899708E+01 )

 nodal point  x-disp     y-disp      z-disp      x-vel       y-vel       z-vel      x-accl      y-accl      z-accl      x-coor      y-coor      z-coor
    22626  4.76319E+00 1.20759E+00-1.97971E+01 2.54847E-01-8.14375E-04 5.11513E-01 1.35794E-02-2.45988E-02-6.16857E-03 5.27274E+01-2.08222E+01-1.24586E+01



 n o d a l   p r i n t   o u t   f o r   t i m e  s t e p   45805                              ( at time 2.2899708E+01 )

 nodal point  x-rot      y-rot       z-rot       x-rot vel   y-rot vel   z-rot vel   x-rot acc   y-rot acc   z-rot acc
    22626  2.68324E-01 1.60376E-01-7.39751E-02 1.89702E-02 9.03900E-03-6.15610E-03 6.01701E-06 7.46072E-05 4.29648E-04



 n o d a l   p r i n t   o u t   f o r   t i m e  s t e p   46005                              ( at time 2.2999698E+01 )

 nodal point  x-disp     y-disp      z-disp      x-vel       y-vel       z-vel      x-accl      y-accl      z-accl      x-coor      y-coor      z-coor
    22626  4.78873E+00 1.20740E+00-1.97460E+01 2.56016E-01-3.09906E-03 5.10003E-01 1.16928E-02-2.28490E-02-1.50945E-02 5.27529E+01-2.08224E+01-1.24075E+01



 n o d a l   p r i n t   o u t   f o r   t i m e  s t e p   46005                              ( at time 2.2999698E+01 )

 nodal point  x-rot      y-rot       z-rot       x-rot vel   y-rot vel   z-rot vel   x-rot acc   y-rot acc   z-rot acc
    22626  2.70221E-01 1.61280E-01-7.45888E-02 1.89689E-02 9.04620E-03-6.11320E-03-1.29838E-05 7.20723E-05 4.29016E-04



 n o d a l   p r i n t   o u t   f o r   t i m e  s t e p   46205                              ( at time 2.3099688E+01 )

 nodal point  x-disp     y-disp      z-disp      x-vel       y-vel       z-vel      x-accl      y-accl      z-accl      x-coor      y-coor      z-coor
    22626  4.81441E+00 1.20695E+00-1.96951E+01 2.57550E-01-5.78254E-03 5.08392E-01 1.53383E-02-2.68378E-02-1.61177E-02 5.27786E+01-2.08228E+01-1.23566E+01



 n o d a l   p r i n t   o u t   f o r   t i m e  s t e p   46205                              ( at time 2.3099688E+01 )

 nodal point  x-rot      y-rot       z-rot       x-rot vel   y-rot vel   z-rot vel   x-rot acc   y-rot acc   z-rot acc
    22626  2.72118E-01 1.62185E-01-7.51985E-02 1.89753E-02 9.04614E-03-6.08211E-03 6.38027E-05-6.70626E-07 3.10929E-04



 n o d a l   p r i n t   o u t   f o r   t i m e  s t e p   46405                              ( at time 2.3199678E+01 )

 nodal point  x-disp     y-disp      z-disp      x-vel       y-vel       z-vel      x-accl      y-accl      z-accl      x-coor      y-coor      z-coor
    22626  4.84024E+00 1.20624E+00-1.96444E+01 2.59202E-01-8.28382E-03 5.05865E-01 1.65236E-02-2.50150E-02-2.52723E-02 5.28044E+01-2.08235E+01-1.23059E+01



 n o d a l   p r i n t   o u t   f o r   t i m e  s t e p   46405                              ( at time 2.3199678E+01 )

 nodal point  x-rot      y-rot       z-rot       x-rot vel   y-rot vel   z-rot vel   x-rot acc   y-rot acc   z-rot acc
    22626  2.74015E-01 1.63089E-01-7.58043E-02 1.89698E-02 9.04127E-03-6.03888E-03-5.52325E-05-4.86754E-05 4.32387E-04



 n o d a l   p r i n t   o u t   f o r   t i m e  s t e p   46605                              ( at time 2.3299668E+01 )

 nodal point  x-disp     y-disp      z-disp      x-vel       y-vel       z-vel      x-accl      y-accl      z-accl      x-coor      y-coor      z-coor
    22626  4.86622E+00 1.20525E+00-1.95940E+01 2.60793E-01-1.15423E-02 5.02625E-01 1.59058E-02-3.25886E-02-3.23951E-02 5.28304E+01-2.08245E+01-1.22555E+01



 n o d a l   p r i n t   o u t   f o r   t i m e  s t e p   46605                              ( at time 2.3299668E+01 )

 nodal point  x-rot      y-rot       z-rot       x-rot vel   y-rot vel   z-rot vel   x-rot acc   y-rot acc   z-rot acc
    22626  2.75911E-01 1.63993E-01-7.64057E-02 1.89523E-02 9.02688E-03-5.99229E-03-1.74102E-04-1.43924E-04 4.65941E-04



 n o d a l   p r i n t   o u t   f o r   t i m e  s t e p   46805                              ( at time 2.3399658E+01 )

 nodal point  x-disp     y-disp      z-disp      x-vel       y-vel       z-vel      x-accl      y-accl      z-accl      x-coor      y-coor      z-coor
    22626  4.89238E+00 1.20393E+00-1.95439E+01 2.62456E-01-1.51769E-02 4.97752E-01 1.66363E-02-3.63487E-02-4.87384E-02 5.28566E+01-2.08259E+01-1.22054E+01



 n o d a l   p r i n t   o u t   f o r   t i m e  s t e p   46805                              ( at time 2.3399658E+01 )

 nodal point  x-rot      y-rot       z-rot       x-rot vel   y-rot vel   z-rot vel   x-rot acc   y-rot acc   z-rot acc
    22626  2.77805E-01 1.64894E-01-7.70028E-02 1.89242E-02 9.00803E-03-5.94920E-03-2.81378E-04-1.88498E-04 4.30962E-04



 n o d a l   p r i n t   o u t   f o r   t i m e  s t e p   47005                              ( at time 2.3499648E+01 )

 nodal point  x-disp     y-disp      z-disp      x-vel       y-vel       z-vel      x-accl      y-accl      z-accl      x-coor      y-coor      z-coor
    22626  4.91873E+00 1.20223E+00-1.94944E+01 2.64133E-01-1.88196E-02 4.92639E-01 1.67713E-02-3.64310E-02-5.11309E-02 5.28829E+01-2.08276E+01-1.21559E+01



 n o d a l   p r i n t   o u t   f o r   t i m e  s t e p   47005                              ( at time 2.3499648E+01 )

 nodal point  x-rot      y-rot       z-rot       x-rot vel   y-rot vel   z-rot vel   x-rot acc   y-rot acc   z-rot acc
    22626  2.79695E-01 1.65793E-01-7.75954E-02 1.88867E-02 8.97422E-03-5.90390E-03-3.74817E-04-3.38082E-04 4.53041E-04



 n o d a l   p r i n t   o u t   f o r   t i m e  s t e p   47205                              ( at time 2.3599638E+01 )

 nodal point  x-disp     y-disp      z-disp      x-vel       y-vel       z-vel      x-accl      y-accl      z-accl      x-coor      y-coor      z-coor
    22626  4.94525E+00 1.20014E+00-1.94455E+01 2.66398E-01-2.29880E-02 4.86419E-01 2.26511E-02-4.16887E-02-6.22118E-02 5.29094E+01-2.08297E+01-1.21070E+01



 n o d a l   p r i n t   o u t   f o r   t i m e  s t e p   47205                              ( at time 2.3599638E+01 )

 nodal point  x-rot      y-rot       z-rot       x-rot vel   y-rot vel   z-rot vel   x-rot acc   y-rot acc   z-rot acc
    22626  2.81582E-01 1.66688E-01-7.81829E-02 1.88382E-02 8.93035E-03-5.85190E-03-4.85440E-04-4.38767E-04 5.20061E-04



 n o d a l   p r i n t   o u t   f o r   t i m e  s t e p   47405                              ( at time 2.3699628E+01 )

 nodal point  x-disp     y-disp      z-disp      x-vel       y-vel       z-vel      x-accl      y-accl      z-accl      x-coor      y-coor      z-coor
    22626  4.97196E+00 1.19762E+00-1.93972E+01 2.68198E-01-2.73074E-02 4.78948E-01 1.80061E-02-4.31979E-02-7.47123E-02 5.29361E+01-2.08322E+01-1.20587E+01



 n o d a l   p r i n t   o u t   f o r   t i m e  s t e p   47405                              ( at time 2.3699628E+01 )

 nodal point  x-rot      y-rot       z-rot       x-rot vel   y-rot vel   z-rot vel   x-rot acc   y-rot acc   z-rot acc
    22626  2.83462E-01 1.67579E-01-7.87658E-02 1.87788E-02 8.87981E-03-5.80826E-03-5.93791E-04-5.05428E-04 4.36434E-04



 n o d a l   p r i n t   o u t   f o r   t i m e  s t e p   47605                              ( at time 2.3799618E+01 )

 nodal point  x-disp     y-disp      z-disp      x-vel       y-vel       z-vel      x-accl      y-accl      z-accl      x-coor      y-coor      z-coor
    22626  4.99887E+00 1.19469E+00-1.93497E+01 2.69985E-01-3.14047E-02 4.71385E-01 1.78667E-02-4.09773E-02-7.56470E-02 5.29630E+01-2.08351E+01-1.20112E+01



 n o d a l   p r i n t   o u t   f o r   t i m e  s t e p   47605                              ( at time 2.3799618E+01 )

 nodal point  x-rot      y-rot       z-rot       x-rot vel   y-rot vel   z-rot vel   x-rot acc   y-rot acc   z-rot acc
    22626  2.85336E-01 1.68464E-01-7.93443E-02 1.87121E-02 8.82055E-03-5.75622E-03-6.66770E-04-5.92741E-04 5.20429E-04



 n o d a l   p r i n t   o u t   f o r   t i m e  s t e p   47805                              ( at time 2.3899608E+01 )

 nodal point  x-disp     y-disp      z-disp      x-vel       y-vel       z-vel      x-accl      y-accl      z-accl      x-coor      y-coor      z-coor
    22626  5.02597E+00 1.19133E+00-1.93030E+01 2.71956E-01-3.56480E-02 4.63516E-01 1.97175E-02-4.24367E-02-7.86964E-02 5.29902E+01-2.08385E+01-1.19645E+01



 n o d a l   p r i n t   o u t   f o r   t i m e  s t e p   47805                              ( at time 2.3899608E+01 )

 nodal point  x-rot      y-rot       z-rot       x-rot vel   y-rot vel   z-rot vel   x-rot acc   y-rot acc   z-rot acc
    22626  2.87204E-01 1.69343E-01-7.99174E-02 1.86387E-02 8.76250E-03-5.70766E-03-7.34415E-04-5.80537E-04 4.85692E-04



 n o d a l   p r i n t   o u t   f o r   t i m e  s t e p   48005                              ( at time 2.3999598E+01 )

 nodal point  x-disp     y-disp      z-disp      x-vel       y-vel       z-vel      x-accl      y-accl      z-accl      x-coor      y-coor      z-coor
    22626  5.05328E+00 1.18758E+00-1.92571E+01 2.73973E-01-3.93203E-02 4.54564E-01 2.01733E-02-3.67271E-02-8.95230E-02 5.30175E+01-2.08422E+01-1.19186E+01



 n o d a l   p r i n t   o u t   f o r   t i m e  s t e p   48005                              ( at time 2.3999598E+01 )

 nodal point  x-rot      y-rot       z-rot       x-rot vel   y-rot vel   z-rot vel   x-rot acc   y-rot acc   z-rot acc
    22626  2.89064E-01 1.70216E-01-8.04861E-02 1.85638E-02 8.69387E-03-5.66662E-03-7.49090E-04-6.86368E-04 4.10437E-04



 n o d a l   p r i n t   o u t   f o r   t i m e  s t e p   48205                              ( at time 2.4099588E+01 )

 nodal point  x-disp     y-disp      z-disp      x-vel       y-vel       z-vel      x-accl      y-accl      z-accl      x-coor      y-coor      z-coor
    22626  5.08075E+00 1.18348E+00-1.92120E+01 2.75717E-01-4.25584E-02 4.45934E-01 1.74354E-02-3.23843E-02-8.63157E-02 5.30449E+01-2.08463E+01-1.18735E+01



 n o d a l   p r i n t   o u t   f o r   t i m e  s t e p   48205                              ( at time 2.4099588E+01 )

 nodal point  x-rot      y-rot       z-rot       x-rot vel   y-rot vel   z-rot vel   x-rot acc   y-rot acc   z-rot acc
    22626  2.90917E-01 1.71082E-01-8.10503E-02 1.84930E-02 8.62560E-03-5.61945E-03-7.07721E-04-6.82769E-04 4.71739E-04



 n o d a l   p r i n t   o u t   f o r   t i m e  s t e p   48405                              ( at time 2.4199578E+01 )

 nodal point  x-disp     y-disp      z-disp      x-vel       y-vel       z-vel      x-accl      y-accl      z-accl      x-coor      y-coor      z-coor
    22626  5.10839E+00 1.17907E+00-1.91679E+01 2.77324E-01-4.55094E-02 4.37331E-01 1.60733E-02-2.95128E-02-8.60384E-02 5.30726E+01-2.08507E+01-1.18294E+01



 n o d a l   p r i n t   o u t   f o r   t i m e  s t e p   48405                              ( at time 2.4199578E+01 )

 nodal point  x-rot      y-rot       z-rot       x-rot vel   y-rot vel   z-rot vel   x-rot acc   y-rot acc   z-rot acc
    22626  2.92762E-01 1.71941E-01-8.16101E-02 1.84146E-02 8.55318E-03-5.57721E-03-7.84298E-04-7.24258E-04 4.22378E-04



 n o d a l   p r i n t   o u t   f o r   t i m e  s t e p   48605                              ( at time 2.4299568E+01 )

 nodal point  x-disp     y-disp      z-disp      x-vel       y-vel       z-vel      x-accl      y-accl      z-accl      x-coor      y-coor      z-coor
    22626  5.13619E+00 1.17440E+00-1.91246E+01 2.78658E-01-4.77893E-02 4.28569E-01 1.33398E-02-2.28016E-02-8.76292E-02 5.31004E+01-2.08554E+01-1.17861E+01



 n o d a l   p r i n t   o u t   f o r   t i m e  s t e p   48605                              ( at time 2.4299568E+01 )

 nodal point  x-rot      y-rot       z-rot       x-rot vel   y-rot vel   z-rot vel   x-rot acc   y-rot acc   z-rot acc
    22626  2.94599E-01 1.72793E-01-8.21662E-02 1.83412E-02 8.48903E-03-5.54351E-03-7.34117E-04-6.41544E-04 3.37095E-04



 n o d a l   p r i n t   o u t   f o r   t i m e  s t e p   48805                              ( at time 2.4399558E+01 )

 nodal point  x-disp     y-disp      z-disp      x-vel       y-vel       z-vel      x-accl      y-accl      z-accl      x-coor      y-coor      z-coor
    22626  5.16412E+00 1.16952E+00-1.90821E+01 2.79734E-01-4.96133E-02 4.20389E-01 1.07662E-02-1.82418E-02-8.18077E-02 5.31283E+01-2.08603E+01-1.17436E+01



 n o d a l   p r i n t   o u t   f o r   t i m e  s t e p   48805                              ( at time 2.4399558E+01 )

 nodal point  x-rot      y-rot       z-rot       x-rot vel   y-rot vel   z-rot vel   x-rot acc   y-rot acc   z-rot acc
    22626  2.96430E-01 1.73638E-01-8.27186E-02 1.82755E-02 8.41898E-03-5.50545E-03-6.57537E-04-7.00605E-04 3.80569E-04



 n o d a l   p r i n t   o u t   f o r   t i m e  s t e p   49006                              ( at time 2.4500048E+01 )

 nodal point  x-disp     y-disp      z-disp      x-vel       y-vel       z-vel      x-accl      y-accl      z-accl      x-coor      y-coor      z-coor
    22626  5.19228E+00 1.16448E+00-1.90403E+01 2.80748E-01-5.09058E-02 4.12202E-01 1.00889E-02-1.28622E-02-8.14659E-02 5.31565E+01-2.08653E+01-1.17018E+01



 n o d a l   p r i n t   o u t   f o r   t i m e  s t e p   49006                              ( at time 2.4500048E+01 )

 nodal point  x-rot      y-rot       z-rot       x-rot vel   y-rot vel   z-rot vel   x-rot acc   y-rot acc   z-rot acc
    22626  2.98263E-01 1.74480E-01-8.32704E-02 1.82071E-02 8.35254E-03-5.47336E-03-6.80563E-04-6.61175E-04 3.19341E-04



 n o d a l   p r i n t   o u t   f o r   t i m e  s t e p   49206                              ( at time 2.4600038E+01 )

 nodal point  x-disp     y-disp      z-disp      x-vel       y-vel       z-vel      x-accl      y-accl      z-accl      x-coor      y-coor      z-coor
    22626  5.22038E+00 1.15935E+00-1.89995E+01 2.81421E-01-5.16657E-02 4.04885E-01 6.72998E-03-7.59965E-03-7.31803E-02 5.31846E+01-2.08704E+01-1.16610E+01



 n o d a l   p r i n t   o u t   f o r   t i m e  s t e p   49206                              ( at time 2.4600038E+01 )

 nodal point  x-rot      y-rot       z-rot       x-rot vel   y-rot vel   z-rot vel   x-rot acc   y-rot acc   z-rot acc
    22626  3.00080E-01 1.75312E-01-8.38166E-02 1.81489E-02 8.28902E-03-5.44411E-03-5.81944E-04-6.35220E-04 2.92537E-04



 n o d a l   p r i n t   o u t   f o r   t i m e  s t e p   49406                              ( at time 2.4700028E+01 )

 nodal point  x-disp     y-disp      z-disp      x-vel       y-vel       z-vel      x-accl      y-accl      z-accl      x-coor      y-coor      z-coor
    22626  5.24853E+00 1.15416E+00-1.89594E+01 2.81569E-01-5.20911E-02 3.97587E-01 1.47776E-03-4.25427E-03-7.29868E-02 5.32127E+01-2.08756E+01-1.16209E+01



 n o d a l   p r i n t   o u t   f o r   t i m e  s t e p   49406                              ( at time 2.4700028E+01 )

 nodal point  x-rot      y-rot       z-rot       x-rot vel   y-rot vel   z-rot vel   x-rot acc   y-rot acc   z-rot acc
    22626  3.01892E-01 1.76138E-01-8.43597E-02 1.80800E-02 8.22187E-03-5.41661E-03-6.89125E-04-6.71614E-04 2.75083E-04



 n o d a l   p r i n t   o u t   f o r   t i m e  s t e p   49606                              ( at time 2.4800018E+01 )

 nodal point  x-disp     y-disp      z-disp      x-vel       y-vel       z-vel      x-accl      y-accl      z-accl      x-coor      y-coor      z-coor
    22626  5.27673E+00 1.14893E+00-1.89200E+01 2.82124E-01-5.24823E-02 3.90915E-01 5.54970E-03-3.91251E-03-6.67287E-02 5.32409E+01-2.08809E+01-1.15815E+01



 n o d a l   p r i n t   o u t   f o r   t i m e  s t e p   49606                              ( at time 2.4800018E+01 )

 nodal point  x-rot      y-rot       z-rot       x-rot vel   y-rot vel   z-rot vel   x-rot acc   y-rot acc   z-rot acc
    22626  3.03696E-01 1.76957E-01-8.49001E-02 1.80186E-02 8.16578E-03-5.39506E-03-6.13928E-04-5.60912E-04 2.15453E-04



 n o d a l   p r i n t   o u t   f o r   t i m e  s t e p   49806                              ( at time 2.4900008E+01 )

 nodal point  x-disp     y-disp      z-disp      x-vel       y-vel       z-vel      x-accl      y-accl      z-accl      x-coor      y-coor      z-coor
    22626  5.30495E+00 1.14370E+00-1.88812E+01 2.82309E-01-5.23225E-02 3.84368E-01 1.85153E-03 1.59825E-03-6.54752E-02 5.32691E+01-2.08861E+01-1.15427E+01



 n o d a l   p r i n t   o u t   f o r   t i m e  s t e p   49806                              ( at time 2.4900008E+01 )

 nodal point  x-rot      y-rot       z-rot       x-rot vel   y-rot vel   z-rot vel   x-rot acc   y-rot acc   z-rot acc
    22626  3.05495E-01 1.77771E-01-8.54387E-02 1.79670E-02 8.10821E-03-5.37522E-03-5.16177E-04-5.75817E-04 1.98459E-04



 n o d a l   p r i n t   o u t   f o r   t i m e  s t e p   50006                              ( at time 2.4999998E+01 )

 nodal point  x-disp     y-disp      z-disp      x-vel       y-vel       z-vel      x-accl      y-accl      z-accl      x-coor      y-coor      z-coor
    22626  5.33318E+00 1.13849E+00-1.88431E+01 2.82617E-01-5.17979E-02 3.78679E-01 3.07678E-03 5.24655E-03-5.68966E-02 5.32974E+01-2.08913E+01-1.15045E+01



 n o d a l   p r i n t   o u t   f o r   t i m e  s t e p   50006                              ( at time 2.4999998E+01 )

 nodal point  x-rot      y-rot       z-rot       x-rot vel   y-rot vel   z-rot vel   x-rot acc   y-rot acc   z-rot acc
    22626  3.07289E-01 1.78579E-01-8.59748E-02 1.79223E-02 8.06296E-03-5.35826E-03-4.47020E-04-4.52459E-04 1.69600E-04
