 LSTC 50th% Full_FE H-III Dummy (Beta Version, February 17, 2019)        
                    ls-dyna smp s R16 R16.0_619_d222963 date 03/18/2025

{BEGIN LEGEND}
 Entity #        Title
    22626                                                                                     
{END LEGEND}




 n o d a l   p r i n t   o u t   f o r   t i m e  s t e p       1                              ( at time 0.0000000E+00 )

 nodal point  x-disp     y-disp      z-disp      x-vel       y-vel       z-vel      x-accl      y-accl      z-accl      x-coor      y-coor      z-coor
    22626  0.00000E+00 0.00000E+00 0.00000E+00 0.00000E+00 0.00000E+00-3.12000E+00 0.00000E+00 0.00000E+00 0.00000E+00 4.79642E+01-2.20298E+01 7.33850E+00



 n o d a l   p r i n t   o u t   f o r   t i m e  s t e p       1                              ( at time 0.0000000E+00 )

 nodal point  x-rot      y-rot       z-rot       x-rot vel   y-rot vel   z-rot vel   x-rot acc   y-rot acc   z-rot acc
    22626  0.00000E+00 0.00000E+00 0.00000E+00 0.00000E+00 0.00000E+00 0.00000E+00 0.00000E+00 0.00000E+00 0.00000E+00



 n o d a l   p r i n t   o u t   f o r   t i m e  s t e p     201                              ( at time 9.9989993E-02 )

 nodal point  x-disp     y-disp      z-disp      x-vel       y-vel       z-vel      x-accl      y-accl      z-accl      x-coor      y-coor      z-coor
    22626  8.34472E-07-4.04349E-06-3.12016E-01 4.76784E-05-4.96380E-04-3.12074E+00 4.76832E-04-4.96429E-03-7.42748E-03 4.79642E+01-2.20298E+01 7.02648E+00



 n o d a l   p r i n t   o u t   f o r   t i m e  s t e p     201                              ( at time 9.9989993E-02 )

 nodal point  x-rot      y-rot       z-rot       x-rot vel   y-rot vel   z-rot vel   x-rot acc   y-rot acc   z-rot acc
    22626  9.60307E-09 3.04028E-08 5.27219E-08 1.30688E-06 2.72343E-06 5.21456E-06 1.30701E-05 2.72370E-05 5.21508E-05



 n o d a l   p r i n t   o u t   f o r   t i m e  s t e p     401                              ( at time 1.9997999E-01 )

 nodal point  x-disp     y-disp      z-disp      x-vel       y-vel       z-vel      x-accl      y-accl      z-accl      x-coor      y-coor      z-coor
    22626 -5.12694E-05-5.21497E-04-6.23853E-01-1.09597E-03-1.11135E-02-3.11558E+00-1.14376E-02-1.06182E-01 5.16085E-02 4.79641E+01-2.20303E+01 6.71465E+00



 n o d a l   p r i n t   o u t   f o r   t i m e  s t e p     401                              ( at time 1.9997999E-01 )

 nodal point  x-rot      y-rot       z-rot       x-rot vel   y-rot vel   z-rot vel   x-rot acc   y-rot acc   z-rot acc
    22626  4.60638E-07 1.33007E-06 2.50294E-06 2.66213E-06 1.90824E-05 3.49936E-05 1.35539E-05 1.63606E-04 2.97820E-04



 n o d a l   p r i n t   o u t   f o r   t i m e  s t e p     601                              ( at time 2.9996998E-01 )

 nodal point  x-disp     y-disp      z-disp      x-vel       y-vel       z-vel      x-accl      y-accl      z-accl      x-coor      y-coor      z-coor
    22626 -2.43142E-05-1.97546E-03-9.35239E-01 1.66992E-03-1.60299E-02-3.11416E+00 2.76617E-02-4.91688E-02 1.42469E-02 4.79642E+01-2.20318E+01 6.40326E+00



 n o d a l   p r i n t   o u t   f o r   t i m e  s t e p     601                              ( at time 2.9996998E-01 )

 nodal point  x-rot      y-rot       z-rot       x-rot vel   y-rot vel   z-rot vel   x-rot acc   y-rot acc   z-rot acc
    22626  6.75147E-07 2.41579E-06 4.83437E-06 8.22677E-06 5.37978E-06 1.47445E-05 5.56520E-05-1.37040E-04-2.02512E-04



 n o d a l   p r i n t   o u t   f o r   t i m e  s t e p     801                              ( at time 3.9995997E-01 )

 nodal point  x-disp     y-disp      z-disp      x-vel       y-vel       z-vel      x-accl      y-accl      z-accl      x-coor      y-coor      z-coor
    22626  6.31024E-05-3.56948E-03-1.24663E+00 2.52073E-04-1.73334E-02-3.11356E+00-1.41799E-02-1.30358E-02 5.93245E-03 4.79642E+01-2.20334E+01 6.09187E+00



 n o d a l   p r i n t   o u t   f o r   t i m e  s t e p     801                              ( at time 3.9995997E-01 )

 nodal point  x-rot      y-rot       z-rot       x-rot vel   y-rot vel   z-rot vel   x-rot acc   y-rot acc   z-rot acc
    22626  1.58160E-06 3.66402E-06 6.65273E-06 6.22574E-06 2.37911E-05 3.73381E-05-2.00123E-05 1.84132E-04 2.25959E-04



 n o d a l   p r i n t   o u t   f o r   t i m e  s t e p    1001                              ( at time 4.9994997E-01 )

 nodal point  x-disp     y-disp      z-disp      x-vel       y-vel       z-vel      x-accl      y-accl      z-accl      x-coor      y-coor      z-coor
    22626  8.30829E-05-5.62007E-03-1.55783E+00 9.66386E-04-2.37612E-02-3.11090E+00 7.14385E-03-6.42849E-02 2.66126E-02 4.79643E+01-2.20354E+01 5.78067E+00



 n o d a l   p r i n t   o u t   f o r   t i m e  s t e p    1001                              ( at time 4.9994997E-01 )

 nodal point  x-rot      y-rot       z-rot       x-rot vel   y-rot vel   z-rot vel   x-rot acc   y-rot acc   z-rot acc
    22626  1.49924E-06 6.56951E-06 1.16948E-05-4.83863E-06 4.30921E-05 7.07500E-05-1.10655E-04 1.93029E-04 3.34152E-04



 n o d a l   p r i n t   o u t   f o r   t i m e  s t e p    1201                              ( at time 5.9993996E-01 )

 nodal point  x-disp     y-disp      z-disp      x-vel       y-vel       z-vel      x-accl      y-accl      z-accl      x-coor      y-coor      z-coor
    22626  7.73266E-05-8.11254E-03-1.86889E+00-3.39281E-04-2.59436E-02-3.11093E+00-1.30580E-02-2.18258E-02-2.64671E-04 4.79643E+01-2.20379E+01 5.46961E+00



 n o d a l   p r i n t   o u t   f o r   t i m e  s t e p    1201                              ( at time 5.9993996E-01 )

 nodal point  x-rot      y-rot       z-rot       x-rot vel   y-rot vel   z-rot vel   x-rot acc   y-rot acc   z-rot acc
    22626  1.26816E-06 9.70566E-06 1.74398E-05-2.09539E-06 2.49633E-05 5.05695E-05 2.74351E-05-1.81306E-04-2.01825E-04



 n o d a l   p r i n t   o u t   f o r   t i m e  s t e p    1401                              ( at time 6.9992995E-01 )

 nodal point  x-disp     y-disp      z-disp      x-vel       y-vel       z-vel      x-accl      y-accl      z-accl      x-coor      y-coor      z-coor
    22626  6.86542E-05-1.09788E-02-2.17979E+00 9.59374E-04-3.20624E-02-3.10782E+00 1.29878E-02-6.11942E-02 3.11072E-02 4.79642E+01-2.20408E+01 5.15871E+00



 n o d a l   p r i n t   o u t   f o r   t i m e  s t e p    1401                              ( at time 6.9992995E-01 )

 nodal point  x-rot      y-rot       z-rot       x-rot vel   y-rot vel   z-rot vel   x-rot acc   y-rot acc   z-rot acc
    22626  1.13090E-06 1.27052E-05 2.20989E-05-2.05728E-06 3.54428E-05 5.57056E-05 3.81135E-07 1.04805E-04 5.13659E-05



 n o d a l   p r i n t   o u t   f o r   t i m e  s t e p    1601                              ( at time 7.9991994E-01 )

 nodal point  x-disp     y-disp      z-disp      x-vel       y-vel       z-vel      x-accl      y-accl      z-accl      x-coor      y-coor      z-coor
    22626  2.12415E-04-1.45021E-02-2.49042E+00 1.77270E-03-3.64675E-02-3.10620E+00 8.13410E-03-4.40559E-02 1.61640E-02 4.79644E+01-2.20443E+01 4.84808E+00



 n o d a l   p r i n t   o u t   f o r   t i m e  s t e p    1601                              ( at time 7.9991994E-01 )

 nodal point  x-rot      y-rot       z-rot       x-rot vel   y-rot vel   z-rot vel   x-rot acc   y-rot acc   z-rot acc
    22626  1.07163E-06 1.65490E-05 2.85814E-05 3.21342E-06 4.52584E-05 7.02208E-05 5.27123E-05 9.81665E-05 1.45166E-04



 n o d a l   p r i n t   o u t   f o r   t i m e  s t e p    1801                              ( at time 8.9990994E-01 )

 nodal point  x-disp     y-disp      z-disp      x-vel       y-vel       z-vel      x-accl      y-accl      z-accl      x-coor      y-coor      z-coor
    22626  3.35801E-04-1.81088E-02-2.80110E+00 5.44774E-05-3.60409E-02-3.10765E+00-1.71840E-02 4.26648E-03-1.44711E-02 4.79645E+01-2.20479E+01 4.53740E+00



 n o d a l   p r i n t   o u t   f o r   t i m e  s t e p    1801                              ( at time 8.9990994E-01 )

 nodal point  x-rot      y-rot       z-rot       x-rot vel   y-rot vel   z-rot vel   x-rot acc   y-rot acc   z-rot acc
    22626  1.13044E-06 2.02367E-05 3.48586E-05-1.37846E-06 3.28947E-05 6.01398E-05-4.59234E-05-1.23650E-04-1.00820E-04



 n o d a l   p r i n t   o u t   f o r   t i m e  s t e p    2001                              ( at time 9.9989993E-01 )

 nodal point  x-disp     y-disp      z-disp      x-vel       y-vel       z-vel      x-accl      y-accl      z-accl      x-coor      y-coor      z-coor
    22626  3.01617E-04-2.17728E-02-3.11184E+00-1.03192E-04-3.78035E-02-3.10794E+00-1.57685E-03-1.76275E-02-2.86131E-03 4.79645E+01-2.20516E+01 4.22666E+00



 n o d a l   p r i n t   o u t   f o r   t i m e  s t e p    2001                              ( at time 9.9989993E-01 )

 nodal point  x-rot      y-rot       z-rot       x-rot vel   y-rot vel   z-rot vel   x-rot acc   y-rot acc   z-rot acc
    22626  1.02151E-06 2.38875E-05 4.11416E-05-1.61051E-07 3.95998E-05 7.52145E-05 1.21753E-05 6.70578E-05 1.50762E-04



 n o d a l   p r i n t   o u t   f o r   t i m e  s t e p    2201                              ( at time 1.0998899E+00 )

 nodal point  x-disp     y-disp      z-disp      x-vel       y-vel       z-vel      x-accl      y-accl      z-accl      x-coor      y-coor      z-coor
    22626  3.64065E-04-2.56600E-02-3.42258E+00 6.70093E-04-3.96532E-02-3.10747E+00 7.73362E-03-1.84987E-02 4.64963E-03 4.79645E+01-2.20555E+01 3.91592E+00



 n o d a l   p r i n t   o u t   f o r   t i m e  s t e p    2201                              ( at time 1.0998899E+00 )

 nodal point  x-rot      y-rot       z-rot       x-rot vel   y-rot vel   z-rot vel   x-rot acc   y-rot acc   z-rot acc
    22626  1.17257E-06 2.79317E-05 4.85496E-05 6.04701E-06 3.77133E-05 6.09008E-05 6.20868E-05-1.88672E-05-1.43152E-04



 n o d a l   p r i n t   o u t   f o r   t i m e  s t e p    2401                              ( at time 1.1998799E+00 )

 nodal point  x-disp     y-disp      z-disp      x-vel       y-vel       z-vel      x-accl      y-accl      z-accl      x-coor      y-coor      z-coor
    22626  5.05934E-04-2.96046E-02-3.73337E+00 1.83598E-03-3.89753E-02-3.10897E+00 1.16601E-02 6.77981E-03-1.49980E-02 4.79647E+01-2.20594E+01 3.60513E+00



 n o d a l   p r i n t   o u t   f o r   t i m e  s t e p    2401                              ( at time 1.1998799E+00 )

 nodal point  x-rot      y-rot       z-rot       x-rot vel   y-rot vel   z-rot vel   x-rot acc   y-rot acc   z-rot acc
    22626  1.64536E-06 3.11338E-05 5.38914E-05 5.78685E-06 2.97633E-05 4.92734E-05-2.60182E-06-7.95075E-05-1.16286E-04



 n o d a l   p r i n t   o u t   f o r   t i m e  s t e p    2601                              ( at time 1.2998699E+00 )

 nodal point  x-disp     y-disp      z-disp      x-vel       y-vel       z-vel      x-accl      y-accl      z-accl      x-coor      y-coor      z-coor
    22626  6.36925E-04-3.33587E-02-4.04435E+00 8.56226E-04-3.57177E-02-3.11185E+00-9.79854E-03 3.25789E-02-2.88277E-02 4.79648E+01-2.20631E+01 3.29415E+00



 n o d a l   p r i n t   o u t   f o r   t i m e  s t e p    2601                              ( at time 1.2998699E+00 )

 nodal point  x-rot      y-rot       z-rot       x-rot vel   y-rot vel   z-rot vel   x-rot acc   y-rot acc   z-rot acc
    22626  2.03600E-06 3.41044E-05 5.89169E-05-1.49442E-06 3.33821E-05 6.05830E-05-7.28200E-05 3.61911E-05 1.13107E-04



 n o d a l   p r i n t   o u t   f o r   t i m e  s t e p    2801                              ( at time 1.3998599E+00 )

 nodal point  x-disp     y-disp      z-disp      x-vel       y-vel       z-vel      x-accl      y-accl      z-accl      x-coor      y-coor      z-coor
    22626  6.59109E-04-3.66573E-02-4.35571E+00 1.61989E-04-3.04141E-02-3.11573E+00-6.94306E-03 5.30413E-02-3.88065E-02 4.79648E+01-2.20664E+01 2.98279E+00



 n o d a l   p r i n t   o u t   f o r   t i m e  s t e p    2801                              ( at time 1.3998599E+00 )

 nodal point  x-rot      y-rot       z-rot       x-rot vel   y-rot vel   z-rot vel   x-rot acc   y-rot acc   z-rot acc
    22626  1.71924E-06 3.72199E-05 6.46909E-05-3.53610E-06 3.06567E-05 5.13013E-05-2.04188E-05-2.72561E-05-9.28262E-05



 n o d a l   p r i n t   o u t   f o r   t i m e  s t e p    3001                              ( at time 1.4998499E+00 )

 nodal point  x-disp     y-disp      z-disp      x-vel       y-vel       z-vel      x-accl      y-accl      z-accl      x-coor      y-coor      z-coor
    22626  7.05764E-04-3.95986E-02-4.66736E+00 1.15885E-03-2.87249E-02-3.11774E+00 9.96963E-03 1.68935E-02-2.01126E-02 4.79649E+01-2.20694E+01 2.67114E+00



 n o d a l   p r i n t   o u t   f o r   t i m e  s t e p    3001                              ( at time 1.4998499E+00 )

 nodal point  x-rot      y-rot       z-rot       x-rot vel   y-rot vel   z-rot vel   x-rot acc   y-rot acc   z-rot acc
    22626  1.44713E-06 3.96528E-05 6.89184E-05-3.93806E-07 1.63332E-05 3.28227E-05 3.14261E-05-1.43250E-04-1.84805E-04



 n o d a l   p r i n t   o u t   f o r   t i m e  s t e p    3201                              ( at time 1.5998399E+00 )

 nodal point  x-disp     y-disp      z-disp      x-vel       y-vel       z-vel      x-accl      y-accl      z-accl      x-coor      y-coor      z-coor
    22626  8.24363E-04-4.23816E-02-4.97920E+00 9.74728E-04-2.63907E-02-3.12011E+00-1.84143E-03 2.33442E-02-2.36320E-02 4.79650E+01-2.20722E+01 2.35931E+00



 n o d a l   p r i n t   o u t   f o r   t i m e  s t e p    3201                              ( at time 1.5998399E+00 )

 nodal point  x-rot      y-rot       z-rot       x-rot vel   y-rot vel   z-rot vel   x-rot acc   y-rot acc   z-rot acc
    22626  1.27948E-06 4.10662E-05 7.12464E-05-1.01956E-08 1.53289E-05 2.17389E-05 3.83649E-06-1.00438E-05-1.10849E-04



 n o d a l   p r i n t   o u t   f o r   t i m e  s t e p    3401                              ( at time 1.6998299E+00 )

 nodal point  x-disp     y-disp      z-disp      x-vel       y-vel       z-vel      x-accl      y-accl      z-accl      x-coor      y-coor      z-coor
    22626  9.13691E-04-4.47864E-02-5.29136E+00 7.27164E-04-2.13687E-02-3.12390E+00-2.47588E-03 5.02249E-02-3.79052E-02 4.79651E+01-2.20746E+01 2.04714E+00



 n o d a l   p r i n t   o u t   f o r   t i m e  s t e p    3401                              ( at time 1.6998299E+00 )

 nodal point  x-rot      y-rot       z-rot       x-rot vel   y-rot vel   z-rot vel   x-rot acc   y-rot acc   z-rot acc
    22626  1.17864E-06 4.23799E-05 7.35823E-05-3.10719E-06 1.20668E-05 2.01635E-05-3.09730E-05-3.26242E-05-1.57557E-05



 n o d a l   p r i n t   o u t   f o r   t i m e  s t e p    3601                              ( at time 1.7998199E+00 )

 nodal point  x-disp     y-disp      z-disp      x-vel       y-vel       z-vel      x-accl      y-accl      z-accl      x-coor      y-coor      z-coor
    22626  9.99806E-04-4.66644E-02-5.60393E+00 5.40415E-04-1.65658E-02-3.12803E+00-1.86768E-03 4.80340E-02-4.13221E-02 4.79652E+01-2.20765E+01 1.73457E+00



 n o d a l   p r i n t   o u t   f o r   t i m e  s t e p    3601                              ( at time 1.7998199E+00 )

 nodal point  x-rot      y-rot       z-rot       x-rot vel   y-rot vel   z-rot vel   x-rot acc   y-rot acc   z-rot acc
    22626  1.13073E-06 4.33117E-05 7.55369E-05 9.39745E-07 2.25571E-06 1.37175E-05 4.04734E-05-9.81207E-05-6.44664E-05



 n o d a l   p r i n t   o u t   f o r   t i m e  s t e p    3801                              ( at time 1.8998099E+00 )

 nodal point  x-disp     y-disp      z-disp      x-vel       y-vel       z-vel      x-accl      y-accl      z-accl      x-coor      y-coor      z-coor
    22626  1.00269E-03-4.81878E-02-5.91683E+00-2.14085E-04-1.40713E-02-3.13053E+00-7.54576E-03 2.49480E-02-2.50055E-02 4.79652E+01-2.20780E+01 1.42167E+00



 n o d a l   p r i n t   o u t   f o r   t i m e  s t e p    3801                              ( at time 1.8998099E+00 )

 nodal point  x-rot      y-rot       z-rot       x-rot vel   y-rot vel   z-rot vel   x-rot acc   y-rot acc   z-rot acc
    22626  1.02179E-06 4.32744E-05 7.60900E-05 2.71583E-06-4.19098E-06-1.35860E-06 1.77627E-05-6.44733E-05-1.50776E-04



 n o d a l   p r i n t   o u t   f o r   t i m e  s t e p    4001                              ( at time 1.9997999E+00 )

 nodal point  x-disp     y-disp      z-disp      x-vel       y-vel       z-vel      x-accl      y-accl      z-accl      x-coor      y-coor      z-coor
    22626  1.02431E-03-4.94733E-02-6.22997E+00 2.95705E-04-1.17555E-02-3.13274E+00 5.09842E-03 2.31604E-02-2.21465E-02 4.79652E+01-2.20793E+01 1.10853E+00



 n o d a l   p r i n t   o u t   f o r   t i m e  s t e p    4001                              ( at time 1.9997999E+00 )

 nodal point  x-rot      y-rot       z-rot       x-rot vel   y-rot vel   z-rot vel   x-rot acc   y-rot acc   z-rot acc
    22626  1.32798E-06 4.26264E-05 7.55446E-05 4.39974E-06-6.90525E-06-9.00854E-06 1.68408E-05-2.71454E-05-7.65070E-05



 n o d a l   p r i n t   o u t   f o r   t i m e  s t e p    4201                              ( at time 2.0997899E+00 )

 nodal point  x-disp     y-disp      z-disp      x-vel       y-vel       z-vel      x-accl      y-accl      z-accl      x-coor      y-coor      z-coor
    22626  1.04938E-03-5.04641E-02-6.54337E+00 9.90051E-05-8.18108E-03-3.13581E+00-1.96720E-03 3.57474E-02-3.06852E-02 4.79652E+01-2.20803E+01 7.95129E-01



 n o d a l   p r i n t   o u t   f o r   t i m e  s t e p    4201                              ( at time 2.0997899E+00 )

 nodal point  x-rot      y-rot       z-rot       x-rot vel   y-rot vel   z-rot vel   x-rot acc   y-rot acc   z-rot acc
    22626  1.71447E-06 4.11994E-05 7.37134E-05-1.21845E-07-1.73905E-05-2.73941E-05-4.52204E-05-1.04863E-04-1.83874E-04



 n o d a l   p r i n t   o u t   f o r   t i m e  s t e p    4401                              ( at time 2.1997798E+00 )

 nodal point  x-disp     y-disp      z-disp      x-vel       y-vel       z-vel      x-accl      y-accl      z-accl      x-coor      y-coor      z-coor
    22626  1.00355E-03-5.10526E-02-6.85710E+00-7.96138E-04-3.41189E-03-3.13957E+00-8.95234E-03 4.76967E-02-3.75738E-02 4.79652E+01-2.20808E+01 4.81405E-01



 n o d a l   p r i n t   o u t   f o r   t i m e  s t e p    4401                              ( at time 2.1997798E+00 )

 nodal point  x-rot      y-rot       z-rot       x-rot vel   y-rot vel   z-rot vel   x-rot acc   y-rot acc   z-rot acc
    22626  1.62286E-06 3.91744E-05 7.08355E-05-3.71714E-07-2.25076E-05-3.09066E-05-2.49894E-06-5.11759E-05-3.51287E-05



 n o d a l   p r i n t   o u t   f o r   t i m e  s t e p    4601                              ( at time 2.2997698E+00 )

 nodal point  x-disp     y-disp      z-disp      x-vel       y-vel       z-vel      x-accl      y-accl      z-accl      x-coor      y-coor      z-coor
    22626  8.91670E-04-5.11521E-02-7.17121E+00-1.53021E-03 8.01421E-04-3.14287E+00-7.34146E-03 4.21373E-02-3.29813E-02 4.79651E+01-2.20809E+01 1.67294E-01



 n o d a l   p r i n t   o u t   f o r   t i m e  s t e p    4601                              ( at time 2.2997698E+00 )

 nodal point  x-rot      y-rot       z-rot       x-rot vel   y-rot vel   z-rot vel   x-rot acc   y-rot acc   z-rot acc
    22626  1.31021E-06 3.67843E-05 6.76553E-05-3.77359E-06-3.06952E-05-4.10751E-05-3.40221E-05-8.18844E-05-1.01696E-04



 n o d a l   p r i n t   o u t   f o r   t i m e  s t e p    4801                              ( at time 2.3997598E+00 )

 nodal point  x-disp     y-disp      z-disp      x-vel       y-vel       z-vel      x-accl      y-accl      z-accl      x-coor      y-coor      z-coor
    22626  7.18815E-04-5.09785E-02-7.48556E+00-1.64984E-03 2.68368E-03-3.14496E+00-1.19642E-03 1.88245E-02-2.08971E-02 4.79649E+01-2.20808E+01-1.47062E-01



 n o d a l   p r i n t   o u t   f o r   t i m e  s t e p    4801                              ( at time 2.3997598E+00 )

 nodal point  x-rot      y-rot       z-rot       x-rot vel   y-rot vel   z-rot vel   x-rot acc   y-rot acc   z-rot acc
    22626  8.85254E-07 3.33949E-05 6.23710E-05-4.65749E-06-3.69021E-05-6.06047E-05-8.83994E-06-6.20752E-05-1.95316E-04



 n o d a l   p r i n t   o u t   f o r   t i m e  s t e p    5001                              ( at time 2.4997498E+00 )

 nodal point  x-disp     y-disp      z-disp      x-vel       y-vel       z-vel      x-accl      y-accl      z-accl      x-coor      y-coor      z-coor
    22626  5.20609E-04-5.05916E-02-7.80014E+00-2.31870E-03 5.72029E-03-3.14762E+00-6.68923E-03 3.03690E-02-2.66149E-02 4.79647E+01-2.20804E+01-4.61641E-01



 n o d a l   p r i n t   o u t   f o r   t i m e  s t e p    5001                              ( at time 2.4997498E+00 )

 nodal point  x-rot      y-rot       z-rot       x-rot vel   y-rot vel   z-rot vel   x-rot acc   y-rot acc   z-rot acc
    22626  5.61776E-07 2.90572E-05 5.56730E-05-2.91225E-06-4.79819E-05-7.58114E-05 1.74541E-05-1.10808E-04-1.52082E-04



 n o d a l   p r i n t   o u t   f o r   t i m e  s t e p    5201                              ( at time 2.5997398E+00 )

 nodal point  x-disp     y-disp      z-disp      x-vel       y-vel       z-vel      x-accl      y-accl      z-accl      x-coor      y-coor      z-coor
    22626  2.41368E-04-4.97980E-02-8.11506E+00-3.29854E-03 1.01162E-02-3.15125E+00-9.79943E-03 4.39634E-02-3.63005E-02 4.79644E+01-2.20796E+01-7.76560E-01



 n o d a l   p r i n t   o u t   f o r   t i m e  s t e p    5201                              ( at time 2.5997398E+00 )

 nodal point  x-rot      y-rot       z-rot       x-rot vel   y-rot vel   z-rot vel   x-rot acc   y-rot acc   z-rot acc
    22626  3.17465E-07 2.38109E-05 4.75815E-05-3.57525E-06-5.67797E-05-8.81777E-05-6.63060E-06-8.79877E-05-1.23675E-04



 n o d a l   p r i n t   o u t   f o r   t i m e  s t e p    5401                              ( at time 2.6997298E+00 )

 nodal point  x-disp     y-disp      z-disp      x-vel       y-vel       z-vel      x-accl      y-accl      z-accl      x-coor      y-coor      z-coor
    22626 -1.33893E-04-4.85838E-02-8.43033E+00-4.46372E-03 1.36880E-02-3.15466E+00-1.16529E-02 3.57217E-02-3.41330E-02 4.79640E+01-2.20784E+01-1.09183E+00



 n o d a l   p r i n t   o u t   f o r   t i m e  s t e p    5401                              ( at time 2.6997298E+00 )

 nodal point  x-rot      y-rot       z-rot       x-rot vel   y-rot vel   z-rot vel   x-rot acc   y-rot acc   z-rot acc
    22626  1.22183E-07 1.79766E-05 3.85369E-05-7.19938E-07-6.26431E-05-9.22217E-05 2.85559E-05-5.86398E-05-4.04438E-05



 n o d a l   p r i n t   o u t   f o r   t i m e  s t e p    5601                              ( at time 2.7997198E+00 )

 nodal point  x-disp     y-disp      z-disp      x-vel       y-vel       z-vel      x-accl      y-accl      z-accl      x-coor      y-coor      z-coor
    22626 -6.52305E-04-4.70928E-02-8.74588E+00-5.71841E-03 1.58361E-02-3.15682E+00-1.25482E-02 2.14828E-02-2.15934E-02 4.79635E+01-2.20769E+01-1.40738E+00



 n o d a l   p r i n t   o u t   f o r   t i m e  s t e p    5601                              ( at time 2.7997198E+00 )

 nodal point  x-rot      y-rot       z-rot       x-rot vel   y-rot vel   z-rot vel   x-rot acc   y-rot acc   z-rot acc
    22626  1.45693E-07 1.09342E-05 2.79381E-05 2.01985E-06-7.87891E-05-1.22577E-04 2.74007E-05-1.61476E-04-3.03584E-04



 n o d a l   p r i n t   o u t   f o r   t i m e  s t e p    5801                              ( at time 2.8997098E+00 )

 nodal point  x-disp     y-disp      z-disp      x-vel       y-vel       z-vel      x-accl      y-accl      z-accl      x-coor      y-coor      z-coor
    22626 -1.22917E-03-4.54549E-02-9.06162E+00-5.91215E-03 1.67965E-02-3.15853E+00-1.93761E-03 9.60544E-03-1.71130E-02 4.79630E+01-2.20752E+01-1.72312E+00



 n o d a l   p r i n t   o u t   f o r   t i m e  s t e p    5801                              ( at time 2.8997098E+00 )

 nodal point  x-rot      y-rot       z-rot       x-rot vel   y-rot vel   z-rot vel   x-rot acc   y-rot acc   z-rot acc
    22626  5.22399E-07 2.35054E-06 1.46523E-05 4.35798E-06-8.83065E-05-1.39481E-04 2.33837E-05-9.51831E-05-1.69055E-04



 n o d a l   p r i n t   o u t   f o r   t i m e  s t e p    6001                              ( at time 2.9996998E+00 )

 nodal point  x-disp     y-disp      z-disp      x-vel       y-vel       z-vel      x-accl      y-accl      z-accl      x-coor      y-coor      z-coor
    22626 -1.86202E-03-4.36616E-02-9.37755E+00-6.97140E-03 1.92529E-02-3.16086E+00-1.05935E-02 2.45659E-02-2.33006E-02 4.79623E+01-2.20735E+01-2.03905E+00



 n o d a l   p r i n t   o u t   f o r   t i m e  s t e p    6001                              ( at time 2.9996998E+00 )

 nodal point  x-rot      y-rot       z-rot       x-rot vel   y-rot vel   z-rot vel   x-rot acc   y-rot acc   z-rot acc
    22626  9.52360E-07-6.71288E-06 7.02123E-07 2.92763E-06-9.31691E-05-1.44236E-04-1.43049E-05-4.86313E-05-4.75539E-05



 n o d a l   p r i n t   o u t   f o r   t i m e  s t e p    6201                              ( at time 3.0996898E+00 )

 nodal point  x-disp     y-disp      z-disp      x-vel       y-vel       z-vel      x-accl      y-accl      z-accl      x-coor      y-coor      z-coor
    22626 -2.63739E-03-4.16139E-02-9.69372E+00-8.45741E-03 2.12522E-02-3.16285E+00-1.48617E-02 1.99951E-02-1.98933E-02 4.79615E+01-2.20714E+01-2.35522E+00



 n o d a l   p r i n t   o u t   f o r   t i m e  s t e p    6201                              ( at time 3.0996898E+00 )

 nodal point  x-rot      y-rot       z-rot       x-rot vel   y-rot vel   z-rot vel   x-rot acc   y-rot acc   z-rot acc
    22626  1.12023E-06-1.62304E-05-1.40587E-05 5.88778E-08-9.68720E-05-1.53990E-04-2.86904E-05-3.70327E-05-9.75487E-05



 n o d a l   p r i n t   o u t   f o r   t i m e  s t e p    6401                              ( at time 3.1996798E+00 )

 nodal point  x-disp     y-disp      z-disp      x-vel       y-vel       z-vel      x-accl      y-accl      z-accl      x-coor      y-coor      z-coor
    22626 -3.51607E-03-3.95203E-02-1.00100E+01-9.04802E-03 2.03314E-02-3.16344E+00-5.90669E-03-9.20832E-03-5.87998E-03 4.79607E+01-2.20693E+01-2.67151E+00



 n o d a l   p r i n t   o u t   f o r   t i m e  s t e p    6401                              ( at time 3.1996798E+00 )

 nodal point  x-rot      y-rot       z-rot       x-rot vel   y-rot vel   z-rot vel   x-rot acc   y-rot acc   z-rot acc
    22626  1.17745E-06-2.65044E-05-2.97586E-05 6.28546E-07-1.08225E-04-1.65346E-04 5.69724E-06-1.13541E-04-1.13578E-04



 n o d a l   p r i n t   o u t   f o r   t i m e  s t e p    6601                              ( at time 3.2996698E+00 )

 nodal point  x-disp     y-disp      z-disp      x-vel       y-vel       z-vel      x-accl      y-accl      z-accl      x-coor      y-coor      z-coor
    22626 -4.43527E-03-3.75819E-02-1.03263E+01-9.31070E-03 1.84248E-02-3.16314E+00-2.62700E-03-1.90679E-02 2.95669E-03 4.79597E+01-2.20674E+01-2.98781E+00



 n o d a l   p r i n t   o u t   f o r   t i m e  s t e p    6601                              ( at time 3.2996698E+00 )

 nodal point  x-rot      y-rot       z-rot       x-rot vel   y-rot vel   z-rot vel   x-rot acc   y-rot acc   z-rot acc
    22626  1.14642E-06-3.74708E-05-4.65764E-05-2.14257E-07-1.12060E-04-1.70806E-04-8.42888E-06-3.83498E-05-5.45982E-05



 n o d a l   p r i n t   o u t   f o r   t i m e  s t e p    6801                              ( at time 3.3996598E+00 )

 nodal point  x-disp     y-disp      z-disp      x-vel       y-vel       z-vel      x-accl      y-accl      z-accl      x-coor      y-coor      z-coor
    22626 -5.39636E-03-3.58297E-02-1.06426E+01-9.83061E-03 1.66317E-02-3.16304E+00-5.19962E-03-1.79332E-02 1.02292E-03 4.79588E+01-2.20656E+01-3.30409E+00



 n o d a l   p r i n t   o u t   f o r   t i m e  s t e p    6801                              ( at time 3.3996598E+00 )

 nodal point  x-rot      y-rot       z-rot       x-rot vel   y-rot vel   z-rot vel   x-rot acc   y-rot acc   z-rot acc
    22626  1.32917E-06-4.86034E-05-6.37397E-05-2.13425E-07-1.11080E-04-1.72050E-04 8.31744E-09 9.79215E-06-1.24462E-05



 n o d a l   p r i n t   o u t   f o r   t i m e  s t e p    7001                              ( at time 3.4996498E+00 )

 nodal point  x-disp     y-disp      z-disp      x-vel       y-vel       z-vel      x-accl      y-accl      z-accl      x-coor      y-coor      z-coor
    22626 -6.41389E-03-3.42366E-02-1.09589E+01-1.05545E-02 1.52068E-02-3.16333E+00-7.23918E-03-1.42505E-02-2.93046E-03 4.79578E+01-2.20640E+01-3.62038E+00



 n o d a l   p r i n t   o u t   f o r   t i m e  s t e p    7001                              ( at time 3.4996498E+00 )

 nodal point  x-rot      y-rot       z-rot       x-rot vel   y-rot vel   z-rot vel   x-rot acc   y-rot acc   z-rot acc
    22626  1.60375E-06-5.96101E-05-8.04274E-05 3.18387E-06-1.10931E-04-1.65714E-04 3.39764E-05 1.49973E-06 6.33679E-05



 n o d a l   p r i n t   o u t   f o r   t i m e  s t e p    7201                              ( at time 3.5996397E+00 )

 nodal point  x-disp     y-disp      z-disp      x-vel       y-vel       z-vel      x-accl      y-accl      z-accl      x-coor      y-coor      z-coor
    22626 -7.48492E-03-3.28241E-02-1.12752E+01-1.05812E-02 1.26981E-02-3.16303E+00-2.67605E-04-2.50894E-02 3.01868E-03 4.79567E+01-2.20626E+01-3.93667E+00



 n o d a l   p r i n t   o u t   f o r   t i m e  s t e p    7201                              ( at time 3.5996397E+00 )

 nodal point  x-rot      y-rot       z-rot       x-rot vel   y-rot vel   z-rot vel   x-rot acc   y-rot acc   z-rot acc
    22626  1.83140E-06-7.05360E-05-9.65576E-05 4.49683E-06-1.08067E-04-1.55128E-04 1.31308E-05 2.86392E-05 1.05872E-04



 n o d a l   p r i n t   o u t   f o r   t i m e  s t e p    7401                              ( at time 3.6996297E+00 )

 nodal point  x-disp     y-disp      z-disp      x-vel       y-vel       z-vel      x-accl      y-accl      z-accl      x-coor      y-coor      z-coor
    22626 -8.53100E-03-3.17240E-02-1.15914E+01-1.03057E-02 9.34925E-03-3.16208E+00 2.75568E-03-3.34917E-02 9.48046E-03 4.79557E+01-2.20615E+01-4.25289E+00



 n o d a l   p r i n t   o u t   f o r   t i m e  s t e p    7401                              ( at time 3.6996297E+00 )

 nodal point  x-rot      y-rot       z-rot       x-rot vel   y-rot vel   z-rot vel   x-rot acc   y-rot acc   z-rot acc
    22626  2.41229E-06-8.12101E-05-1.11986E-04 7.20292E-06-1.05140E-04-1.52976E-04 2.70636E-05 2.92749E-05 2.15192E-05



 n o d a l   p r i n t   o u t   f o r   t i m e  s t e p    7601                              ( at time 3.7996197E+00 )

 nodal point  x-disp     y-disp      z-disp      x-vel       y-vel       z-vel      x-accl      y-accl      z-accl      x-coor      y-coor      z-coor
    22626 -9.53572E-03-3.09191E-02-1.19075E+01-9.83312E-03 6.71440E-03-3.16141E+00 4.72602E-03-2.63512E-02 6.74793E-03 4.79546E+01-2.20607E+01-4.56903E+00



 n o d a l   p r i n t   o u t   f o r   t i m e  s t e p    7601                              ( at time 3.7996197E+00 )

 nodal point  x-rot      y-rot       z-rot       x-rot vel   y-rot vel   z-rot vel   x-rot acc   y-rot acc   z-rot acc
    22626  3.19124E-06-9.14424E-05-1.26813E-04 8.82620E-06-9.65317E-05-1.36496E-04 1.62344E-05 8.60882E-05 1.64814E-04



 n o d a l   p r i n t   o u t   f o r   t i m e  s t e p    7801                              ( at time 3.8996097E+00 )

 nodal point  x-disp     y-disp      z-disp      x-vel       y-vel       z-vel      x-accl      y-accl      z-accl      x-coor      y-coor      z-coor
    22626 -1.04902E-02-3.03507E-02-1.22236E+01-9.24448E-03 4.90267E-03-3.16133E+00 5.88689E-03-1.81192E-02 7.86859E-04 4.79537E+01-2.20601E+01-4.88513E+00



 n o d a l   p r i n t   o u t   f o r   t i m e  s t e p    7801                              ( at time 3.8996097E+00 )

 nodal point  x-rot      y-rot       z-rot       x-rot vel   y-rot vel   z-rot vel   x-rot acc   y-rot acc   z-rot acc
    22626  3.89561E-06-1.00513E-04-1.39361E-04 4.30300E-06-8.26464E-05-1.09536E-04-4.52365E-05 1.38867E-04 2.69627E-04



 n o d a l   p r i n t   o u t   f o r   t i m e  s t e p    8001                              ( at time 3.9995997E+00 )

 nodal point  x-disp     y-disp      z-disp      x-vel       y-vel       z-vel      x-accl      y-accl      z-accl      x-coor      y-coor      z-coor
    22626 -1.13864E-02-2.99038E-02-1.25398E+01-8.64779E-03 3.92698E-03-3.16169E+00 5.96750E-03-9.75789E-03-3.56472E-03 4.79528E+01-2.20597E+01-5.20126E+00



 n o d a l   p r i n t   o u t   f o r   t i m e  s t e p    8001                              ( at time 3.9995997E+00 )

 nodal point  x-rot      y-rot       z-rot       x-rot vel   y-rot vel   z-rot vel   x-rot acc   y-rot acc   z-rot acc
    22626  4.37878E-06-1.08251E-04-1.49381E-04 3.43528E-06-7.09211E-05-9.26050E-05-8.67809E-06 1.17264E-04 1.69330E-04



 n o d a l   p r i n t   o u t   f o r   t i m e  s t e p    8201                              ( at time 4.0995897E+00 )

 nodal point  x-disp     y-disp      z-disp      x-vel       y-vel       z-vel      x-accl      y-accl      z-accl      x-coor      y-coor      z-coor
    22626 -1.21703E-02-2.96301E-02-1.28559E+01-6.88385E-03 1.34805E-03-3.16123E+00 1.76411E-02-2.57918E-02 4.60432E-03 4.79520E+01-2.20594E+01-5.51738E+00



 n o d a l   p r i n t   o u t   f o r   t i m e  s t e p    8201                              ( at time 4.0995897E+00 )

 nodal point  x-rot      y-rot       z-rot       x-rot vel   y-rot vel   z-rot vel   x-rot acc   y-rot acc   z-rot acc
    22626  4.79556E-06-1.14901E-04-1.57603E-04 4.40082E-06-5.84198E-05-6.86925E-05 9.65643E-06 1.25026E-04 2.39149E-04



 n o d a l   p r i n t   o u t   f o r   t i m e  s t e p    8401                              ( at time 4.1995797E+00 )

 nodal point  x-disp     y-disp      z-disp      x-vel       y-vel       z-vel      x-accl      y-accl      z-accl      x-coor      y-coor      z-coor
    22626 -1.27810E-02-2.96177E-02-1.31719E+01-5.28898E-03-1.01282E-03-3.16063E+00 1.59503E-02-2.36111E-02 5.91099E-03 4.79514E+01-2.20594E+01-5.83344E+00



 n o d a l   p r i n t   o u t   f o r   t i m e  s t e p    8401                              ( at time 4.1995797E+00 )

 nodal point  x-rot      y-rot       z-rot       x-rot vel   y-rot vel   z-rot vel   x-rot acc   y-rot acc   z-rot acc
    22626  5.26311E-06-1.19886E-04-1.62744E-04 3.50203E-06-4.01527E-05-3.44139E-05-8.98889E-06 1.82690E-04 3.42821E-04



 n o d a l   p r i n t   o u t   f o r   t i m e  s t e p    8601                              ( at time 4.2995697E+00 )

 nodal point  x-disp     y-disp      z-disp      x-vel       y-vel       z-vel      x-accl      y-accl      z-accl      x-coor      y-coor      z-coor
    22626 -1.32502E-02-2.98369E-02-1.34880E+01-3.93465E-03-3.09367E-03-3.16046E+00 1.35446E-02-2.08106E-02 1.76448E-03 4.79509E+01-2.20596E+01-6.14945E+00



 n o d a l   p r i n t   o u t   f o r   t i m e  s t e p    8601                              ( at time 4.2995697E+00 )

 nodal point  x-rot      y-rot       z-rot       x-rot vel   y-rot vel   z-rot vel   x-rot acc   y-rot acc   z-rot acc
    22626  5.67442E-06-1.22968E-04-1.64732E-04 4.64956E-06-2.33143E-05-5.89354E-06 1.14765E-05 1.68400E-04 2.85232E-04



 n o d a l   p r i n t   o u t   f o r   t i m e  s t e p    8801                              ( at time 4.3995597E+00 )

 nodal point  x-disp     y-disp      z-disp      x-vel       y-vel       z-vel      x-accl      y-accl      z-accl      x-coor      y-coor      z-coor
    22626 -1.35595E-02-3.01821E-02-1.38040E+01-2.24337E-03-3.84926E-03-3.16114E+00 1.69146E-02-7.55664E-03-6.86238E-03 4.79506E+01-2.20600E+01-6.46550E+00



 n o d a l   p r i n t   o u t   f o r   t i m e  s t e p    8801                              ( at time 4.3995597E+00 )

 nodal point  x-rot      y-rot       z-rot       x-rot vel   y-rot vel   z-rot vel   x-rot acc   y-rot acc   z-rot acc
    22626  6.22517E-06-1.24353E-04-1.63409E-04 5.59296E-06-4.75868E-06 3.04854E-05 9.43494E-06 1.85575E-04 3.63827E-04



 n o d a l   p r i n t   o u t   f o r   t i m e  s t e p    9001                              ( at time 4.4995497E+00 )

 nodal point  x-disp     y-disp      z-disp      x-vel       y-vel       z-vel      x-accl      y-accl      z-accl      x-coor      y-coor      z-coor
    22626 -1.36981E-02-3.06656E-02-1.41201E+01-4.44483E-04-6.18485E-03-3.16076E+00 1.79906E-02-2.33582E-02 3.89613E-03 4.79505E+01-2.20605E+01-6.78157E+00



 n o d a l   p r i n t   o u t   f o r   t i m e  s t e p    9001                              ( at time 4.4995497E+00 )

 nodal point  x-rot      y-rot       z-rot       x-rot vel   y-rot vel   z-rot vel   x-rot acc   y-rot acc   z-rot acc
    22626  6.80969E-06-1.23537E-04-1.58188E-04 8.38477E-06 1.68708E-05 6.79452E-05 2.79208E-05 2.16316E-04 3.74633E-04



 n o d a l   p r i n t   o u t   f o r   t i m e  s t e p    9201                              ( at time 4.5995397E+00 )

 nodal point  x-disp     y-disp      z-disp      x-vel       y-vel       z-vel      x-accl      y-accl      z-accl      x-coor      y-coor      z-coor
    22626 -1.36479E-02-3.14386E-02-1.44361E+01 1.44364E-03-9.08724E-03-3.16015E+00 1.88831E-02-2.90268E-02 6.08029E-03 4.79505E+01-2.20612E+01-7.09758E+00



 n o d a l   p r i n t   o u t   f o r   t i m e  s t e p    9201                              ( at time 4.5995397E+00 )

 nodal point  x-rot      y-rot       z-rot       x-rot vel   y-rot vel   z-rot vel   x-rot acc   y-rot acc   z-rot acc
    22626  7.61068E-06-1.21081E-04-1.49984E-04 9.56949E-06 3.18798E-05 9.45627E-05 1.18484E-05 1.50105E-04 2.66203E-04



 n o d a l   p r i n t   o u t   f o r   t i m e  s t e p    9401                              ( at time 4.6995297E+00 )

 nodal point  x-disp     y-disp      z-disp      x-vel       y-vel       z-vel      x-accl      y-accl      z-accl      x-coor      y-coor      z-coor
    22626 -1.33939E-02-3.24254E-02-1.47521E+01 3.51636E-03-1.06762E-02-3.16000E+00 2.07293E-02-1.58912E-02 1.50457E-03 4.79508E+01-2.20622E+01-7.41355E+00



 n o d a l   p r i n t   o u t   f o r   t i m e  s t e p    9401                              ( at time 4.6995297E+00 )

 nodal point  x-rot      y-rot       z-rot       x-rot vel   y-rot vel   z-rot vel   x-rot acc   y-rot acc   z-rot acc
    22626  8.44842E-06-1.16720E-04-1.38315E-04 6.99625E-06 5.71120E-05 1.39515E-04-2.57350E-05 2.52347E-04 4.49564E-04



 n o d a l   p r i n t   o u t   f o r   t i m e  s t e p    9601                              ( at time 4.7995197E+00 )

 nodal point  x-disp     y-disp      z-disp      x-vel       y-vel       z-vel      x-accl      y-accl      z-accl      x-coor      y-coor      z-coor
    22626 -1.29441E-02-3.35634E-02-1.50680E+01 5.38210E-03-1.19811E-02-3.16026E+00 1.86593E-02-1.30503E-02-2.66579E-03 4.79512E+01-2.20634E+01-7.72953E+00



 n o d a l   p r i n t   o u t   f o r   t i m e  s t e p    9601                              ( at time 4.7995197E+00 )

 nodal point  x-rot      y-rot       z-rot       x-rot vel   y-rot vel   z-rot vel   x-rot acc   y-rot acc   z-rot acc
    22626  9.10354E-06-1.09676E-04-1.22247E-04 2.29228E-06 8.42285E-05 1.83854E-04-4.70445E-05 2.71193E-04 4.43441E-04



 n o d a l   p r i n t   o u t   f o r   t i m e  s t e p    9801                              ( at time 4.8995097E+00 )

 nodal point  x-disp     y-disp      z-disp      x-vel       y-vel       z-vel      x-accl      y-accl      z-accl      x-coor      y-coor      z-coor
    22626 -1.23191E-02-3.48163E-02-1.53840E+01 7.08266E-03-1.32159E-02-3.16036E+00 1.70073E-02-1.23495E-02-9.41849E-04 4.79519E+01-2.20646E+01-8.04554E+00



 n o d a l   p r i n t   o u t   f o r   t i m e  s t e p    9801                              ( at time 4.8995097E+00 )

 nodal point  x-rot      y-rot       z-rot       x-rot vel   y-rot vel   z-rot vel   x-rot acc   y-rot acc   z-rot acc
    22626  9.17802E-06-1.00300E-04-1.02053E-04-2.38466E-06 1.03414E-04 2.17402E-04-4.67741E-05 1.91878E-04 3.35514E-04



 n o d a l   p r i n t   o u t   f o r   t i m e  s t e p   10001                              ( at time 4.9994997E+00 )

 nodal point  x-disp     y-disp      z-disp      x-vel       y-vel       z-vel      x-accl      y-accl      z-accl      x-coor      y-coor      z-coor
    22626 -1.15002E-02-3.62409E-02-1.57000E+01 9.26616E-03-1.53634E-02-3.16006E+00 2.18372E-02-2.14774E-02 2.97575E-03 4.79527E+01-2.20660E+01-8.36153E+00



 n o d a l   p r i n t   o u t   f o r   t i m e  s t e p   10001                              ( at time 4.9994997E+00 )

 nodal point  x-rot      y-rot       z-rot       x-rot vel   y-rot vel   z-rot vel   x-rot acc   y-rot acc   z-rot acc
    22626  8.86260E-06-8.89321E-05-7.85326E-05-4.91949E-06 1.24708E-04 2.53323E-04-2.53508E-05 2.12961E-04 3.59242E-04



 n o d a l   p r i n t   o u t   f o r   t i m e  s t e p   10202                              ( at time 5.0999896E+00 )

 nodal point  x-disp     y-disp      z-disp      x-vel       y-vel       z-vel      x-accl      y-accl      z-accl      x-coor      y-coor      z-coor
    22626 -1.04788E-02-3.78701E-02-1.60176E+01 1.09232E-02-1.68763E-02-3.15996E+00 1.64895E-02-1.50552E-02 1.01546E-03 4.79537E+01-2.20677E+01-8.67907E+00



 n o d a l   p r i n t   o u t   f o r   t i m e  s t e p   10202                              ( at time 5.0999896E+00 )

 nodal point  x-rot      y-rot       z-rot       x-rot vel   y-rot vel   z-rot vel   x-rot acc   y-rot acc   z-rot acc
    22626  7.99103E-06-7.48957E-05-5.08156E-05-1.49467E-05 1.54121E-04 2.95703E-04-9.97837E-05 2.92696E-04 4.21737E-04



 n o d a l   p r i n t   o u t   f o r   t i m e  s t e p   10402                              ( at time 5.1999796E+00 )

 nodal point  x-disp     y-disp      z-disp      x-vel       y-vel       z-vel      x-accl      y-accl      z-accl      x-coor      y-coor      z-coor
    22626 -9.33375E-03-3.95851E-02-1.63336E+01 1.18588E-02-1.71005E-02-3.16068E+00 9.35750E-03-2.24169E-03-7.22001E-03 4.79548E+01-2.20694E+01-8.99507E+00



 n o d a l   p r i n t   o u t   f o r   t i m e  s t e p   10402                              ( at time 5.1999796E+00 )

 nodal point  x-rot      y-rot       z-rot       x-rot vel   y-rot vel   z-rot vel   x-rot acc   y-rot acc   z-rot acc
    22626  6.04272E-06-5.77528E-05-1.92967E-05-2.59637E-05 1.87027E-04 3.31757E-04-1.10180E-04 3.29088E-04 3.60573E-04



 n o d a l   p r i n t   o u t   f o r   t i m e  s t e p   10602                              ( at time 5.2999696E+00 )

 nodal point  x-disp     y-disp      z-disp      x-vel       y-vel       z-vel      x-accl      y-accl      z-accl      x-coor      y-coor      z-coor
    22626 -8.11558E-03-4.12833E-02-1.66497E+01 1.23970E-02-1.70084E-02-3.16161E+00 5.38171E-03 9.21320E-04-9.30403E-03 4.79561E+01-2.20711E+01-9.31116E+00



 n o d a l   p r i n t   o u t   f o r   t i m e  s t e p   10602                              ( at time 5.2999696E+00 )

 nodal point  x-rot      y-rot       z-rot       x-rot vel   y-rot vel   z-rot vel   x-rot acc   y-rot acc   z-rot acc
    22626  2.67758E-06-3.70827E-05 1.54964E-05-4.34505E-05 2.25342E-04 3.65023E-04-1.74886E-04 3.83193E-04 3.32693E-04



 n o d a l   p r i n t   o u t   f o r   t i m e  s t e p   10802                              ( at time 5.3999596E+00 )

 nodal point  x-disp     y-disp      z-disp      x-vel       y-vel       z-vel      x-accl      y-accl      z-accl      x-coor      y-coor      z-coor
    22626 -6.86247E-03-4.29919E-02-1.69658E+01 1.27355E-02-1.71972E-02-3.16198E+00 3.38549E-03-1.88830E-03-3.73878E-03 4.79573E+01-2.20728E+01-9.62731E+00



 n o d a l   p r i n t   o u t   f o r   t i m e  s t e p   10802                              ( at time 5.3999596E+00 )

 nodal point  x-rot      y-rot       z-rot       x-rot vel   y-rot vel   z-rot vel   x-rot acc   y-rot acc   z-rot acc
    22626 -2.69621E-06-1.21817E-05 5.34325E-05-6.42442E-05 2.73922E-04 3.89275E-04-2.07958E-04 4.85848E-04 2.42544E-04



 n o d a l   p r i n t   o u t   f o r   t i m e  s t e p   11002                              ( at time 5.4999496E+00 )

 nodal point  x-disp     y-disp      z-disp      x-vel       y-vel       z-vel      x-accl      y-accl      z-accl      x-coor      y-coor      z-coor
    22626 -5.54492E-03-4.47046E-02-1.72819E+01 1.34514E-02-1.68309E-02-3.16093E+00 7.16023E-03 3.66306E-03 1.05725E-02 4.79586E+01-2.20745E+01-9.94345E+00



 n o d a l   p r i n t   o u t   f o r   t i m e  s t e p   11002                              ( at time 5.4999496E+00 )

 nodal point  x-rot      y-rot       z-rot       x-rot vel   y-rot vel   z-rot vel   x-rot acc   y-rot acc   z-rot acc
    22626 -1.08337E-05 1.87447E-05 9.38164E-05-9.58542E-05 3.50246E-04 4.14495E-04-3.16131E-04 7.63312E-04 2.52232E-04



 n o d a l   p r i n t   o u t   f o r   t i m e  s t e p   11202                              ( at time 5.5999396E+00 )

 nodal point  x-disp     y-disp      z-disp      x-vel       y-vel       z-vel      x-accl      y-accl      z-accl      x-coor      y-coor      z-coor
    22626 -4.19479E-03-4.63026E-02-1.75979E+01 1.33043E-02-1.47689E-02-3.15752E+00-1.47178E-03 2.06221E-02 3.40472E-02 4.79600E+01-2.20761E+01-1.02594E+01



 n o d a l   p r i n t   o u t   f o r   t i m e  s t e p   11202                              ( at time 5.5999396E+00 )

 nodal point  x-rot      y-rot       z-rot       x-rot vel   y-rot vel   z-rot vel   x-rot acc   y-rot acc   z-rot acc
    22626 -2.14298E-05 5.91120E-05 1.36073E-04-1.16138E-04 4.65401E-04 4.24642E-04-2.02858E-04 1.15167E-03 1.01472E-04



 n o d a l   p r i n t   o u t   f o r   t i m e  s t e p   11402                              ( at time 5.6999296E+00 )

 nodal point  x-disp     y-disp      z-disp      x-vel       y-vel       z-vel      x-accl      y-accl      z-accl      x-coor      y-coor      z-coor
    22626 -2.87338E-03-4.76653E-02-1.79133E+01 1.32901E-02-1.24294E-02-3.15037E+00-1.41286E-04 2.33978E-02 7.15754E-02 4.79613E+01-2.20775E+01-1.05748E+01



 n o d a l   p r i n t   o u t   f o r   t i m e  s t e p   11402                              ( at time 5.6999296E+00 )

 nodal point  x-rot      y-rot       z-rot       x-rot vel   y-rot vel   z-rot vel   x-rot acc   y-rot acc   z-rot acc
    22626 -3.42786E-05 1.14224E-04 1.78855E-04-1.45566E-04 6.43000E-04 4.25120E-04-2.94313E-04 1.77616E-03 4.78047E-06



 n o d a l   p r i n t   o u t   f o r   t i m e  s t e p   11602                              ( at time 5.7999195E+00 )

 nodal point  x-disp     y-disp      z-disp      x-vel       y-vel       z-vel      x-accl      y-accl      z-accl      x-coor      y-coor      z-coor
    22626 -1.56862E-03-4.87278E-02-1.82277E+01 1.31175E-02-9.10566E-03-3.13746E+00-1.72663E-03 3.32403E-02 1.29036E-01 4.79626E+01-2.20785E+01-1.08892E+01



 n o d a l   p r i n t   o u t   f o r   t i m e  s t e p   11602                              ( at time 5.7999195E+00 )

 nodal point  x-rot      y-rot       z-rot       x-rot vel   y-rot vel   z-rot vel   x-rot acc   y-rot acc   z-rot acc
    22626 -4.77829E-05 1.89351E-04 2.19768E-04-1.23009E-04 8.70350E-04 4.11045E-04 2.25592E-04 2.27373E-03-1.40764E-04



 n o d a l   p r i n t   o u t   f o r   t i m e  s t e p   11802                              ( at time 5.8999095E+00 )

 nodal point  x-disp     y-disp      z-disp      x-vel       y-vel       z-vel      x-accl      y-accl      z-accl      x-coor      y-coor      z-coor
    22626 -3.09201E-04-4.94883E-02-1.85404E+01 1.21916E-02-5.85067E-03-3.11776E+00-9.25999E-03 3.25532E-02 1.97066E-01 4.79639E+01-2.20793E+01-1.12019E+01



 n o d a l   p r i n t   o u t   f o r   t i m e  s t e p   11802                              ( at time 5.8999095E+00 )

 nodal point  x-rot      y-rot       z-rot       x-rot vel   y-rot vel   z-rot vel   x-rot acc   y-rot acc   z-rot acc
    22626 -5.82719E-05 2.90551E-04 2.58210E-04-8.74590E-05 1.15687E-03 3.74837E-04 3.55541E-04 2.86545E-03-3.62117E-04



 n o d a l   p r i n t   o u t   f o r   t i m e  s t e p   12002                              ( at time 5.9998995E+00 )

 nodal point  x-disp     y-disp      z-disp      x-vel       y-vel       z-vel      x-accl      y-accl      z-accl      x-coor      y-coor      z-coor
    22626  8.39938E-04-4.98938E-02-1.88510E+01 1.07138E-02-1.81969E-03-3.09412E+00-1.47798E-02 4.03139E-02 2.36387E-01 4.79650E+01-2.20797E+01-1.15125E+01



 n o d a l   p r i n t   o u t   f o r   t i m e  s t e p   12002                              ( at time 5.9998995E+00 )

 nodal point  x-rot      y-rot       z-rot       x-rot vel   y-rot vel   z-rot vel   x-rot acc   y-rot acc   z-rot acc
    22626 -6.47131E-05 4.23749E-04 2.91855E-04-3.97974E-05 1.51479E-03 3.06693E-04 4.76664E-04 3.57958E-03-6.81503E-04



 n o d a l   p r i n t   o u t   f o r   t i m e  s t e p   12202                              ( at time 6.0998895E+00 )

 nodal point  x-disp     y-disp      z-disp      x-vel       y-vel       z-vel      x-accl      y-accl      z-accl      x-coor      y-coor      z-coor
    22626  1.85076E-03-4.98552E-02-1.91591E+01 1.04611E-02 2.35774E-03-3.06573E+00-2.52633E-03 4.17783E-02 2.83960E-01 4.79660E+01-2.20796E+01-1.18206E+01



 n o d a l   p r i n t   o u t   f o r   t i m e  s t e p   12202                              ( at time 6.0998895E+00 )

 nodal point  x-rot      y-rot       z-rot       x-rot vel   y-rot vel   z-rot vel   x-rot acc   y-rot acc   z-rot acc
    22626 -6.59229E-05 5.93489E-04 3.18492E-04 7.84684E-06 1.89781E-03 2.39584E-04 4.76488E-04 3.83058E-03-6.71158E-04



 n o d a l   p r i n t   o u t   f o r   t i m e  s t e p   12402                              ( at time 6.1998795E+00 )

 nodal point  x-disp     y-disp      z-disp      x-vel       y-vel       z-vel      x-accl      y-accl      z-accl      x-coor      y-coor      z-coor
    22626  2.78561E-03-4.93409E-02-1.94641E+01 9.52950E-03 6.92069E-03-3.03438E+00-9.31734E-03 4.56342E-02 3.13478E-01 4.79670E+01-2.20791E+01-1.21256E+01



 n o d a l   p r i n t   o u t   f o r   t i m e  s t e p   12402                              ( at time 6.1998795E+00 )

 nodal point  x-rot      y-rot       z-rot       x-rot vel   y-rot vel   z-rot vel   x-rot acc   y-rot acc   z-rot acc
    22626 -5.95424E-05 8.02961E-04 3.37230E-04 1.14156E-04 2.30607E-03 1.59109E-04 1.06320E-03 4.08305E-03-8.04832E-04



 n o d a l   p r i n t   o u t   f o r   t i m e  s t e p   12602                              ( at time 6.2998695E+00 )

 nodal point  x-disp     y-disp      z-disp      x-vel       y-vel       z-vel      x-accl      y-accl      z-accl      x-coor      y-coor      z-coor
    22626  3.64948E-03-4.83478E-02-1.97658E+01 8.48097E-03 1.13842E-02-3.00136E+00-1.04864E-02 4.46392E-02 3.30236E-01 4.79678E+01-2.20781E+01-1.24273E+01



 n o d a l   p r i n t   o u t   f o r   t i m e  s t e p   12602                              ( at time 6.2998695E+00 )

 nodal point  x-rot      y-rot       z-rot       x-rot vel   y-rot vel   z-rot vel   x-rot acc   y-rot acc   z-rot acc
    22626 -4.47012E-05 1.05376E-03 3.46862E-04 1.91745E-04 2.72368E-03 5.18372E-05 7.75968E-04 4.17645E-03-1.07282E-03



 n o d a l   p r i n t   o u t   f o r   t i m e  s t e p   12802                              ( at time 6.3998595E+00 )

 nodal point  x-disp     y-disp      z-disp      x-vel       y-vel       z-vel      x-accl      y-accl      z-accl      x-coor      y-coor      z-coor
    22626  4.49023E-03-4.69293E-02-2.00642E+01 8.89364E-03 1.60869E-02-2.96712E+00 4.12714E-03 4.70320E-02 3.42509E-01 4.79687E+01-2.20767E+01-1.27257E+01



 n o d a l   p r i n t   o u t   f o r   t i m e  s t e p   12802                              ( at time 6.3998595E+00 )

 nodal point  x-rot      y-rot       z-rot       x-rot vel   y-rot vel   z-rot vel   x-rot acc   y-rot acc   z-rot acc
    22626 -2.05243E-05 1.34660E-03 3.45757E-04 2.88778E-04 3.14395E-03-4.74181E-05 9.70433E-04 4.20311E-03-9.92653E-04



 n o d a l   p r i n t   o u t   f o r   t i m e  s t e p   13002                              ( at time 6.4998495E+00 )

 nodal point  x-disp     y-disp      z-disp      x-vel       y-vel       z-vel      x-accl      y-accl      z-accl      x-coor      y-coor      z-coor
    22626  5.34717E-03-4.49287E-02-2.03590E+01 9.55884E-03 2.22854E-02-2.93024E+00 6.65261E-03 6.19917E-02 3.68778E-01 4.79695E+01-2.20747E+01-1.30205E+01



 n o d a l   p r i n t   o u t   f o r   t i m e  s t e p   13002                              ( at time 6.4998495E+00 )

 nodal point  x-rot      y-rot       z-rot       x-rot vel   y-rot vel   z-rot vel   x-rot acc   y-rot acc   z-rot acc
    22626  1.37997E-05 1.68155E-03 3.35172E-04 3.83786E-04 3.56253E-03-1.38216E-04 9.50169E-04 4.18630E-03-9.08074E-04



 n o d a l   p r i n t   o u t   f o r   t i m e  s t e p   13202                              ( at time 6.5998395E+00 )

 nodal point  x-disp     y-disp      z-disp      x-vel       y-vel       z-vel      x-accl      y-accl      z-accl      x-coor      y-coor      z-coor
    22626  6.24990E-03-4.24034E-02-2.06501E+01 9.59312E-03 2.69950E-02-2.89046E+00 3.42881E-04 4.71007E-02 3.97861E-01 4.79704E+01-2.20722E+01-1.33116E+01



 n o d a l   p r i n t   o u t   f o r   t i m e  s t e p   13202                              ( at time 6.5998395E+00 )

 nodal point  x-rot      y-rot       z-rot       x-rot vel   y-rot vel   z-rot vel   x-rot acc   y-rot acc   z-rot acc
    22626  5.87232E-05 2.05800E-03 3.14527E-04 4.88085E-04 3.98358E-03-2.42353E-04 1.04309E-03 4.21091E-03-1.04147E-03



 n o d a l   p r i n t   o u t   f o r   t i m e  s t e p   13402                              ( at time 6.6998295E+00 )

 nodal point  x-disp     y-disp      z-disp      x-vel       y-vel       z-vel      x-accl      y-accl      z-accl      x-coor      y-coor      z-coor
    22626  7.19924E-03-3.93842E-02-2.09372E+01 1.03370E-02 3.19692E-02-2.85371E+00 7.43940E-03 4.97462E-02 3.67552E-01 4.79714E+01-2.20692E+01-1.35987E+01



 n o d a l   p r i n t   o u t   f o r   t i m e  s t e p   13402                              ( at time 6.6998295E+00 )

 nodal point  x-rot      y-rot       z-rot       x-rot vel   y-rot vel   z-rot vel   x-rot acc   y-rot acc   z-rot acc
    22626  1.13764E-04 2.47337E-03 2.82887E-04 6.07234E-04 4.33872E-03-3.59689E-04 1.19162E-03 3.55174E-03-1.17347E-03



 n o d a l   p r i n t   o u t   f o r   t i m e  s t e p   13602                              ( at time 6.7998195E+00 )

 nodal point  x-disp     y-disp      z-disp      x-vel       y-vel       z-vel      x-accl      y-accl      z-accl      x-coor      y-coor      z-coor
    22626  8.33203E-03-3.59823E-02-2.12205E+01 1.22173E-02 3.55824E-02-2.81181E+00 1.88054E-02 3.61359E-02 4.19082E-01 4.79725E+01-2.20658E+01-1.38820E+01



 n o d a l   p r i n t   o u t   f o r   t i m e  s t e p   13602                              ( at time 6.7998195E+00 )

 nodal point  x-rot      y-rot       z-rot       x-rot vel   y-rot vel   z-rot vel   x-rot acc   y-rot acc   z-rot acc
    22626  1.80568E-04 2.92632E-03 2.40450E-04 7.33210E-04 4.70655E-03-4.75688E-04 1.25989E-03 3.67861E-03-1.16011E-03



 n o d a l   p r i n t   o u t   f o r   t i m e  s t e p   13802                              ( at time 6.8998095E+00 )

 nodal point  x-disp     y-disp      z-disp      x-vel       y-vel       z-vel      x-accl      y-accl      z-accl      x-coor      y-coor      z-coor
    22626  9.74379E-03-3.20988E-02-2.14995E+01 1.53277E-02 4.19838E-02-2.77002E+00 3.11063E-02 6.40203E-02 4.17845E-01 4.79739E+01-2.20619E+01-1.41610E+01



 n o d a l   p r i n t   o u t   f o r   t i m e  s t e p   13802                              ( at time 6.8998095E+00 )

 nodal point  x-rot      y-rot       z-rot       x-rot vel   y-rot vel   z-rot vel   x-rot acc   y-rot acc   z-rot acc
    22626  2.60809E-04 3.41277E-03 1.88147E-04 8.86045E-04 5.02065E-03-5.87446E-04 1.52850E-03 3.14138E-03-1.11769E-03



 n o d a l   p r i n t   o u t   f o r   t i m e  s t e p   14002                              ( at time 6.9997995E+00 )

 nodal point  x-disp     y-disp      z-disp      x-vel       y-vel       z-vel      x-accl      y-accl      z-accl      x-coor      y-coor      z-coor
    22626  1.14173E-02-2.77571E-02-2.17744E+01 1.84662E-02 4.44232E-02-2.72757E+00 3.13891E-02 2.43964E-02 4.24545E-01 4.79756E+01-2.20575E+01-1.44359E+01



 n o d a l   p r i n t   o u t   f o r   t i m e  s t e p   14002                              ( at time 6.9997995E+00 )

 nodal point  x-rot      y-rot       z-rot       x-rot vel   y-rot vel   z-rot vel   x-rot acc   y-rot acc   z-rot acc
    22626  3.55935E-04 3.93136E-03 1.26179E-04 1.02003E-03 5.34550E-03-6.59686E-04 1.33994E-03 3.24881E-03-7.22480E-04



 n o d a l   p r i n t   o u t   f o r   t i m e  s t e p   14202                              ( at time 7.0997895E+00 )

 nodal point  x-disp     y-disp      z-disp      x-vel       y-vel       z-vel      x-accl      y-accl      z-accl      x-coor      y-coor      z-coor
    22626  1.35187E-02-2.31314E-02-2.20448E+01 2.25489E-02 4.82859E-02-2.68309E+00 4.08308E-02 3.86309E-02 4.44901E-01 4.79777E+01-2.20529E+01-1.47063E+01



 n o d a l   p r i n t   o u t   f o r   t i m e  s t e p   14202                              ( at time 7.0997895E+00 )

 nodal point  x-rot      y-rot       z-rot       x-rot vel   y-rot vel   z-rot vel   x-rot acc   y-rot acc   z-rot acc
    22626  4.66383E-04 4.47928E-03 5.52247E-05 1.21135E-03 5.61140E-03-7.47240E-04 1.91346E-03 2.65929E-03-8.75624E-04



 n o d a l   p r i n t   o u t   f o r   t i m e  s t e p   14402                              ( at time 7.1997794E+00 )

 nodal point  x-disp     y-disp      z-disp      x-vel       y-vel       z-vel      x-accl      y-accl      z-accl      x-coor      y-coor      z-coor
    22626  1.60355E-02-1.80960E-02-2.23109E+01 2.71028E-02 5.24548E-02-2.63892E+00 4.55434E-02 4.16933E-02 4.41744E-01 4.79802E+01-2.20479E+01-1.49724E+01



 n o d a l   p r i n t   o u t   f o r   t i m e  s t e p   14402                              ( at time 7.1997794E+00 )

 nodal point  x-rot      y-rot       z-rot       x-rot vel   y-rot vel   z-rot vel   x-rot acc   y-rot acc   z-rot acc
    22626  5.97551E-04 5.05384E-03-2.38766E-05 1.38469E-03 5.88655E-03-8.36527E-04 1.73356E-03 2.75179E-03-8.92960E-04



 n o d a l   p r i n t   o u t   f o r   t i m e  s t e p   14602                              ( at time 7.2997694E+00 )

 nodal point  x-disp     y-disp      z-disp      x-vel       y-vel       z-vel      x-accl      y-accl      z-accl      x-coor      y-coor      z-coor
    22626  1.89989E-02-1.27721E-02-2.25724E+01 3.15131E-02 5.44302E-02-2.59153E+00 4.41070E-02 1.97563E-02 4.73950E-01 4.79832E+01-2.20426E+01-1.52339E+01



 n o d a l   p r i n t   o u t   f o r   t i m e  s t e p   14602                              ( at time 7.2997694E+00 )

 nodal point  x-rot      y-rot       z-rot       x-rot vel   y-rot vel   z-rot vel   x-rot acc   y-rot acc   z-rot acc
    22626  7.46689E-04 5.65742E-03-1.09781E-04 1.59562E-03 6.16373E-03-9.00747E-04 2.10949E-03 2.77207E-03-6.42258E-04



 n o d a l   p r i n t   o u t   f o r   t i m e  s t e p   14802                              ( at time 7.3997594E+00 )

 nodal point  x-disp     y-disp      z-disp      x-vel       y-vel       z-vel      x-accl      y-accl      z-accl      x-coor      y-coor      z-coor
    22626  2.24573E-02-7.06222E-03-2.28290E+01 3.66587E-02 5.83881E-02-2.54036E+00 5.14614E-02 3.95825E-02 5.11731E-01 4.79866E+01-2.20369E+01-1.54905E+01



 n o d a l   p r i n t   o u t   f o r   t i m e  s t e p   14802                              ( at time 7.3997594E+00 )

 nodal point  x-rot      y-rot       z-rot       x-rot vel   y-rot vel   z-rot vel   x-rot acc   y-rot acc   z-rot acc
    22626  9.19917E-04 6.28628E-03-2.03875E-04 1.82480E-03 6.43487E-03-9.75911E-04 2.29209E-03 2.71160E-03-7.51718E-04



 n o d a l   p r i n t   o u t   f o r   t i m e  s t e p   15002                              ( at time 7.4997494E+00 )

 nodal point  x-disp     y-disp      z-disp      x-vel       y-vel       z-vel      x-accl      y-accl      z-accl      x-coor      y-coor      z-coor
    22626  2.65039E-02-1.11486E-03-2.30803E+01 4.26990E-02 6.08163E-02-2.48564E+00 6.04088E-02 2.42842E-02 5.47302E-01 4.79907E+01-2.20309E+01-1.57418E+01



 n o d a l   p r i n t   o u t   f o r   t i m e  s t e p   15002                              ( at time 7.4997494E+00 )

 nodal point  x-rot      y-rot       z-rot       x-rot vel   y-rot vel   z-rot vel   x-rot acc   y-rot acc   z-rot acc
    22626  1.11478E-03 6.94185E-03-3.05631E-04 2.08517E-03 6.71954E-03-1.03736E-03 2.60386E-03 2.84706E-03-6.14510E-04



 n o d a l   p r i n t   o u t   f o r   t i m e  s t e p   15202                              ( at time 7.5997394E+00 )

 nodal point  x-disp     y-disp      z-disp      x-vel       y-vel       z-vel      x-accl      y-accl      z-accl      x-coor      y-coor      z-coor
    22626  3.11307E-02 5.16692E-03-2.33261E+01 4.90207E-02 6.47752E-02-2.42900E+00 6.32232E-02 3.95938E-02 5.66449E-01 4.79953E+01-2.20246E+01-1.59876E+01



 n o d a l   p r i n t   o u t   f o r   t i m e  s t e p   15202                              ( at time 7.5997394E+00 )

 nodal point  x-rot      y-rot       z-rot       x-rot vel   y-rot vel   z-rot vel   x-rot acc   y-rot acc   z-rot acc
    22626  1.33698E-03 7.62208E-03-4.13007E-04 2.36998E-03 6.93637E-03-1.09899E-03 2.84841E-03 2.16850E-03-6.16357E-04



 n o d a l   p r i n t   o u t   f o r   t i m e  s t e p   15402                              ( at time 7.6997294E+00 )

 nodal point  x-disp     y-disp      z-disp      x-vel       y-vel       z-vel      x-accl      y-accl      z-accl      x-coor      y-coor      z-coor
    22626  3.63931E-02 1.17657E-02-2.35658E+01 5.61895E-02 6.59289E-02-2.36792E+00 7.16956E-02 1.15377E-02 6.10783E-01 4.80006E+01-2.20180E+01-1.62273E+01



 n o d a l   p r i n t   o u t   f o r   t i m e  s t e p   15402                              ( at time 7.6997294E+00 )

 nodal point  x-rot      y-rot       z-rot       x-rot vel   y-rot vel   z-rot vel   x-rot acc   y-rot acc   z-rot acc
    22626  1.58622E-03 8.32685E-03-5.27681E-04 2.64618E-03 7.15652E-03-1.17706E-03 2.76231E-03 2.20173E-03-7.80875E-04



 n o d a l   p r i n t   o u t   f o r   t i m e  s t e p   15602                              ( at time 7.7997194E+00 )

 nodal point  x-disp     y-disp      z-disp      x-vel       y-vel       z-vel      x-accl      y-accl      z-accl      x-coor      y-coor      z-coor
    22626  4.24382E-02 1.86032E-02-2.37993E+01 6.33884E-02 6.98874E-02-2.30300E+00 7.19964E-02 3.95894E-02 6.49275E-01 4.80066E+01-2.20112E+01-1.64608E+01



 n o d a l   p r i n t   o u t   f o r   t i m e  s t e p   15602                              ( at time 7.7997194E+00 )

 nodal point  x-rot      y-rot       z-rot       x-rot vel   y-rot vel   z-rot vel   x-rot acc   y-rot acc   z-rot acc
    22626  1.86779E-03 9.05429E-03-6.48851E-04 2.97230E-03 7.38396E-03-1.21536E-03 3.26157E-03 2.27464E-03-3.82983E-04



 n o d a l   p r i n t   o u t   f o r   t i m e  s t e p   15802                              ( at time 7.8997094E+00 )

 nodal point  x-disp     y-disp      z-disp      x-vel       y-vel       z-vel      x-accl      y-accl      z-accl      x-coor      y-coor      z-coor
    22626  4.92289E-02 2.57458E-02-2.40264E+01 7.11534E-02 7.27267E-02-2.23644E+00 7.76572E-02 2.83960E-02 6.65672E-01 4.80134E+01-2.20040E+01-1.66879E+01



 n o d a l   p r i n t   o u t   f o r   t i m e  s t e p   15802                              ( at time 7.8997094E+00 )

 nodal point  x-rot      y-rot       z-rot       x-rot vel   y-rot vel   z-rot vel   x-rot acc   y-rot acc   z-rot acc
    22626  2.18298E-03 9.80106E-03-7.74895E-04 3.30426E-03 7.58885E-03-1.26703E-03 3.31985E-03 2.04903E-03-5.16783E-04



 n o d a l   p r i n t   o u t   f o r   t i m e  s t e p   16002                              ( at time 7.9996994E+00 )

 nodal point  x-disp     y-disp      z-disp      x-vel       y-vel       z-vel      x-accl      y-accl      z-accl      x-coor      y-coor      z-coor
    22626  5.67907E-02 3.31953E-02-2.42468E+01 7.90186E-02 7.53503E-02-2.17064E+00 7.86600E-02 2.62384E-02 6.58132E-01 4.80210E+01-2.19966E+01-1.69083E+01



 n o d a l   p r i n t   o u t   f o r   t i m e  s t e p   16002                              ( at time 7.9996994E+00 )

 nodal point  x-rot      y-rot       z-rot       x-rot vel   y-rot vel   z-rot vel   x-rot acc   y-rot acc   z-rot acc
    22626  2.53235E-03 1.05677E-02-9.07281E-04 3.68749E-03 7.78041E-03-1.30643E-03 3.83273E-03 1.91585E-03-3.93996E-04



 n o d a l   p r i n t   o u t   f o r   t i m e  s t e p   16202                              ( at time 8.0996894E+00 )

 nodal point  x-disp     y-disp      z-disp      x-vel       y-vel       z-vel      x-accl      y-accl      z-accl      x-coor      y-coor      z-coor
    22626  6.52031E-02 4.07946E-02-2.44604E+01 8.89848E-02 7.57274E-02-2.10154E+00 9.96725E-02 3.77067E-03 6.91067E-01 4.80294E+01-2.19890E+01-1.71219E+01



 n o d a l   p r i n t   o u t   f o r   t i m e  s t e p   16202                              ( at time 8.0996894E+00 )

 nodal point  x-rot      y-rot       z-rot       x-rot vel   y-rot vel   z-rot vel   x-rot acc   y-rot acc   z-rot acc
    22626  2.91944E-03 1.13522E-02-1.04452E-03 4.06186E-03 7.92863E-03-1.39058E-03 3.74406E-03 1.48232E-03-8.41578E-04



 n o d a l   p r i n t   o u t   f o r   t i m e  s t e p   16402                              ( at time 8.1996794E+00 )

 nodal point  x-disp     y-disp      z-disp      x-vel       y-vel       z-vel      x-accl      y-accl      z-accl      x-coor      y-coor      z-coor
    22626  7.45064E-02 4.86253E-02-2.46670E+01 9.74276E-02 8.05363E-02-2.03273E+00 8.44359E-02 4.80942E-02 6.88143E-01 4.80387E+01-2.19812E+01-1.73285E+01



 n o d a l   p r i n t   o u t   f o r   t i m e  s t e p   16402                              ( at time 8.1996794E+00 )

 nodal point  x-rot      y-rot       z-rot       x-rot vel   y-rot vel   z-rot vel   x-rot acc   y-rot acc   z-rot acc
    22626  3.34364E-03 1.21536E-02-1.18743E-03 4.42818E-03 8.10088E-03-1.44754E-03 3.66358E-03 1.72267E-03-5.69687E-04



 n o d a l   p r i n t   o u t   f o r   t i m e  s t e p   16602                              ( at time 8.2996694E+00 )

 nodal point  x-disp     y-disp      z-disp      x-vel       y-vel       z-vel      x-accl      y-accl      z-accl      x-coor      y-coor      z-coor
    22626  8.46886E-02 5.67522E-02-2.48668E+01 1.06117E-01 8.05850E-02-1.96185E+00 8.69074E-02 4.86721E-04 7.08815E-01 4.80489E+01-2.19730E+01-1.75283E+01



 n o d a l   p r i n t   o u t   f o r   t i m e  s t e p   16602                              ( at time 8.2996694E+00 )

 nodal point  x-rot      y-rot       z-rot       x-rot vel   y-rot vel   z-rot vel   x-rot acc   y-rot acc   z-rot acc
    22626  3.80597E-03 1.29705E-02-1.33432E-03 4.80122E-03 8.25668E-03-1.47323E-03 3.73082E-03 1.55815E-03-2.56882E-04



 n o d a l   p r i n t   o u t   f o r   t i m e  s t e p   16802                              ( at time 8.3996594E+00 )

 nodal point  x-disp     y-disp      z-disp      x-vel       y-vel       z-vel      x-accl      y-accl      z-accl      x-coor      y-coor      z-coor
    22626  9.58540E-02 6.49036E-02-2.50595E+01 1.16843E-01 8.23274E-02-1.89140E+00 1.07264E-01 1.74261E-02 7.04666E-01 4.80600E+01-2.19649E+01-1.77210E+01



 n o d a l   p r i n t   o u t   f o r   t i m e  s t e p   16802                              ( at time 8.3996594E+00 )

 nodal point  x-rot      y-rot       z-rot       x-rot vel   y-rot vel   z-rot vel   x-rot acc   y-rot acc   z-rot acc
    22626  4.30561E-03 1.38010E-02-1.48603E-03 5.17134E-03 8.39382E-03-1.52396E-03 3.70149E-03 1.37155E-03-5.07357E-04



 n o d a l   p r i n t   o u t   f o r   t i m e  s t e p   17002                              ( at time 8.4996494E+00 )

 nodal point  x-disp     y-disp      z-disp      x-vel       y-vel       z-vel      x-accl      y-accl      z-accl      x-coor      y-coor      z-coor
    22626  1.07994E-01 7.32610E-02-2.52450E+01 1.27542E-01 8.24107E-02-1.82053E+00 1.07000E-01 8.33134E-04 7.08741E-01 4.80722E+01-2.19565E+01-1.79065E+01



 n o d a l   p r i n t   o u t   f o r   t i m e  s t e p   17002                              ( at time 8.4996494E+00 )

 nodal point  x-rot      y-rot       z-rot       x-rot vel   y-rot vel   z-rot vel   x-rot acc   y-rot acc   z-rot acc
    22626  4.84285E-03 1.46445E-02-1.64265E-03 5.57173E-03 8.49731E-03-1.55511E-03 4.00436E-03 1.03505E-03-3.11545E-04



 n o d a l   p r i n t   o u t   f o r   t i m e  s t e p   17202                              ( at time 8.5996394E+00 )

 nodal point  x-disp     y-disp      z-disp      x-vel       y-vel       z-vel      x-accl      y-accl      z-accl      x-coor      y-coor      z-coor
    22626  1.21178E-01 8.16637E-02-2.54232E+01 1.37637E-01 8.48026E-02-1.74476E+00 1.00966E-01 2.39212E-02 7.57753E-01 4.80854E+01-2.19481E+01-1.80847E+01



 n o d a l   p r i n t   o u t   f o r   t i m e  s t e p   17202                              ( at time 8.5996394E+00 )

 nodal point  x-rot      y-rot       z-rot       x-rot vel   y-rot vel   z-rot vel   x-rot acc   y-rot acc   z-rot acc
    22626  5.41987E-03 1.54996E-02-1.80174E-03 5.96704E-03 8.59294E-03-1.62051E-03 3.95348E-03 9.56304E-04-6.54092E-04



 n o d a l   p r i n t   o u t   f o r   t i m e  s t e p   17402                              ( at time 8.6996293E+00 )

 nodal point  x-disp     y-disp      z-disp      x-vel       y-vel       z-vel      x-accl      y-accl      z-accl      x-coor      y-coor      z-coor
    22626  1.35468E-01 9.00345E-02-2.55940E+01 1.48703E-01 8.38539E-02-1.67107E+00 1.10672E-01-9.48762E-03 7.36960E-01 4.80996E+01-2.19398E+01-1.82555E+01



 n o d a l   p r i n t   o u t   f o r   t i m e  s t e p   17402                              ( at time 8.6996293E+00 )

 nodal point  x-rot      y-rot       z-rot       x-rot vel   y-rot vel   z-rot vel   x-rot acc   y-rot acc   z-rot acc
    22626  6.03471E-03 1.63624E-02-1.96446E-03 6.35303E-03 8.67586E-03-1.66326E-03 3.86022E-03 8.29288E-04-4.27503E-04



 n o d a l   p r i n t   o u t   f o r   t i m e  s t e p   17602                              ( at time 8.7996193E+00 )

 nodal point  x-disp     y-disp      z-disp      x-vel       y-vel       z-vel      x-accl      y-accl      z-accl      x-coor      y-coor      z-coor
    22626  1.50856E-01 9.82640E-02-2.57573E+01 1.57599E-01 8.05519E-02-1.59559E+00 8.89604E-02-3.30234E-02 7.54880E-01 4.81150E+01-2.19315E+01-1.84188E+01



 n o d a l   p r i n t   o u t   f o r   t i m e  s t e p   17602                              ( at time 8.7996193E+00 )

 nodal point  x-rot      y-rot       z-rot       x-rot vel   y-rot vel   z-rot vel   x-rot acc   y-rot acc   z-rot acc
    22626  6.69034E-03 1.72362E-02-2.13242E-03 6.76151E-03 8.78303E-03-1.67057E-03 4.08528E-03 1.07189E-03-7.31593E-05



 n o d a l   p r i n t   o u t   f o r   t i m e  s t e p   17802                              ( at time 8.8996093E+00 )

 nodal point  x-disp     y-disp      z-disp      x-vel       y-vel       z-vel      x-accl      y-accl      z-accl      x-coor      y-coor      z-coor
    22626  1.67239E-01 1.06363E-01-2.59131E+01 1.69821E-01 7.87913E-02-1.52068E+00 1.22234E-01-1.76076E-02 7.49179E-01 4.81314E+01-2.19234E+01-1.85746E+01



 n o d a l   p r i n t   o u t   f o r   t i m e  s t e p   17802                              ( at time 8.8996093E+00 )

 nodal point  x-rot      y-rot       z-rot       x-rot vel   y-rot vel   z-rot vel   x-rot acc   y-rot acc   z-rot acc
    22626  7.38611E-03 1.81173E-02-2.30315E-03 7.13507E-03 8.86732E-03-1.71236E-03 3.73591E-03 8.42969E-04-4.17967E-04



 n o d a l   p r i n t   o u t   f o r   t i m e  s t e p   18002                              ( at time 8.9995993E+00 )

 nodal point  x-disp     y-disp      z-disp      x-vel       y-vel       z-vel      x-accl      y-accl      z-accl      x-coor      y-coor      z-coor
    22626  1.84693E-01 1.14089E-01-2.60614E+01 1.80523E-01 7.43093E-02-1.44515E+00 1.07038E-01-4.48245E-02 7.55388E-01 4.81489E+01-2.19157E+01-1.87229E+01



 n o d a l   p r i n t   o u t   f o r   t i m e  s t e p   18002                              ( at time 8.9995993E+00 )

 nodal point  x-rot      y-rot       z-rot       x-rot vel   y-rot vel   z-rot vel   x-rot acc   y-rot acc   z-rot acc
    22626  8.12102E-03 1.90060E-02-2.47788E-03 7.54916E-03 8.92594E-03-1.75135E-03 4.14135E-03 5.86215E-04-3.89928E-04



 n o d a l   p r i n t   o u t   f o r   t i m e  s t e p   18202                              ( at time 9.0995893E+00 )

 nodal point  x-disp     y-disp      z-disp      x-vel       y-vel       z-vel      x-accl      y-accl      z-accl      x-coor      y-coor      z-coor
    22626  2.03236E-01 1.21530E-01-2.62019E+01 1.90330E-01 7.22492E-02-1.36730E+00 9.80719E-02-2.06031E-02 7.78594E-01 4.81674E+01-2.19083E+01-1.88634E+01



 n o d a l   p r i n t   o u t   f o r   t i m e  s t e p   18202                              ( at time 9.0995893E+00 )

 nodal point  x-rot      y-rot       z-rot       x-rot vel   y-rot vel   z-rot vel   x-rot acc   y-rot acc   z-rot acc
    22626  8.89765E-03 1.99039E-02-2.65499E-03 7.97905E-03 9.01143E-03-1.79258E-03 4.29937E-03 8.54994E-04-4.12292E-04



 n o d a l   p r i n t   o u t   f o r   t i m e  s t e p   18402                              ( at time 9.1995793E+00 )

 nodal point  x-disp     y-disp      z-disp      x-vel       y-vel       z-vel      x-accl      y-accl      z-accl      x-coor      y-coor      z-coor
    22626  2.22826E-01 1.28659E-01-2.63346E+01 2.00894E-01 7.01409E-02-1.28826E+00 1.05657E-01-2.10850E-02 7.90465E-01 4.81870E+01-2.19011E+01-1.89961E+01



 n o d a l   p r i n t   o u t   f o r   t i m e  s t e p   18402                              ( at time 9.1995793E+00 )

 nodal point  x-rot      y-rot       z-rot       x-rot vel   y-rot vel   z-rot vel   x-rot acc   y-rot acc   z-rot acc
    22626  9.71784E-03 2.08082E-02-2.83645E-03 8.40736E-03 9.07775E-03-1.83315E-03 4.28346E-03 6.63262E-04-4.05783E-04



 n o d a l   p r i n t   o u t   f o r   t i m e  s t e p   18602                              ( at time 9.2995693E+00 )

 nodal point  x-disp     y-disp      z-disp      x-vel       y-vel       z-vel      x-accl      y-accl      z-accl      x-coor      y-coor      z-coor
    22626  2.43607E-01 1.35388E-01-2.64595E+01 2.12950E-01 6.41219E-02-1.20710E+00 1.20573E-01-6.01966E-02 8.11714E-01 4.82078E+01-2.18944E+01-1.91210E+01



 n o d a l   p r i n t   o u t   f o r   t i m e  s t e p   18602                              ( at time 9.2995693E+00 )

 nodal point  x-rot      y-rot       z-rot       x-rot vel   y-rot vel   z-rot vel   x-rot acc   y-rot acc   z-rot acc
    22626  1.05792E-02 2.17188E-02-3.02134E-03 8.83466E-03 9.14246E-03-1.85579E-03 4.27344E-03 6.47176E-04-2.26361E-04



 n o d a l   p r i n t   o u t   f o r   t i m e  s t e p   18802                              ( at time 9.3995593E+00 )

 nodal point  x-disp     y-disp      z-disp      x-vel       y-vel       z-vel      x-accl      y-accl      z-accl      x-coor      y-coor      z-coor
    22626  2.65364E-01 1.41518E-01-2.65761E+01 2.23537E-01 6.02078E-02-1.12659E+00 1.05877E-01-3.91450E-02 8.05165E-01 4.82295E+01-2.18883E+01-1.92376E+01



 n o d a l   p r i n t   o u t   f o r   t i m e  s t e p   18802                              ( at time 9.3995593E+00 )

 nodal point  x-rot      y-rot       z-rot       x-rot vel   y-rot vel   z-rot vel   x-rot acc   y-rot acc   z-rot acc
    22626  1.14836E-02 2.26363E-02-3.20978E-03 9.25639E-03 9.20892E-03-1.91365E-03 4.21773E-03 6.64640E-04-5.78693E-04



 n o d a l   p r i n t   o u t   f o r   t i m e  s t e p   19002                              ( at time 9.4995493E+00 )

 nodal point  x-disp     y-disp      z-disp      x-vel       y-vel       z-vel      x-accl      y-accl      z-accl      x-coor      y-coor      z-coor
    22626  2.88102E-01 1.47297E-01-2.66848E+01 2.32704E-01 5.55337E-02-1.04522E+00 9.16750E-02-4.67457E-02 8.13727E-01 4.82523E+01-2.18825E+01-1.93463E+01



 n o d a l   p r i n t   o u t   f o r   t i m e  s t e p   19002                              ( at time 9.4995493E+00 )

 nodal point  x-rot      y-rot       z-rot       x-rot vel   y-rot vel   z-rot vel   x-rot acc   y-rot acc   z-rot acc
    22626  1.24298E-02 2.35604E-02-3.40368E-03 9.69708E-03 9.28596E-03-1.98615E-03 4.40741E-03 7.70505E-04-7.25102E-04



 n o d a l   p r i n t   o u t   f o r   t i m e  s t e p   19202                              ( at time 9.5995393E+00 )

 nodal point  x-disp     y-disp      z-disp      x-vel       y-vel       z-vel      x-accl      y-accl      z-accl      x-coor      y-coor      z-coor
    22626  3.11922E-01 1.52500E-01-2.67853E+01 2.42527E-01 4.83474E-02-9.64670E-01 9.82465E-02-7.18694E-02 8.05614E-01 4.82761E+01-2.18773E+01-1.94468E+01



 n o d a l   p r i n t   o u t   f o r   t i m e  s t e p   19202                              ( at time 9.5995393E+00 )

 nodal point  x-rot      y-rot       z-rot       x-rot vel   y-rot vel   z-rot vel   x-rot acc   y-rot acc   z-rot acc
    22626  1.34189E-02 2.44930E-02-3.60149E-03 1.00972E-02 9.34596E-03-1.97182E-03 4.00174E-03 6.00004E-04 1.43323E-04



 n o d a l   p r i n t   o u t   f o r   t i m e  s t e p   19402                              ( at time 9.6995293E+00 )

 nodal point  x-disp     y-disp      z-disp      x-vel       y-vel       z-vel      x-accl      y-accl      z-accl      x-coor      y-coor      z-coor
    22626  3.36629E-01 1.57112E-01-2.68775E+01 2.50414E-01 4.33516E-02-8.83874E-01 7.88746E-02-4.99626E-02 8.08042E-01 4.83008E+01-2.18727E+01-1.95390E+01



 n o d a l   p r i n t   o u t   f o r   t i m e  s t e p   19402                              ( at time 9.6995293E+00 )

 nodal point  x-rot      y-rot       z-rot       x-rot vel   y-rot vel   z-rot vel   x-rot acc   y-rot acc   z-rot acc
    22626  1.44476E-02 2.54334E-02-3.80240E-03 1.05013E-02 9.42561E-03-2.04524E-03 4.04113E-03 7.96659E-04-7.34280E-04



 n o d a l   p r i n t   o u t   f o r   t i m e  s t e p   19602                              ( at time 9.7995193E+00 )

 nodal point  x-disp     y-disp      z-disp      x-vel       y-vel       z-vel      x-accl      y-accl      z-accl      x-coor      y-coor      z-coor
    22626  3.62309E-01 1.61182E-01-2.69619E+01 2.62027E-01 3.70180E-02-8.01459E-01 1.16139E-01-6.33432E-02 8.24227E-01 4.83265E+01-2.18686E+01-1.96234E+01



 n o d a l   p r i n t   o u t   f o r   t i m e  s t e p   19602                              ( at time 9.7995193E+00 )

 nodal point  x-rot      y-rot       z-rot       x-rot vel   y-rot vel   z-rot vel   x-rot acc   y-rot acc   z-rot acc
    22626  1.55185E-02 2.63804E-02-4.00916E-03 1.08886E-02 9.53455E-03-2.07777E-03 3.87386E-03 1.08943E-03-3.25260E-04



 n o d a l   p r i n t   o u t   f o r   t i m e  s t e p   19802                              ( at time 9.8995093E+00 )

 nodal point  x-disp     y-disp      z-disp      x-vel       y-vel       z-vel      x-accl      y-accl      z-accl      x-coor      y-coor      z-coor
    22626  3.88894E-01 1.64607E-01-2.70379E+01 2.71164E-01 3.19303E-02-7.21193E-01 9.13799E-02-5.08812E-02 8.02748E-01 4.83531E+01-2.18652E+01-1.96994E+01



 n o d a l   p r i n t   o u t   f o r   t i m e  s t e p   19802                              ( at time 9.8995093E+00 )

 nodal point  x-rot      y-rot       z-rot       x-rot vel   y-rot vel   z-rot vel   x-rot acc   y-rot acc   z-rot acc
    22626  1.66285E-02 2.73390E-02-4.22163E-03 1.13231E-02 9.63722E-03-2.15126E-03 4.34548E-03 1.02690E-03-7.35030E-04



 n o d a l   p r i n t   o u t   f o r   t i m e  s t e p   20003                              ( at time 9.9999992E+00 )

 nodal point  x-disp     y-disp      z-disp      x-vel       y-vel       z-vel      x-accl      y-accl      z-accl      x-coor      y-coor      z-coor
[...]
    22626  2.24744E-01 1.45819E-01-4.83928E-02 1.63106E-02 6.53250E-03-4.81605E-03 1.38333E-04-6.17477E-05 2.37015E-04



 n o d a l   p r i n t   o u t   f o r   t i m e  s t e p   45205                              ( at time 2.2599738E+01 )

 nodal point  x-disp     y-disp      z-disp      x-vel       y-vel       z-vel      x-accl      y-accl      z-accl      x-coor      y-coor      z-coor
    22626  4.42052E+00-7.37237E-01-2.17608E+01 2.59501E-01-1.22762E-01 4.82781E-01 5.16462E-03-5.32504E-03 2.96206E-02 5.23847E+01-2.27670E+01-1.44223E+01



 n o d a l   p r i n t   o u t   f o r   t i m e  s t e p   45205                              ( at time 2.2599738E+01 )

 nodal point  x-rot      y-rot       z-rot       x-rot vel   y-rot vel   z-rot vel   x-rot acc   y-rot acc   z-rot acc
    22626  2.26375E-01 1.46472E-01-4.88726E-02 1.63088E-02 6.51584E-03-4.77780E-03-1.73614E-05-1.66610E-04 3.82529E-04



 n o d a l   p r i n t   o u t   f o r   t i m e  s t e p   45405                              ( at time 2.2699728E+01 )

 nodal point  x-disp     y-disp      z-disp      x-vel       y-vel       z-vel      x-accl      y-accl      z-accl      x-coor      y-coor      z-coor
    22626  4.44644E+00-7.49537E-01-2.17123E+01 2.60067E-01-1.23328E-01 4.87388E-01 5.66754E-03-5.66351E-03 4.60804E-02 5.24106E+01-2.27793E+01-1.43738E+01



 n o d a l   p r i n t   o u t   f o r   t i m e  s t e p   45405                              ( at time 2.2699728E+01 )

 nodal point  x-rot      y-rot       z-rot       x-rot vel   y-rot vel   z-rot vel   x-rot acc   y-rot acc   z-rot acc
    22626  2.28005E-01 1.47124E-01-4.93498E-02 1.62958E-02 6.51636E-03-4.74944E-03-1.30567E-04 5.23461E-06 2.83573E-04



 n o d a l   p r i n t   o u t   f o r   t i m e  s t e p   45605                              ( at time 2.2799718E+01 )

 nodal point  x-disp     y-disp      z-disp      x-vel       y-vel       z-vel      x-accl      y-accl      z-accl      x-coor      y-coor      z-coor
    22626  4.47247E+00-7.61828E-01-2.16634E+01 2.61676E-01-1.23290E-01 4.89665E-01 1.60867E-02 3.75320E-04 2.27654E-02 5.24366E+01-2.27916E+01-1.43249E+01



 n o d a l   p r i n t   o u t   f o r   t i m e  s t e p   45605                              ( at time 2.2799718E+01 )

 nodal point  x-rot      y-rot       z-rot       x-rot vel   y-rot vel   z-rot vel   x-rot acc   y-rot acc   z-rot acc
    22626  2.29633E-01 1.47775E-01-4.98240E-02 1.62808E-02 6.51461E-03-4.72606E-03-1.49826E-04-1.75338E-05 2.33830E-04



 n o d a l   p r i n t   o u t   f o r   t i m e  s t e p   45805                              ( at time 2.2899708E+01 )

 nodal point  x-disp     y-disp      z-disp      x-vel       y-vel       z-vel      x-accl      y-accl      z-accl      x-coor      y-coor      z-coor
    22626  4.49864E+00-7.74222E-01-2.16143E+01 2.62164E-01-1.24700E-01 4.93120E-01 4.88365E-03-1.41002E-02 3.45593E-02 5.24628E+01-2.28040E+01-1.42758E+01



 n o d a l   p r i n t   o u t   f o r   t i m e  s t e p   45805                              ( at time 2.2899708E+01 )

 nodal point  x-rot      y-rot       z-rot       x-rot vel   y-rot vel   z-rot vel   x-rot acc   y-rot acc   z-rot acc
    22626  2.31260E-01 1.48427E-01-5.02945E-02 1.62620E-02 6.51738E-03-4.69169E-03-1.87980E-04 2.77518E-05 3.43775E-04



 n o d a l   p r i n t   o u t   f o r   t i m e  s t e p   46005                              ( at time 2.2999698E+01 )

 nodal point  x-disp     y-disp      z-disp      x-vel       y-vel       z-vel      x-accl      y-accl      z-accl      x-coor      y-coor      z-coor
    22626  4.52499E+00-7.86771E-01-2.15649E+01 2.64303E-01-1.26345E-01 4.95578E-01 2.13884E-02-1.64436E-02 2.45778E-02 5.24892E+01-2.28166E+01-1.42264E+01



 n o d a l   p r i n t   o u t   f o r   t i m e  s t e p   46005                              ( at time 2.2999698E+01 )

 nodal point  x-rot      y-rot       z-rot       x-rot vel   y-rot vel   z-rot vel   x-rot acc   y-rot acc   z-rot acc
    22626  2.32887E-01 1.49079E-01-5.07612E-02 1.62591E-02 6.52284E-03-4.66323E-03-2.86874E-05 5.45432E-05 2.84634E-04



 n o d a l   p r i n t   o u t   f o r   t i m e  s t e p   46205                              ( at time 2.3099688E+01 )

 nodal point  x-disp     y-disp      z-disp      x-vel       y-vel       z-vel      x-accl      y-accl      z-accl      x-coor      y-coor      z-coor
    22626  4.55149E+00-7.99474E-01-2.15153E+01 2.65790E-01-1.27792E-01 4.95959E-01 1.48706E-02-1.44744E-02 3.81244E-03 5.25157E+01-2.28293E+01-1.41768E+01



 n o d a l   p r i n t   o u t   f o r   t i m e  s t e p   46205                              ( at time 2.3099688E+01 )

 nodal point  x-rot      y-rot       z-rot       x-rot vel   y-rot vel   z-rot vel   x-rot acc   y-rot acc   z-rot acc
    22626  2.34512E-01 1.49730E-01-5.12252E-02 1.62504E-02 6.51656E-03-4.62563E-03-8.76471E-05-6.27641E-05 3.76072E-04



 n o d a l   p r i n t   o u t   f o r   t i m e  s t e p   46405                              ( at time 2.3199678E+01 )

 nodal point  x-disp     y-disp      z-disp      x-vel       y-vel       z-vel      x-accl      y-accl      z-accl      x-coor      y-coor      z-coor
    22626  4.57814E+00-8.12281E-01-2.14657E+01 2.67657E-01-1.29419E-01 4.96860E-01 1.86696E-02-1.62712E-02 9.00738E-03 5.25423E+01-2.28421E+01-1.41272E+01



 n o d a l   p r i n t   o u t   f o r   t i m e  s t e p   46405                              ( at time 2.3199678E+01 )

 nodal point  x-rot      y-rot       z-rot       x-rot vel   y-rot vel   z-rot vel   x-rot acc   y-rot acc   z-rot acc
    22626  2.36136E-01 1.50384E-01-5.16855E-02 1.62556E-02 6.54018E-03-4.58689E-03 5.25687E-05 2.36247E-04 3.87433E-04



 n o d a l   p r i n t   o u t   f o r   t i m e  s t e p   46605                              ( at time 2.3299668E+01 )

 nodal point  x-disp     y-disp      z-disp      x-vel       y-vel       z-vel      x-accl      y-accl      z-accl      x-coor      y-coor      z-coor
    22626  4.60498E+00-8.25346E-01-2.14159E+01 2.69650E-01-1.31315E-01 4.98433E-01 1.99313E-02-1.89643E-02 1.57374E-02 5.25692E+01-2.28551E+01-1.40774E+01



 n o d a l   p r i n t   o u t   f o r   t i m e  s t e p   46605                              ( at time 2.3299668E+01 )

 nodal point  x-rot      y-rot       z-rot       x-rot vel   y-rot vel   z-rot vel   x-rot acc   y-rot acc   z-rot acc
    22626  2.37761E-01 1.51038E-01-5.21417E-02 1.62479E-02 6.53535E-03-4.55825E-03-7.75691E-05-4.83596E-05 2.86409E-04



 n o d a l   p r i n t   o u t   f o r   t i m e  s t e p   46805                              ( at time 2.3399658E+01 )

 nodal point  x-disp     y-disp      z-disp      x-vel       y-vel       z-vel      x-accl      y-accl      z-accl      x-coor      y-coor      z-coor
    22626  4.63200E+00-8.38596E-01-2.13660E+01 2.70642E-01-1.33296E-01 4.98349E-01 9.92121E-03-1.98084E-02-8.47060E-04 5.25962E+01-2.28684E+01-1.40275E+01



 n o d a l   p r i n t   o u t   f o r   t i m e  s t e p   46805                              ( at time 2.3399658E+01 )

 nodal point  x-rot      y-rot       z-rot       x-rot vel   y-rot vel   z-rot vel   x-rot acc   y-rot acc   z-rot acc
    22626  2.39387E-01 1.51693E-01-5.25945E-02 1.62630E-02 6.56270E-03-4.51936E-03 1.51540E-04 2.73564E-04 3.88923E-04



 n o d a l   p r i n t   o u t   f o r   t i m e  s t e p   47005                              ( at time 2.3499648E+01 )

 nodal point  x-disp     y-disp      z-disp      x-vel       y-vel       z-vel      x-accl      y-accl      z-accl      x-coor      y-coor      z-coor
    22626  4.65916E+00-8.52010E-01-2.13161E+01 2.72314E-01-1.35440E-01 5.00275E-01 1.67263E-02-2.14429E-02 1.92666E-02 5.26233E+01-2.28818E+01-1.39776E+01



 n o d a l   p r i n t   o u t   f o r   t i m e  s t e p   47005                              ( at time 2.3499648E+01 )

 nodal point  x-rot      y-rot       z-rot       x-rot vel   y-rot vel   z-rot vel   x-rot acc   y-rot acc   z-rot acc
    22626  2.41013E-01 1.52350E-01-5.30436E-02 1.62506E-02 6.56238E-03-4.46429E-03-1.24436E-04-3.25527E-06 5.50774E-04



 n o d a l   p r i n t   o u t   f o r   t i m e  s t e p   47205                              ( at time 2.3599638E+01 )

 nodal point  x-disp     y-disp      z-disp      x-vel       y-vel       z-vel      x-accl      y-accl      z-accl      x-coor      y-coor      z-coor
    22626  4.68648E+00-8.65673E-01-2.12660E+01 2.74217E-01-1.37299E-01 5.01732E-01 1.90339E-02-1.85956E-02 1.45666E-02 5.26507E+01-2.28955E+01-1.39275E+01



 n o d a l   p r i n t   o u t   f o r   t i m e  s t e p   47205                              ( at time 2.3599638E+01 )

 nodal point  x-rot      y-rot       z-rot       x-rot vel   y-rot vel   z-rot vel   x-rot acc   y-rot acc   z-rot acc
    22626  2.42639E-01 1.53006E-01-5.34879E-02 1.62640E-02 6.58007E-03-4.42844E-03 1.34516E-04 1.76980E-04 3.58510E-04



 n o d a l   p r i n t   o u t   f o r   t i m e  s t e p   47405                              ( at time 2.3699628E+01 )

 nodal point  x-disp     y-disp      z-disp      x-vel       y-vel       z-vel      x-accl      y-accl      z-accl      x-coor      y-coor      z-coor
    22626  4.71394E+00-8.79497E-01-2.12158E+01 2.75817E-01-1.39292E-01 5.02819E-01 1.59940E-02-1.99350E-02 1.08777E-02 5.26781E+01-2.29093E+01-1.38773E+01



 n o d a l   p r i n t   o u t   f o r   t i m e  s t e p   47405                              ( at time 2.3699628E+01 )

 nodal point  x-rot      y-rot       z-rot       x-rot vel   y-rot vel   z-rot vel   x-rot acc   y-rot acc   z-rot acc
    22626  2.44264E-01 1.53665E-01-5.39288E-02 1.62601E-02 6.59100E-03-4.38850E-03-3.89887E-05 1.09296E-04 3.99406E-04



 n o d a l   p r i n t   o u t   f o r   t i m e  s t e p   47605                              ( at time 2.3799618E+01 )

 nodal point  x-disp     y-disp      z-disp      x-vel       y-vel       z-vel      x-accl      y-accl      z-accl      x-coor      y-coor      z-coor
    22626  4.74154E+00-8.93522E-01-2.11655E+01 2.76392E-01-1.41315E-01 5.03820E-01 5.75457E-03-2.02261E-02 1.00034E-02 5.27057E+01-2.29233E+01-1.38270E+01



 n o d a l   p r i n t   o u t   f o r   t i m e  s t e p   47605                              ( at time 2.3799618E+01 )

 nodal point  x-rot      y-rot       z-rot       x-rot vel   y-rot vel   z-rot vel   x-rot acc   y-rot acc   z-rot acc
    22626  2.45890E-01 1.54325E-01-5.43655E-02 1.62608E-02 6.60027E-03-4.35247E-03 6.74352E-06 9.27188E-05 3.60383E-04



 n o d a l   p r i n t   o u t   f o r   t i m e  s t e p   47805                              ( at time 2.3899608E+01 )

 nodal point  x-disp     y-disp      z-disp      x-vel       y-vel       z-vel      x-accl      y-accl      z-accl      x-coor      y-coor      z-coor
    22626  4.76927E+00-9.07771E-01-2.11150E+01 2.77809E-01-1.43262E-01 5.04519E-01 1.41696E-02-1.94749E-02 6.99584E-03 5.27334E+01-2.29376E+01-1.37765E+01



 n o d a l   p r i n t   o u t   f o r   t i m e  s t e p   47805                              ( at time 2.3899608E+01 )

 nodal point  x-rot      y-rot       z-rot       x-rot vel   y-rot vel   z-rot vel   x-rot acc   y-rot acc   z-rot acc
    22626  2.47516E-01 1.54986E-01-5.47985E-02 1.62667E-02 6.61618E-03-4.32161E-03 5.94983E-05 1.59112E-04 3.08608E-04



 n o d a l   p r i n t   o u t   f o r   t i m e  s t e p   48005                              ( at time 2.3999598E+01 )

 nodal point  x-disp     y-disp      z-disp      x-vel       y-vel       z-vel      x-accl      y-accl      z-accl      x-coor      y-coor      z-coor
    22626  4.79712E+00-9.22134E-01-2.10646E+01 2.78784E-01-1.44393E-01 5.04513E-01 9.74972E-03-1.13057E-02-6.08035E-05 5.27613E+01-2.29519E+01-1.37261E+01



 n o d a l   p r i n t   o u t   f o r   t i m e  s t e p   48005                              ( at time 2.3999598E+01 )

 nodal point  x-rot      y-rot       z-rot       x-rot vel   y-rot vel   z-rot vel   x-rot acc   y-rot acc   z-rot acc
    22626  2.49143E-01 1.55648E-01-5.52283E-02 1.62850E-02 6.62223E-03-4.28218E-03 1.82746E-04 6.05194E-05 3.94375E-04



 n o d a l   p r i n t   o u t   f o r   t i m e  s t e p   48205                              ( at time 2.4099588E+01 )

 nodal point  x-disp     y-disp      z-disp      x-vel       y-vel       z-vel      x-accl      y-accl      z-accl      x-coor      y-coor      z-coor
    22626  4.82507E+00-9.36602E-01-2.10141E+01 2.80174E-01-1.45232E-01 5.04451E-01 1.39103E-02-8.40026E-03-6.22926E-04 5.27893E+01-2.29664E+01-1.36756E+01



 n o d a l   p r i n t   o u t   f o r   t i m e  s t e p   48205                              ( at time 2.4099588E+01 )

 nodal point  x-rot      y-rot       z-rot       x-rot vel   y-rot vel   z-rot vel   x-rot acc   y-rot acc   z-rot acc
    22626  2.50773E-01 1.56310E-01-5.56552E-02 1.63043E-02 6.62343E-03-4.26473E-03 1.92820E-04 1.19546E-05 1.74537E-04



 n o d a l   p r i n t   o u t   f o r   t i m e  s t e p   48405                              ( at time 2.4199578E+01 )

 nodal point  x-disp     y-disp      z-disp      x-vel       y-vel       z-vel      x-accl      y-accl      z-accl      x-coor      y-coor      z-coor
    22626  4.85314E+00-9.51121E-01-2.09637E+01 2.81347E-01-1.45270E-01 5.03700E-01 1.17294E-02-3.72719E-04-7.51161E-03 5.28173E+01-2.29809E+01-1.36252E+01



 n o d a l   p r i n t   o u t   f o r   t i m e  s t e p   48405                              ( at time 2.4199578E+01 )

 nodal point  x-rot      y-rot       z-rot       x-rot vel   y-rot vel   z-rot vel   x-rot acc   y-rot acc   z-rot acc
    22626  2.52405E-01 1.56973E-01-5.60799E-02 1.63375E-02 6.63130E-03-4.23263E-03 3.31643E-04 7.87567E-05 3.21002E-04



 n o d a l   p r i n t   o u t   f o r   t i m e  s t e p   48605                              ( at time 2.4299568E+01 )

 nodal point  x-disp     y-disp      z-disp      x-vel       y-vel       z-vel      x-accl      y-accl      z-accl      x-coor      y-coor      z-coor
    22626  4.88133E+00-9.65635E-01-2.09133E+01 2.82760E-01-1.45004E-01 5.03944E-01 1.41246E-02 2.65593E-03 2.44401E-03 5.28455E+01-2.29954E+01-1.35748E+01



 n o d a l   p r i n t   o u t   f o r   t i m e  s t e p   48605                              ( at time 2.4299568E+01 )

 nodal point  x-rot      y-rot       z-rot       x-rot vel   y-rot vel   z-rot vel   x-rot acc   y-rot acc   z-rot acc
    22626  2.54040E-01 1.57636E-01-5.65019E-02 1.63781E-02 6.64007E-03-4.21082E-03 4.06187E-04 8.76408E-05 2.18140E-04



 n o d a l   p r i n t   o u t   f o r   t i m e  s t e p   48805                              ( at time 2.4399558E+01 )

 nodal point  x-disp     y-disp      z-disp      x-vel       y-vel       z-vel      x-accl      y-accl      z-accl      x-coor      y-coor      z-coor
    22626  4.90962E+00-9.80125E-01-2.08631E+01 2.83299E-01-1.44166E-01 5.02059E-01 5.39263E-03 8.37969E-03-1.88493E-02 5.28738E+01-2.30099E+01-1.35246E+01



 n o d a l   p r i n t   o u t   f o r   t i m e  s t e p   48805                              ( at time 2.4399558E+01 )

 nodal point  x-rot      y-rot       z-rot       x-rot vel   y-rot vel   z-rot vel   x-rot acc   y-rot acc   z-rot acc
    22626  2.55680E-01 1.58300E-01-5.69222E-02 1.64183E-02 6.64460E-03-4.20408E-03 4.02182E-04 4.53782E-05 6.74200E-05



 n o d a l   p r i n t   o u t   f o r   t i m e  s t e p   49006                              ( at time 2.4500048E+01 )

 nodal point  x-disp     y-disp      z-disp      x-vel       y-vel       z-vel      x-accl      y-accl      z-accl      x-coor      y-coor      z-coor
    22626  4.93815E+00-9.94590E-01-2.08127E+01 2.84471E-01-1.43554E-01 5.00165E-01 1.16628E-02 6.09356E-03-1.88520E-02 5.29023E+01-2.30244E+01-1.34742E+01



 n o d a l   p r i n t   o u t   f o r   t i m e  s t e p   49006                              ( at time 2.4500048E+01 )

 nodal point  x-rot      y-rot       z-rot       x-rot vel   y-rot vel   z-rot vel   x-rot acc   y-rot acc   z-rot acc
    22626  2.57332E-01 1.58968E-01-5.73433E-02 1.64606E-02 6.64288E-03-4.18295E-03 4.20931E-04-1.71550E-05 2.10211E-04



 n o d a l   p r i n t   o u t   f o r   t i m e  s t e p   49206                              ( at time 2.4600038E+01 )

 nodal point  x-disp     y-disp      z-disp      x-vel       y-vel       z-vel      x-accl      y-accl      z-accl      x-coor      y-coor      z-coor
    22626  4.96663E+00-1.00884E+00-2.07627E+01 2.85048E-01-1.41989E-01 4.99920E-01 5.76728E-03 1.56468E-02-2.44580E-03 5.29308E+01-2.30386E+01-1.34242E+01



 n o d a l   p r i n t   o u t   f o r   t i m e  s t e p   49206                              ( at time 2.4600038E+01 )

 nodal point  x-rot      y-rot       z-rot       x-rot vel   y-rot vel   z-rot vel   x-rot acc   y-rot acc   z-rot acc
    22626  2.58980E-01 1.59633E-01-5.77613E-02 1.64980E-02 6.65192E-03-4.17642E-03 3.74500E-04 9.03792E-05 6.53476E-05



 n o d a l   p r i n t   o u t   f o r   t i m e  s t e p   49406                              ( at time 2.4700028E+01 )

 nodal point  x-disp     y-disp      z-disp      x-vel       y-vel       z-vel      x-accl      y-accl      z-accl      x-coor      y-coor      z-coor
    22626  4.99515E+00-1.02296E+00-2.07128E+01 2.85495E-01-1.40602E-01 4.97861E-01 4.47412E-03 1.38733E-02-2.05906E-02 5.29593E+01-2.30528E+01-1.33743E+01



 n o d a l   p r i n t   o u t   f o r   t i m e  s t e p   49406                              ( at time 2.4700028E+01 )

 nodal point  x-rot      y-rot       z-rot       x-rot vel   y-rot vel   z-rot vel   x-rot acc   y-rot acc   z-rot acc
    22626  2.60632E-01 1.60298E-01-5.81784E-02 1.65468E-02 6.65911E-03-4.17573E-03 4.88104E-04 7.19340E-05 6.91584E-06



 n o d a l   p r i n t   o u t   f o r   t i m e  s t e p   49606                              ( at time 2.4800018E+01 )

 nodal point  x-disp     y-disp      z-disp      x-vel       y-vel       z-vel      x-accl      y-accl      z-accl      x-coor      y-coor      z-coor
    22626  5.02371E+00-1.03692E+00-2.06631E+01 2.85950E-01-1.38499E-01 4.96819E-01 4.54706E-03 2.10357E-02-1.04282E-02 5.29879E+01-2.30667E+01-1.33246E+01



 n o d a l   p r i n t   o u t   f o r   t i m e  s t e p   49606                              ( at time 2.4800018E+01 )

 nodal point  x-rot      y-rot       z-rot       x-rot vel   y-rot vel   z-rot vel   x-rot acc   y-rot acc   z-rot acc
    22626  2.62288E-01 1.60964E-01-5.85953E-02 1.65828E-02 6.65515E-03-4.17419E-03 3.59281E-04-3.95941E-05 1.53915E-05



 n o d a l   p r i n t   o u t   f o r   t i m e  s t e p   49806                              ( at time 2.4900008E+01 )

 nodal point  x-disp     y-disp      z-disp      x-vel       y-vel       z-vel      x-accl      y-accl      z-accl      x-coor      y-coor      z-coor
    22626  5.05233E+00-1.05065E+00-2.06135E+01 2.86284E-01-1.36692E-01 4.94914E-01 3.34717E-03 1.80746E-02-1.90461E-02 5.30165E+01-2.30804E+01-1.32750E+01



 n o d a l   p r i n t   o u t   f o r   t i m e  s t e p   49806                              ( at time 2.4900008E+01 )

 nodal point  x-rot      y-rot       z-rot       x-rot vel   y-rot vel   z-rot vel   x-rot acc   y-rot acc   z-rot acc
    22626  2.63949E-01 1.61630E-01-5.90120E-02 1.66205E-02 6.65272E-03-4.16848E-03 3.77283E-04-2.43335E-05 5.70498E-05



 n o d a l   p r i n t   o u t   f o r   t i m e  s t e p   50006                              ( at time 2.4999998E+01 )

 nodal point  x-disp     y-disp      z-disp      x-vel       y-vel       z-vel      x-accl      y-accl      z-accl      x-coor      y-coor      z-coor
    22626  5.08096E+00-1.06421E+00-2.05641E+01 2.85963E-01-1.33921E-01 4.93447E-01-3.21596E-03 2.77096E-02-1.46784E-02 5.30451E+01-2.30940E+01-1.32256E+01



 n o d a l   p r i n t   o u t   f o r   t i m e  s t e p   50006                              ( at time 2.4999998E+01 )

 nodal point  x-rot      y-rot       z-rot       x-rot vel   y-rot vel   z-rot vel   x-rot acc   y-rot acc   z-rot acc
    22626  2.65614E-01 1.62295E-01-5.94281E-02 1.66776E-02 6.65739E-03-4.17150E-03 5.71139E-04 4.67613E-05-3.01823E-05
