 LSTC 50th% Full_FE H-III Dummy (Beta Version, February 17, 2019)        
                    ls-dyna smp s R16 R16.0_619_d222963 date 03/18/2025

{BEGIN LEGEND}
 Entity #        Title
    22626                                                                                     
{END LEGEND}




 n o d a l   p r i n t   o u t   f o r   t i m e  s t e p       1                              ( at time 0.0000000E+00 )

 nodal point  x-disp     y-disp      z-disp      x-vel       y-vel       z-vel      x-accl      y-accl      z-accl      x-coor      y-coor      z-coor
    22626  0.00000E+00 0.00000E+00 0.00000E+00 0.00000E+00 0.00000E+00-3.12000E+00 0.00000E+00 0.00000E+00 0.00000E+00 4.79642E+01-2.20298E+01 7.33850E+00



 n o d a l   p r i n t   o u t   f o r   t i m e  s t e p       1                              ( at time 0.0000000E+00 )

 nodal point  x-rot      y-rot       z-rot       x-rot vel   y-rot vel   z-rot vel   x-rot acc   y-rot acc   z-rot acc
    22626  0.00000E+00 0.00000E+00 0.00000E+00 0.00000E+00 0.00000E+00 0.00000E+00 0.00000E+00 0.00000E+00 0.00000E+00



 n o d a l   p r i n t   o u t   f o r   t i m e  s t e p     201                              ( at time 9.9989993E-02 )

 nodal point  x-disp     y-disp      z-disp      x-vel       y-vel       z-vel      x-accl      y-accl      z-accl      x-coor      y-coor      z-coor
    22626  8.34482E-07-4.04256E-06-3.12016E-01 4.76945E-05-4.96327E-04-3.12074E+00 4.76993E-04-4.96376E-03-7.42748E-03 4.79642E+01-2.20298E+01 7.02648E+00



 n o d a l   p r i n t   o u t   f o r   t i m e  s t e p     201                              ( at time 9.9989993E-02 )

 nodal point  x-rot      y-rot       z-rot       x-rot vel   y-rot vel   z-rot vel   x-rot acc   y-rot acc   z-rot acc
    22626  9.61793E-09 3.04147E-08 5.27237E-08 1.30703E-06 2.72383E-06 5.21468E-06 1.30716E-05 2.72410E-05 5.21520E-05



 n o d a l   p r i n t   o u t   f o r   t i m e  s t e p     401                              ( at time 1.9997999E-01 )

 nodal point  x-disp     y-disp      z-disp      x-vel       y-vel       z-vel      x-accl      y-accl      z-accl      x-coor      y-coor      z-coor
    22626 -5.12680E-05-5.21502E-04-6.23853E-01-1.09678E-03-1.11124E-02-3.11558E+00-1.14459E-02-1.06171E-01 5.16061E-02 4.79641E+01-2.20303E+01 6.71465E+00



 n o d a l   p r i n t   o u t   f o r   t i m e  s t e p     401                              ( at time 1.9997999E-01 )

 nodal point  x-rot      y-rot       z-rot       x-rot vel   y-rot vel   z-rot vel   x-rot acc   y-rot acc   z-rot acc
    22626  4.60759E-07 1.33018E-06 2.50305E-06 2.67385E-06 1.90592E-05 3.49797E-05 1.36696E-05 1.63371E-04 2.97680E-04



 n o d a l   p r i n t   o u t   f o r   t i m e  s t e p     601                              ( at time 2.9996998E-01 )

 nodal point  x-disp     y-disp      z-disp      x-vel       y-vel       z-vel      x-accl      y-accl      z-accl      x-coor      y-coor      z-coor
    22626 -2.42100E-05-1.97533E-03-9.35239E-01 1.67473E-03-1.60234E-02-3.11416E+00 2.77179E-02-4.91144E-02 1.41992E-02 4.79642E+01-2.20318E+01 6.40326E+00



 n o d a l   p r i n t   o u t   f o r   t i m e  s t e p     601                              ( at time 2.9996998E-01 )

 nodal point  x-rot      y-rot       z-rot       x-rot vel   y-rot vel   z-rot vel   x-rot acc   y-rot acc   z-rot acc
    22626  6.75798E-07 2.41449E-06 4.83235E-06 8.31542E-06 5.40182E-06 1.47170E-05 5.64214E-05-1.36588E-04-2.02647E-04



 n o d a l   p r i n t   o u t   f o r   t i m e  s t e p     801                              ( at time 3.9995997E-01 )

 nodal point  x-disp     y-disp      z-disp      x-vel       y-vel       z-vel      x-accl      y-accl      z-accl      x-coor      y-coor      z-coor
    22626  6.35085E-05-3.56863E-03-1.24663E+00 2.60119E-04-1.73243E-02-3.11357E+00-1.41475E-02-1.30107E-02 5.91099E-03 4.79642E+01-2.20334E+01 6.09187E+00



 n o d a l   p r i n t   o u t   f o r   t i m e  s t e p     801                              ( at time 3.9995997E-01 )

 nodal point  x-rot      y-rot       z-rot       x-rot vel   y-rot vel   z-rot vel   x-rot acc   y-rot acc   z-rot acc
    22626  1.58073E-06 3.65863E-06 6.63722E-06 6.19299E-06 2.36531E-05 3.70105E-05-2.12264E-05 1.82531E-04 2.22958E-04



 n o d a l   p r i n t   o u t   f o r   t i m e  s t e p    1001                              ( at time 4.9994997E-01 )

 nodal point  x-disp     y-disp      z-disp      x-vel       y-vel       z-vel      x-accl      y-accl      z-accl      x-coor      y-coor      z-coor
    22626  8.47803E-05-5.61477E-03-1.55783E+00 9.67578E-04-2.36641E-02-3.11095E+00 7.07530E-03-6.34047E-02 2.62573E-02 4.79643E+01-2.20354E+01 5.78067E+00



 n o d a l   p r i n t   o u t   f o r   t i m e  s t e p    1001                              ( at time 4.9994997E-01 )

 nodal point  x-rot      y-rot       z-rot       x-rot vel   y-rot vel   z-rot vel   x-rot acc   y-rot acc   z-rot acc
    22626  1.48902E-06 6.49617E-06 1.15285E-05-4.93714E-06 4.20495E-05 6.80490E-05-1.11312E-04 1.83983E-04 3.10415E-04



 n o d a l   p r i n t   o u t   f o r   t i m e  s t e p    1201                              ( at time 5.9993996E-01 )

 nodal point  x-disp     y-disp      z-disp      x-vel       y-vel       z-vel      x-accl      y-accl      z-accl      x-coor      y-coor      z-coor
    22626  7.96264E-05-8.09584E-03-1.86890E+00-3.08295E-04-2.58300E-02-3.11099E+00-1.27600E-02-2.16608E-02-4.64963E-04 4.79643E+01-2.20379E+01 5.46960E+00



 n o d a l   p r i n t   o u t   f o r   t i m e  s t e p    1201                              ( at time 5.9993996E-01 )

 nodal point  x-rot      y-rot       z-rot       x-rot vel   y-rot vel   z-rot vel   x-rot acc   y-rot acc   z-rot acc
    22626  1.24963E-06 9.52895E-06 1.69813E-05-2.30219E-06 2.38265E-05 4.73181E-05 2.63521E-05-1.82249E-04-2.07329E-04



 n o d a l   p r i n t   o u t   f o r   t i m e  s t e p    1401                              ( at time 6.9992995E-01 )

 nodal point  x-disp     y-disp      z-disp      x-vel       y-vel       z-vel      x-accl      y-accl      z-accl      x-coor      y-coor      z-coor
    22626  7.53393E-05-1.09522E-02-2.17980E+00 9.86815E-04-3.19691E-02-3.10787E+00 1.29524E-02-6.13976E-02 3.12312E-02 4.79643E+01-2.20407E+01 5.15870E+00



 n o d a l   p r i n t   o u t   f o r   t i m e  s t e p    1401                              ( at time 6.9992995E-01 )

 nodal point  x-rot      y-rot       z-rot       x-rot vel   y-rot vel   z-rot vel   x-rot acc   y-rot acc   z-rot acc
    22626  1.07192E-06 1.23945E-05 2.12671E-05-2.52000E-06 3.37412E-05 5.09128E-05-2.17836E-06 9.91569E-05 3.59504E-05



 n o d a l   p r i n t   o u t   f o r   t i m e  s t e p    1601                              ( at time 7.9991994E-01 )

 nodal point  x-disp     y-disp      z-disp      x-vel       y-vel       z-vel      x-accl      y-accl      z-accl      x-coor      y-coor      z-coor
    22626  2.18068E-04-1.44612E-02-2.49045E+00 1.68566E-03-3.62509E-02-3.10634E+00 6.98912E-03-4.28218E-02 1.52555E-02 4.79644E+01-2.20443E+01 4.84806E+00



 n o d a l   p r i n t   o u t   f o r   t i m e  s t e p    1601                              ( at time 7.9991994E-01 )

 nodal point  x-rot      y-rot       z-rot       x-rot vel   y-rot vel   z-rot vel   x-rot acc   y-rot acc   z-rot acc
    22626  9.83843E-07 1.60420E-05 2.71873E-05 2.92560E-06 4.23317E-05 6.34331E-05 5.44615E-05 8.59138E-05 1.25216E-04



 n o d a l   p r i n t   o u t   f o r   t i m e  s t e p    1801                              ( at time 8.9990994E-01 )

 nodal point  x-disp     y-disp      z-disp      x-vel       y-vel       z-vel      x-accl      y-accl      z-accl      x-coor      y-coor      z-coor
    22626  3.34728E-04-1.80354E-02-2.80114E+00 3.71917E-05-3.56470E-02-3.10787E+00-1.64863E-02 6.03971E-03-1.53056E-02 4.79645E+01-2.20478E+01 4.53736E+00



 n o d a l   p r i n t   o u t   f o r   t i m e  s t e p    1801                              ( at time 8.9990994E-01 )

 nodal point  x-rot      y-rot       z-rot       x-rot vel   y-rot vel   z-rot vel   x-rot acc   y-rot acc   z-rot acc
    22626  9.52504E-07 1.93702E-05 3.26238E-05-2.41106E-06 2.89139E-05 4.99104E-05-5.33720E-05-1.34192E-04-1.35241E-04



 n o d a l   p r i n t   o u t   f o r   t i m e  s t e p    2001                              ( at time 9.9989993E-01 )

 nodal point  x-disp     y-disp      z-disp      x-vel       y-vel       z-vel      x-accl      y-accl      z-accl      x-coor      y-coor      z-coor
    22626  2.99444E-04-2.16649E-02-3.11191E+00-1.63215E-04-3.74797E-02-3.10815E+00-2.00427E-03-1.83290E-02-2.79216E-03 4.79645E+01-2.20515E+01 4.22659E+00



 n o d a l   p r i n t   o u t   f o r   t i m e  s t e p    2001                              ( at time 9.9989993E-01 )

 nodal point  x-rot      y-rot       z-rot       x-rot vel   y-rot vel   z-rot vel   x-rot acc   y-rot acc   z-rot acc
    22626  7.74980E-07 2.25961E-05 3.77809E-05-5.66134E-07 3.49800E-05 6.33260E-05 1.84511E-05 6.06675E-05 1.34170E-04



 n o d a l   p r i n t   o u t   f o r   t i m e  s t e p    2201                              ( at time 1.0998899E+00 )

 nodal point  x-disp     y-disp      z-disp      x-vel       y-vel       z-vel      x-accl      y-accl      z-accl      x-coor      y-coor      z-coor
    22626  3.54999E-04-2.55129E-02-3.42267E+00 6.07683E-04-3.92091E-02-3.10774E+00 7.70976E-03-1.72960E-02 4.17513E-03 4.79645E+01-2.20553E+01 3.91583E+00



 n o d a l   p r i n t   o u t   f o r   t i m e  s t e p    2201                              ( at time 1.0998899E+00 )

 nodal point  x-rot      y-rot       z-rot       x-rot vel   y-rot vel   z-rot vel   x-rot acc   y-rot acc   z-rot acc
    22626  8.60374E-07 2.61432E-05 4.38474E-05 4.89277E-06 3.23825E-05 4.58908E-05 5.45945E-05-2.59783E-05-1.74370E-04



 n o d a l   p r i n t   o u t   f o r   t i m e  s t e p    2401                              ( at time 1.1998799E+00 )

 nodal point  x-disp     y-disp      z-disp      x-vel       y-vel       z-vel      x-accl      y-accl      z-accl      x-coor      y-coor      z-coor
    22626  4.82373E-04-2.94121E-02-3.73348E+00 1.60057E-03-3.84493E-02-3.10932E+00 9.92988E-03 7.59853E-03-1.58469E-02 4.79647E+01-2.20592E+01 3.60502E+00



 n o d a l   p r i n t   o u t   f o r   t i m e  s t e p    2401                              ( at time 1.1998799E+00 )

 nodal point  x-rot      y-rot       z-rot       x-rot vel   y-rot vel   z-rot vel   x-rot acc   y-rot acc   z-rot acc
    22626  1.21613E-06 2.87394E-05 4.75435E-05 4.53407E-06 2.26382E-05 3.12186E-05-3.58742E-06-9.74525E-05-1.46737E-04



 n o d a l   p r i n t   o u t   f o r   t i m e  s t e p    2601                              ( at time 1.2998699E+00 )

 nodal point  x-disp     y-disp      z-disp      x-vel       y-vel       z-vel      x-accl      y-accl      z-accl      x-coor      y-coor      z-coor
    22626  5.88260E-04-3.30994E-02-4.04451E+00 5.88898E-04-3.49497E-02-3.11235E+00-1.01177E-02 3.49994E-02-3.03227E-02 4.79648E+01-2.20629E+01 3.29399E+00



 n o d a l   p r i n t   o u t   f o r   t i m e  s t e p    2601                              ( at time 1.2998699E+00 )

 nodal point  x-rot      y-rot       z-rot       x-rot vel   y-rot vel   z-rot vel   x-rot acc   y-rot acc   z-rot acc
    22626  1.45344E-06 3.08961E-05 5.06222E-05-2.82709E-06 2.48546E-05 3.95339E-05-7.36190E-05 2.21666E-05 8.31617E-05



 n o d a l   p r i n t   o u t   f o r   t i m e  s t e p    2801                              ( at time 1.3998599E+00 )

 nodal point  x-disp     y-disp      z-disp      x-vel       y-vel       z-vel      x-accl      y-accl      z-accl      x-coor      y-coor      z-coor
    22626  5.83490E-04-3.63235E-02-4.35592E+00-1.18068E-04-2.97168E-02-3.11617E+00-7.07037E-03 5.23346E-02-3.82056E-02 4.79648E+01-2.20661E+01 2.98258E+00



 n o d a l   p r i n t   o u t   f o r   t i m e  s t e p    2801                              ( at time 1.3998599E+00 )

 nodal point  x-rot      y-rot       z-rot       x-rot vel   y-rot vel   z-rot vel   x-rot acc   y-rot acc   z-rot acc
    22626  1.03279E-06 3.31786E-05 5.40907E-05-4.47811E-06 2.20357E-05 2.66313E-05-1.65118E-05-2.81924E-05-1.29039E-04



 n o d a l   p r i n t   o u t   f o r   t i m e  s t e p    3001                              ( at time 1.4998499E+00 )

 nodal point  x-disp     y-disp      z-disp      x-vel       y-vel       z-vel      x-accl      y-accl      z-accl      x-coor      y-coor      z-coor
    22626  5.98568E-04-3.91968E-02-4.66762E+00 7.78778E-04-2.80354E-02-3.11820E+00 8.96936E-03 1.68157E-02-2.02271E-02 4.79648E+01-2.20690E+01 2.67089E+00



 n o d a l   p r i n t   o u t   f o r   t i m e  s t e p    3001                              ( at time 1.4998499E+00 )

 nodal point  x-rot      y-rot       z-rot       x-rot vel   y-rot vel   z-rot vel   x-rot acc   y-rot acc   z-rot acc
    22626  6.69503E-07 3.47027E-05 5.57901E-05-1.29853E-06 7.04539E-06 7.29513E-06 3.17990E-05-1.49918E-04-1.93381E-04



 n o d a l   p r i n t   o u t   f o r   t i m e  s t e p    3201                              ( at time 1.5998399E+00 )

 nodal point  x-disp     y-disp      z-disp      x-vel       y-vel       z-vel      x-accl      y-accl      z-accl      x-coor      y-coor      z-coor
    22626  6.69916E-04-4.19060E-02-4.97950E+00 4.03636E-04-2.55527E-02-3.12065E+00-3.75180E-03 2.48292E-02-2.45476E-02 4.79649E+01-2.20717E+01 2.35900E+00



 n o d a l   p r i n t   o u t   f o r   t i m e  s t e p    3201                              ( at time 1.5998399E+00 )

 nodal point  x-rot      y-rot       z-rot       x-rot vel   y-rot vel   z-rot vel   x-rot acc   y-rot acc   z-rot acc
    22626  4.03218E-07 3.51400E-05 5.55169E-05-1.17712E-06 5.26545E-06-5.64998E-06 1.21418E-06-1.78012E-05-1.29464E-04



 n o d a l   p r i n t   o u t   f o r   t i m e  s t e p    3401                              ( at time 1.6998299E+00 )

 nodal point  x-disp     y-disp      z-disp      x-vel       y-vel       z-vel      x-accl      y-accl      z-accl      x-coor      y-coor      z-coor
    22626  7.03029E-04-4.42191E-02-5.29172E+00 1.67970E-04-2.04465E-02-3.12454E+00-2.35690E-03 5.10675E-02-3.89496E-02 4.79649E+01-2.20740E+01 2.04678E+00



 n o d a l   p r i n t   o u t   f o r   t i m e  s t e p    3401                              ( at time 1.6998299E+00 )

 nodal point  x-rot      y-rot       z-rot       x-rot vel   y-rot vel   z-rot vel   x-rot acc   y-rot acc   z-rot acc
    22626  1.93159E-07 3.54445E-05 5.50018E-05-3.86355E-06 1.99498E-06-8.43785E-06-2.68669E-05-3.27080E-05-2.78815E-05



 n o d a l   p r i n t   o u t   f o r   t i m e  s t e p    3601                              ( at time 1.7998199E+00 )

 nodal point  x-disp     y-disp      z-disp      x-vel       y-vel       z-vel      x-accl      y-accl      z-accl      x-coor      y-coor      z-coor
    22626  7.32036E-04-4.60112E-02-5.60435E+00-8.46380E-05-1.57827E-02-3.12853E+00-2.52633E-03 4.66429E-02-3.98199E-02 4.79649E+01-2.20758E+01 1.73415E+00



 n o d a l   p r i n t   o u t   f o r   t i m e  s t e p    3601                              ( at time 1.7998199E+00 )

 nodal point  x-rot      y-rot       z-rot       x-rot vel   y-rot vel   z-rot vel   x-rot acc   y-rot acc   z-rot acc
    22626  8.97011E-08 3.54355E-05 5.40386E-05 4.84736E-07-6.15106E-06-1.51957E-05 4.34872E-05-8.14686E-05-6.75853E-05



 n o d a l   p r i n t   o u t   f o r   t i m e  s t e p    3801                              ( at time 1.8998099E+00 )

 nodal point  x-disp     y-disp      z-disp      x-vel       y-vel       z-vel      x-accl      y-accl      z-accl      x-coor      y-coor      z-coor
    22626  6.66696E-04-4.74590E-02-5.91730E+00-9.28189E-04-1.33577E-02-3.13100E+00-8.43636E-03 2.42518E-02-2.47551E-02 4.79648E+01-2.20772E+01 1.42121E+00



 n o d a l   p r i n t   o u t   f o r   t i m e  s t e p    3801                              ( at time 1.8998099E+00 )

 nodal point  x-rot      y-rot       z-rot       x-rot vel   y-rot vel   z-rot vel   x-rot acc   y-rot acc   z-rot acc
    22626 -6.02845E-08 3.45591E-05 5.16689E-05 2.13396E-06-1.20377E-05-3.03177E-05 1.64939E-05-5.88720E-05-1.51235E-04



 n o d a l   p r i n t   o u t   f o r   t i m e  s t e p    4001                              ( at time 1.9997999E+00 )

 nodal point  x-disp     y-disp      z-disp      x-vel       y-vel       z-vel      x-accl      y-accl      z-accl      x-coor      y-coor      z-coor
    22626  6.13701E-04-4.86737E-02-6.23049E+00-4.33336E-04-1.09998E-02-3.13323E+00 4.94903E-03 2.35814E-02-2.23230E-02 4.79648E+01-2.20785E+01 1.10801E+00



 n o d a l   p r i n t   o u t   f o r   t i m e  s t e p    4001                              ( at time 1.9997999E+00 )

 nodal point  x-rot      y-rot       z-rot       x-rot vel   y-rot vel   z-rot vel   x-rot acc   y-rot acc   z-rot acc
    22626  1.68111E-07 3.31277E-05 4.82428E-05 3.44569E-06-1.38824E-05-3.74271E-05 1.31186E-05-1.84496E-05-7.11018E-05



 n o d a l   p r i n t   o u t   f o r   t i m e  s t e p    4201                              ( at time 2.0997899E+00 )

 nodal point  x-disp     y-disp      z-disp      x-vel       y-vel       z-vel      x-accl      y-accl      z-accl      x-coor      y-coor      z-coor
    22626  5.62783E-04-4.95880E-02-6.54394E+00-6.93170E-04-7.44493E-03-3.13630E+00-2.59860E-03 3.55527E-02-3.06923E-02 4.79647E+01-2.20794E+01 7.94565E-01



 n o d a l   p r i n t   o u t   f o r   t i m e  s t e p    4201                              ( at time 2.0997899E+00 )

 nodal point  x-rot      y-rot       z-rot       x-rot vel   y-rot vel   z-rot vel   x-rot acc   y-rot acc   z-rot acc
    22626  4.43084E-07 3.11232E-05 4.35831E-05-1.27810E-06-2.22453E-05-5.52069E-05-4.72427E-05-8.36371E-05-1.77815E-04



 n o d a l   p r i n t   o u t   f o r   t i m e  s t e p    4401                              ( at time 2.1997798E+00 )

 nodal point  x-disp     y-disp      z-disp      x-vel       y-vel       z-vel      x-accl      y-accl      z-accl      x-coor      y-coor      z-coor
    22626  4.33595E-04-5.01105E-02-6.85770E+00-1.64364E-03-2.80646E-03-3.13997E+00-9.50566E-03 4.63894E-02-3.67130E-02 4.79646E+01-2.20799E+01 4.80796E-01



 n o d a l   p r i n t   o u t   f o r   t i m e  s t e p    4401                              ( at time 2.1997798E+00 )

 nodal point  x-rot      y-rot       z-rot       x-rot vel   y-rot vel   z-rot vel   x-rot acc   y-rot acc   z-rot acc
    22626  2.10710E-07 2.87130E-05 3.79948E-05-2.12126E-06-2.54684E-05-5.72898E-05-8.43241E-06-3.22345E-05-2.08318E-05



 n o d a l   p r i n t   o u t   f o r   t i m e  s t e p    4601                              ( at time 2.2997698E+00 )

 nodal point  x-disp     y-disp      z-disp      x-vel       y-vel       z-vel      x-accl      y-accl      z-accl      x-coor      y-coor      z-coor
    22626  2.34098E-04-5.01570E-02-7.17185E+00-2.36608E-03 1.26876E-03-3.14317E+00-7.22511E-03 4.07562E-02-3.19226E-02 4.79644E+01-2.20799E+01 1.66650E-01



 n o d a l   p r i n t   o u t   f o r   t i m e  s t e p    4601                              ( at time 2.2997698E+00 )

 nodal point  x-rot      y-rot       z-rot       x-rot vel   y-rot vel   z-rot vel   x-rot acc   y-rot acc   z-rot acc
    22626 -2.92933E-07 2.61076E-05 3.22389E-05-5.83597E-06-3.15920E-05-6.56634E-05-3.71508E-05-6.12414E-05-8.37439E-05



 n o d a l   p r i n t   o u t   f o r   t i m e  s t e p    4801                              ( at time 2.3997598E+00 )

 nodal point  x-disp     y-disp      z-disp      x-vel       y-vel       z-vel      x-accl      y-accl      z-accl      x-coor      y-coor      z-coor
    22626 -2.64213E-05-4.99488E-02-7.48623E+00-2.58941E-03 2.90474E-03-3.14518E+00-2.23353E-03 1.63615E-02-2.01794E-02 4.79642E+01-2.20797E+01-1.47731E-01



 n o d a l   p r i n t   o u t   f o r   t i m e  s t e p    4801                              ( at time 2.3997598E+00 )

 nodal point  x-rot      y-rot       z-rot       x-rot vel   y-rot vel   z-rot vel   x-rot acc   y-rot acc   z-rot acc
    22626 -1.00025E-06 2.27886E-05 2.47318E-05-8.20639E-06-3.38043E-05-8.00866E-05-2.37066E-05-2.21255E-05-1.44246E-04



 n o d a l   p r i n t   o u t   f o r   t i m e  s t e p    5001                              ( at time 2.4997498E+00 )

 nodal point  x-disp     y-disp      z-disp      x-vel       y-vel       z-vel      x-accl      y-accl      z-accl      x-coor      y-coor      z-coor
    22626 -3.22397E-04-4.95347E-02-7.80083E+00-3.35034E-03 6.01416E-03-3.14785E+00-7.61002E-03 3.10972E-02-2.66411E-02 4.79639E+01-2.20793E+01-4.62333E-01



 n o d a l   p r i n t   o u t   f o r   t i m e  s t e p    5001                              ( at time 2.4997498E+00 )

 nodal point  x-rot      y-rot       z-rot       x-rot vel   y-rot vel   z-rot vel   x-rot acc   y-rot acc   z-rot acc
    22626 -1.70010E-06 1.88743E-05 1.60590E-05-7.38779E-06-4.29277E-05-9.53623E-05 8.18683E-06-9.12431E-05-1.52772E-04



 n o d a l   p r i n t   o u t   f o r   t i m e  s t e p    5201                              ( at time 2.5997398E+00 )

 nodal point  x-disp     y-disp      z-disp      x-vel       y-vel       z-vel      x-accl      y-accl      z-accl      x-coor      y-coor      z-coor
    22626 -7.04242E-04-4.87177E-02-8.11577E+00-4.33202E-03 1.02648E-02-3.15137E+00-9.81782E-03 4.25108E-02-3.52633E-02 4.79635E+01-2.20785E+01-7.77272E-01



 n o d a l   p r i n t   o u t   f o r   t i m e  s t e p    5201                              ( at time 2.5997398E+00 )

 nodal point  x-rot      y-rot       z-rot       x-rot vel   y-rot vel   z-rot vel   x-rot acc   y-rot acc   z-rot acc
    22626 -2.40670E-06 1.42438E-05 6.18728E-06-8.72634E-06-4.86354E-05-1.03752E-04-1.33869E-05-5.70827E-05-8.39090E-05



 n o d a l   p r i n t   o u t   f o r   t i m e  s t e p    5401                              ( at time 2.6997298E+00 )

 nodal point  x-disp     y-disp      z-disp      x-vel       y-vel       z-vel      x-accl      y-accl      z-accl      x-coor      y-coor      z-coor
    22626 -1.18214E-03-4.75063E-02-8.43105E+00-5.50475E-03 1.35094E-02-3.15464E+00-1.17285E-02 3.24487E-02-3.26427E-02 4.79630E+01-2.20773E+01-1.09255E+00



 n o d a l   p r i n t   o u t   f o r   t i m e  s t e p    5401                              ( at time 2.6997298E+00 )

 nodal point  x-rot      y-rot       z-rot       x-rot vel   y-rot vel   z-rot vel   x-rot acc   y-rot acc   z-rot acc
    22626 -3.22486E-06 9.38165E-06-4.11509E-06-8.06212E-06-5.01394E-05-1.01976E-04 6.64287E-06-1.50413E-05 1.77687E-05



 n o d a l   p r i n t   o u t   f o r   t i m e  s t e p    5601                              ( at time 2.7997198E+00 )

 nodal point  x-disp     y-disp      z-disp      x-vel       y-vel       z-vel      x-accl      y-accl      z-accl      x-coor      y-coor      z-coor
    22626 -1.80699E-03-4.60454E-02-8.74659E+00-6.77221E-03 1.54672E-02-3.15673E+00-1.26758E-02 1.95801E-02-2.09305E-02 4.79624E+01-2.20758E+01-1.40809E+00



 n o d a l   p r i n t   o u t   f o r   t i m e  s t e p    5601                              ( at time 2.7997198E+00 )

 nodal point  x-rot      y-rot       z-rot       x-rot vel   y-rot vel   z-rot vel   x-rot acc   y-rot acc   z-rot acc
    22626 -3.95474E-06 3.78666E-06-1.55063E-05-5.65922E-06-6.32010E-05-1.28683E-04 2.40314E-05-1.30629E-04-2.67102E-04



 n o d a l   p r i n t   o u t   f o r   t i m e  s t e p    5801                              ( at time 2.8997098E+00 )

 nodal point  x-disp     y-disp      z-disp      x-vel       y-vel       z-vel      x-accl      y-accl      z-accl      x-coor      y-coor      z-coor
    22626 -2.49198E-03-4.44485E-02-9.06232E+00-7.00771E-03 1.63407E-02-3.15834E+00-2.35530E-03 8.73583E-03-1.61092E-02 4.79617E+01-2.20742E+01-1.72382E+00



 n o d a l   p r i n t   o u t   f o r   t i m e  s t e p    5801                              ( at time 2.8997098E+00 )

 nodal point  x-rot      y-rot       z-rot       x-rot vel   y-rot vel   z-rot vel   x-rot acc   y-rot acc   z-rot acc
    22626 -4.40911E-06-2.97017E-06-2.91590E-05-5.36510E-06-6.75255E-05-1.39870E-04 2.94152E-06-4.32496E-05-1.11878E-04



 n o d a l   p r i n t   o u t   f o r   t i m e  s t e p    6001                              ( at time 2.9996998E+00 )

 nodal point  x-disp     y-disp      z-disp      x-vel       y-vel       z-vel      x-accl      y-accl      z-accl      x-coor      y-coor      z-coor
    22626 -3.23741E-03-4.27125E-02-9.37823E+00-8.10850E-03 1.85536E-02-3.16063E+00-1.10090E-02 2.21315E-02-2.28976E-02 4.79609E+01-2.20725E+01-2.03973E+00



 n o d a l   p r i n t   o u t   f o r   t i m e  s t e p    6001                              ( at time 2.9996998E+00 )

 nodal point  x-rot      y-rot       z-rot       x-rot vel   y-rot vel   z-rot vel   x-rot acc   y-rot acc   z-rot acc
    22626 -5.08320E-06-9.77916E-06-4.29071E-05-9.03217E-06-6.78568E-05-1.38385E-04-3.66744E-05-3.31263E-06 1.48467E-05



 n o d a l   p r i n t   o u t   f o r   t i m e  s t e p    6201                              ( at time 3.0996898E+00 )

 nodal point  x-disp     y-disp      z-disp      x-vel       y-vel       z-vel      x-accl      y-accl      z-accl      x-coor      y-coor      z-coor
    22626 -4.12911E-03-4.07450E-02-9.69437E+00-9.60829E-03 2.03002E-02-3.16245E+00-1.49994E-02 1.74679E-02-1.81669E-02 4.79601E+01-2.20705E+01-2.35586E+00



 n o d a l   p r i n t   o u t   f o r   t i m e  s t e p    6201                              ( at time 3.0996898E+00 )

 nodal point  x-rot      y-rot       z-rot       x-rot vel   y-rot vel   z-rot vel   x-rot acc   y-rot acc   z-rot acc
    22626 -6.13305E-06-1.65700E-05-5.69156E-05-1.26168E-05-6.70728E-05-1.42723E-04-3.58502E-05 7.84042E-06-4.33796E-05



 n o d a l   p r i n t   o u t   f o r   t i m e  s t e p    6401                              ( at time 3.1996798E+00 )

 nodal point  x-disp     y-disp      z-disp      x-vel       y-vel       z-vel      x-accl      y-accl      z-accl      x-coor      y-coor      z-coor
    22626 -5.12059E-03-3.87628E-02-1.00106E+01-1.01380E-02 1.90571E-02-3.16290E+00-5.29735E-03-1.24318E-02-4.49225E-03 4.79591E+01-2.20686E+01-2.67211E+00



 n o d a l   p r i n t   o u t   f o r   t i m e  s t e p    6401                              ( at time 3.1996798E+00 )

 nodal point  x-rot      y-rot       z-rot       x-rot vel   y-rot vel   z-rot vel   x-rot acc   y-rot acc   z-rot acc
    22626 -7.40171E-06-2.35946E-05-7.11132E-05-1.35700E-05-7.25294E-05-1.46310E-04-9.53229E-06-5.45719E-05-3.58730E-05



 n o d a l   p r i n t   o u t   f o r   t i m e  s t e p    6601                              ( at time 3.2996698E+00 )

 nodal point  x-disp     y-disp      z-disp      x-vel       y-vel       z-vel      x-accl      y-accl      z-accl      x-coor      y-coor      z-coor
    22626 -6.14953E-03-3.69633E-02-1.03269E+01-1.03811E-02 1.70051E-02-3.16253E+00-2.43104E-03-2.05225E-02 3.64579E-03 4.79580E+01-2.20668E+01-2.98835E+00



 n o d a l   p r i n t   o u t   f o r   t i m e  s t e p    6601                              ( at time 3.2996698E+00 )

 nodal point  x-rot      y-rot       z-rot       x-rot vel   y-rot vel   z-rot vel   x-rot acc   y-rot acc   z-rot acc
    22626 -8.93822E-06-3.06976E-05-8.57180E-05-1.61152E-05-7.10537E-05-1.46242E-04-2.54554E-05 1.47590E-05 6.80662E-07



 n o d a l   p r i n t   o u t   f o r   t i m e  s t e p    6801                              ( at time 3.3996598E+00 )

 nodal point  x-disp     y-disp      z-disp      x-vel       y-vel       z-vel      x-accl      y-accl      z-accl      x-coor      y-coor      z-coor
    22626 -7.21926E-03-3.53643E-02-1.06431E+01-1.10091E-02 1.50365E-02-3.16236E+00-6.28097E-03-1.96877E-02 1.71678E-03 4.79570E+01-2.20652E+01-3.30456E+00



 n o d a l   p r i n t   o u t   f o r   t i m e  s t e p    6801                              ( at time 3.3996598E+00 )

 nodal point  x-rot      y-rot       z-rot       x-rot vel   y-rot vel   z-rot vel   x-rot acc   y-rot acc   z-rot acc
    22626 -1.03953E-05-3.75138E-05-9.99882E-05-1.68807E-05-6.50088E-05-1.38259E-04-7.65528E-06 6.04549E-05 7.98381E-05



 n o d a l   p r i n t   o u t   f o r   t i m e  s t e p    7001                              ( at time 3.4996498E+00 )

 nodal point  x-disp     y-disp      z-disp      x-vel       y-vel       z-vel      x-accl      y-accl      z-accl      x-coor      y-coor      z-coor
    22626 -8.34967E-03-3.39453E-02-1.09593E+01-1.16752E-02 1.33168E-02-3.16257E+00-6.66137E-03-1.71994E-02-2.06491E-03 4.79558E+01-2.20637E+01-3.62078E+00



 n o d a l   p r i n t   o u t   f o r   t i m e  s t e p    7001                              ( at time 3.4996498E+00 )

 nodal point  x-rot      y-rot       z-rot       x-rot vel   y-rot vel   z-rot vel   x-rot acc   y-rot acc   z-rot acc
    22626 -1.19167E-05-4.36203E-05-1.12915E-04-1.57495E-05-5.90573E-05-1.24816E-04 1.13129E-05 5.95205E-05 1.34437E-04



 n o d a l   p r i n t   o u t   f o r   t i m e  s t e p    7201                              ( at time 3.5996397E+00 )

 nodal point  x-disp     y-disp      z-disp      x-vel       y-vel       z-vel      x-accl      y-accl      z-accl      x-coor      y-coor      z-coor
    22626 -9.52839E-03-3.27386E-02-1.12755E+01-1.16087E-02 1.04878E-02-3.16214E+00 6.64771E-04-2.82924E-02 4.22282E-03 4.79547E+01-2.20625E+01-3.93699E+00



 n o d a l   p r i n t   o u t   f o r   t i m e  s t e p    7201                              ( at time 3.5996397E+00 )

 nodal point  x-rot      y-rot       z-rot       x-rot vel   y-rot vel   z-rot vel   x-rot acc   y-rot acc   z-rot acc
    22626 -1.35669E-05-4.91189E-05-1.24628E-04-1.43819E-05-5.17184E-05-1.07213E-04 1.36775E-05 7.33974E-05 1.76054E-04



 n o d a l   p r i n t   o u t   f o r   t i m e  s t e p    7401                              ( at time 3.6996297E+00 )

 nodal point  x-disp     y-disp      z-disp      x-vel       y-vel       z-vel      x-accl      y-accl      z-accl      x-coor      y-coor      z-coor
    22626 -1.06714E-02-3.18603E-02-1.15916E+01-1.12431E-02 7.05244E-03-3.16113E+00 3.65603E-03-3.43569E-02 1.00980E-02 4.79535E+01-2.20616E+01-4.25312E+00



 n o d a l   p r i n t   o u t   f o r   t i m e  s t e p    7401                              ( at time 3.6996297E+00 )

 nodal point  x-rot      y-rot       z-rot       x-rot vel   y-rot vel   z-rot vel   x-rot acc   y-rot acc   z-rot acc
    22626 -1.49613E-05-5.39013E-05-1.34978E-04-1.32514E-05-4.37771E-05-9.85902E-05 1.13058E-05 7.94200E-05 8.62341E-05



 n o d a l   p r i n t   o u t   f o r   t i m e  s t e p    7601                              ( at time 3.7996197E+00 )

 nodal point  x-disp     y-disp      z-disp      x-vel       y-vel       z-vel      x-accl      y-accl      z-accl      x-coor      y-coor      z-coor
    22626 -1.17760E-02-3.12938E-02-1.19077E+01-1.08578E-02 4.28270E-03-3.16039E+00 3.85356E-03-2.77003E-02 7.46564E-03 4.79524E+01-2.20611E+01-4.56916E+00



 n o d a l   p r i n t   o u t   f o r   t i m e  s t e p    7601                              ( at time 3.7996197E+00 )

 nodal point  x-rot      y-rot       z-rot       x-rot vel   y-rot vel   z-rot vel   x-rot acc   y-rot acc   z-rot acc
    22626 -1.63224E-05-5.78151E-05-1.43999E-04-1.27781E-05-3.06351E-05-7.51715E-05 4.73395E-06 1.31434E-04 2.34210E-04



 n o d a l   p r i n t   o u t   f o r   t i m e  s t e p    7801                              ( at time 3.8996097E+00 )

 nodal point  x-disp     y-disp      z-disp      x-vel       y-vel       z-vel      x-accl      y-accl      z-accl      x-coor      y-coor      z-coor
    22626 -1.28271E-02-3.09706E-02-1.22237E+01-1.01459E-02 2.54617E-03-3.16041E+00 7.12001E-03-1.73670E-02-2.38442E-04 4.79514E+01-2.20608E+01-4.88516E+00



 n o d a l   p r i n t   o u t   f o r   t i m e  s t e p    7801                              ( at time 3.8996097E+00 )

 nodal point  x-rot      y-rot       z-rot       x-rot vel   y-rot vel   z-rot vel   x-rot acc   y-rot acc   z-rot acc
    22626 -1.77200E-05-6.01580E-05-1.50105E-04-1.67043E-05-1.55285E-05-4.55035E-05-3.92656E-05 1.51081E-04 2.96710E-04



 n o d a l   p r i n t   o u t   f o r   t i m e  s t e p    8001                              ( at time 3.9995997E+00 )

 nodal point  x-disp     y-disp      z-disp      x-vel       y-vel       z-vel      x-accl      y-accl      z-accl      x-coor      y-coor      z-coor
    22626 -1.38068E-02-3.07702E-02-1.25397E+01-9.34993E-03 1.38066E-03-3.16070E+00 7.96022E-03-1.16562E-02-2.83985E-03 4.79504E+01-2.20606E+01-5.20119E+00



 n o d a l   p r i n t   o u t   f o r   t i m e  s t e p    8001                              ( at time 3.9995997E+00 )

 nodal point  x-rot      y-rot       z-rot       x-rot vel   y-rot vel   z-rot vel   x-rot acc   y-rot acc   z-rot acc
    22626 -1.93326E-05-6.10057E-05-1.53441E-04-1.76956E-05-1.76591E-06-2.38985E-05-9.91404E-06 1.37639E-04 2.16072E-04



 n o d a l   p r i n t   o u t   f o r   t i m e  s t e p    8201                              ( at time 4.0995897E+00 )

 nodal point  x-disp     y-disp      z-disp      x-vel       y-vel       z-vel      x-accl      y-accl      z-accl      x-coor      y-coor      z-coor
    22626 -1.46770E-02-3.07592E-02-1.28557E+01-7.75969E-03-1.19661E-03-3.16019E+00 1.59040E-02-2.57753E-02 5.01682E-03 4.79495E+01-2.20605E+01-5.51721E+00



 n o d a l   p r i n t   o u t   f o r   t i m e  s t e p    8201                              ( at time 4.0995897E+00 )

 nodal point  x-rot      y-rot       z-rot       x-rot vel   y-rot vel   z-rot vel   x-rot acc   y-rot acc   z-rot acc
    22626 -2.10370E-05-6.05615E-05-1.54519E-04-1.68307E-05 1.52765E-05 4.37594E-06 8.64908E-06 1.70441E-04 2.82772E-04



 n o d a l   p r i n t   o u t   f o r   t i m e  s t e p    8401                              ( at time 4.1995797E+00 )

 nodal point  x-disp     y-disp      z-disp      x-vel       y-vel       z-vel      x-accl      y-accl      z-accl      x-coor      y-coor      z-coor
    22626 -1.53690E-02-3.10028E-02-1.31717E+01-6.07563E-03-3.58760E-03-3.15970E+00 1.68423E-02-2.39123E-02 4.93338E-03 4.79488E+01-2.20608E+01-5.83317E+00



 n o d a l   p r i n t   o u t   f o r   t i m e  s t e p    8401                              ( at time 4.1995797E+00 )

 nodal point  x-rot      y-rot       z-rot       x-rot vel   y-rot vel   z-rot vel   x-rot acc   y-rot acc   z-rot acc
    22626 -2.26425E-05-5.82194E-05-1.52299E-04-1.59851E-05 3.20525E-05 3.96687E-05 8.45688E-06 1.67777E-04 3.52964E-04



 n o d a l   p r i n t   o u t   f o r   t i m e  s t e p    8601                              ( at time 4.2995697E+00 )

 nodal point  x-disp     y-disp      z-disp      x-vel       y-vel       z-vel      x-accl      y-accl      z-accl      x-coor      y-coor      z-coor
    22626 -1.59147E-02-3.14578E-02-1.34876E+01-4.65087E-03-5.40842E-03-3.15980E+00 1.42491E-02-1.82101E-02-9.94306E-04 4.79483E+01-2.20612E+01-6.14910E+00



 n o d a l   p r i n t   o u t   f o r   t i m e  s t e p    8601                              ( at time 4.2995697E+00 )

 nodal point  x-rot      y-rot       z-rot       x-rot vel   y-rot vel   z-rot vel   x-rot acc   y-rot acc   z-rot acc
    22626 -2.42484E-05-5.40399E-05-1.47073E-04-1.53639E-05 4.84816E-05 6.75647E-05 6.21264E-06 1.64307E-04 2.78988E-04



 n o d a l   p r i n t   o u t   f o r   t i m e  s t e p    8801                              ( at time 4.3995597E+00 )

 nodal point  x-disp     y-disp      z-disp      x-vel       y-vel       z-vel      x-accl      y-accl      z-accl      x-coor      y-coor      z-coor
    22626 -1.63025E-02-3.20318E-02-1.38036E+01-2.99098E-03-6.08196E-03-3.16033E+00 1.66006E-02-6.73608E-03-5.27912E-03 4.79479E+01-2.20618E+01-6.46507E+00



 n o d a l   p r i n t   o u t   f o r   t i m e  s t e p    8801                              ( at time 4.3995597E+00 )

 nodal point  x-rot      y-rot       z-rot       x-rot vel   y-rot vel   z-rot vel   x-rot acc   y-rot acc   z-rot acc
    22626 -2.56970E-05-4.81589E-05-1.38460E-04-1.45116E-05 6.93691E-05 1.02329E-04 8.52440E-06 2.08897E-04 3.47674E-04



 n o d a l   p r i n t   o u t   f o r   t i m e  s t e p    9001                              ( at time 4.4995497E+00 )

 nodal point  x-disp     y-disp      z-disp      x-vel       y-vel       z-vel      x-accl      y-accl      z-accl      x-coor      y-coor      z-coor
    22626 -1.65148E-02-3.27356E-02-1.41196E+01-1.20254E-03-8.32344E-03-3.16007E+00 1.78861E-02-2.24170E-02 2.60140E-03 4.79477E+01-2.20625E+01-6.78107E+00



 n o d a l   p r i n t   o u t   f o r   t i m e  s t e p    9001                              ( at time 4.4995497E+00 )

 nodal point  x-rot      y-rot       z-rot       x-rot vel   y-rot vel   z-rot vel   x-rot acc   y-rot acc   z-rot acc
    22626 -2.69777E-05-4.01892E-05-1.26256E-04-9.34238E-06 8.75544E-05 1.37195E-04 5.16971E-05 1.81871E-04 3.48702E-04



 n o d a l   p r i n t   o u t   f o r   t i m e  s t e p    9201                              ( at time 4.5995397E+00 )

 nodal point  x-disp     y-disp      z-disp      x-vel       y-vel       z-vel      x-accl      y-accl      z-accl      x-coor      y-coor      z-coor
    22626 -1.65316E-02-3.37016E-02-1.44355E+01 8.48361E-04-1.08998E-02-3.15973E+00 2.05111E-02-2.57662E-02 3.39065E-03 4.79476E+01-2.20635E+01-7.09702E+00



 n o d a l   p r i n t   o u t   f o r   t i m e  s t e p    9201                              ( at time 4.5995397E+00 )

 nodal point  x-rot      y-rot       z-rot       x-rot vel   y-rot vel   z-rot vel   x-rot acc   y-rot acc   z-rot acc
    22626 -2.79625E-05-3.07282E-05-1.11503E-04-8.10363E-06 9.94496E-05 1.58626E-04 1.23887E-05 1.18964E-04 2.14323E-04



 n o d a l   p r i n t   o u t   f o r   t i m e  s t e p    9401                              ( at time 4.6995297E+00 )

 nodal point  x-disp     y-disp      z-disp      x-vel       y-vel       z-vel      x-accl      y-accl      z-accl      x-coor      y-coor      z-coor
    22626 -1.63426E-02-3.48535E-02-1.47514E+01 2.86827E-03-1.21268E-02-3.15964E+00 2.02012E-02-1.22710E-02 9.25158E-04 4.79478E+01-2.20646E+01-7.41294E+00



 n o d a l   p r i n t   o u t   f o r   t i m e  s t e p    9401                              ( at time 4.6995297E+00 )

 nodal point  x-rot      y-rot       z-rot       x-rot vel   y-rot vel   z-rot vel   x-rot acc   y-rot acc   z-rot acc
    22626 -2.87985E-05-1.96008E-05-9.38720E-05-9.62341E-06 1.22555E-04 1.94288E-04-1.51993E-05 2.31082E-04 3.56663E-04



 n o d a l   p r i n t   o u t   f o r   t i m e  s t e p    9601                              ( at time 4.7995197E+00 )

 nodal point  x-disp     y-disp      z-disp      x-vel       y-vel       z-vel      x-accl      y-accl      z-accl      x-coor      y-coor      z-coor
    22626 -1.59557E-02-3.61151E-02-1.50674E+01 4.66932E-03-1.29000E-02-3.16009E+00 1.80123E-02-7.73271E-03-4.54710E-03 4.79482E+01-2.20659E+01-7.72890E+00



 n o d a l   p r i n t   o u t   f o r   t i m e  s t e p    9601                              ( at time 4.7995197E+00 )

 nodal point  x-rot      y-rot       z-rot       x-rot vel   y-rot vel   z-rot vel   x-rot acc   y-rot acc   z-rot acc
    22626 -2.95493E-05-6.42547E-06-7.27058E-05-1.01189E-05 1.43056E-04 2.28612E-04-4.95499E-06 2.05028E-04 3.43275E-04



 n o d a l   p r i n t   o u t   f o r   t i m e  s t e p    9801                              ( at time 4.8995097E+00 )

 nodal point  x-disp     y-disp      z-disp      x-vel       y-vel       z-vel      x-accl      y-accl      z-accl      x-coor      y-coor      z-coor
    22626 -1.53796E-02-3.74458E-02-1.53834E+01 6.65960E-03-1.38583E-02-3.16044E+00 1.99048E-02-9.58464E-03-3.50272E-03 4.79488E+01-2.20672E+01-8.04491E+00



 n o d a l   p r i n t   o u t   f o r   t i m e  s t e p    9801                              ( at time 4.8995097E+00 )

 nodal point  x-rot      y-rot       z-rot       x-rot vel   y-rot vel   z-rot vel   x-rot acc   y-rot acc   z-rot acc
    22626 -3.04920E-05 8.55862E-06-4.87440E-05-8.93738E-06 1.55106E-04 2.49122E-04 1.18160E-05 1.20509E-04 2.05121E-04



 n o d a l   p r i n t   o u t   f o r   t i m e  s t e p   10001                              ( at time 4.9994997E+00 )

 nodal point  x-disp     y-disp      z-disp      x-vel       y-vel       z-vel      x-accl      y-accl      z-accl      x-coor      y-coor      z-coor
    22626 -1.46005E-02-3.89081E-02-1.56994E+01 8.89856E-03-1.54240E-02-3.16050E+00 2.23918E-02-1.56582E-02-6.19948E-04 4.79496E+01-2.20687E+01-8.36092E+00



 n o d a l   p r i n t   o u t   f o r   t i m e  s t e p   10001                              ( at time 4.9994997E+00 )

 nodal point  x-rot      y-rot       z-rot       x-rot vel   y-rot vel   z-rot vel   x-rot acc   y-rot acc   z-rot acc
    22626 -3.13782E-05 2.46551E-05-2.27190E-05-7.84882E-06 1.66768E-04 2.70962E-04 1.08866E-05 1.16628E-04 2.18419E-04



 n o d a l   p r i n t   o u t   f o r   t i m e  s t e p   10202                              ( at time 5.0999896E+00 )

 nodal point  x-disp     y-disp      z-disp      x-vel       y-vel       z-vel      x-accl      y-accl      z-accl      x-coor      y-coor      z-coor
    22626 -1.36001E-02-4.05020E-02-1.60170E+01 1.09486E-02-1.60982E-02-3.16085E+00 2.04003E-02-6.70857E-03-3.48056E-03 4.79506E+01-2.20703E+01-8.67853E+00



 n o d a l   p r i n t   o u t   f o r   t i m e  s t e p   10202                              ( at time 5.0999896E+00 )

 nodal point  x-rot      y-rot       z-rot       x-rot vel   y-rot vel   z-rot vel   x-rot acc   y-rot acc   z-rot acc
    22626 -3.22038E-05 4.22791E-05 5.77598E-06-8.47494E-06 1.82245E-04 2.95374E-04-6.23066E-06 1.54023E-04 2.42931E-04



 n o d a l   p r i n t   o u t   f o r   t i m e  s t e p   10402                              ( at time 5.1999796E+00 )

 nodal point  x-disp     y-disp      z-disp      x-vel       y-vel       z-vel      x-accl      y-accl      z-accl      x-coor      y-coor      z-coor
    22626 -1.24301E-02-4.20945E-02-1.63332E+01 1.24278E-02-1.54742E-02-3.16227E+00 1.47936E-02 6.23999E-03-1.41277E-02 4.79518E+01-2.20719E+01-8.99465E+00



 n o d a l   p r i n t   o u t   f o r   t i m e  s t e p   10402                              ( at time 5.1999796E+00 )

 nodal point  x-rot      y-rot       z-rot       x-rot vel   y-rot vel   z-rot vel   x-rot acc   y-rot acc   z-rot acc
    22626 -3.29677E-05 6.11567E-05 3.62732E-05-6.67155E-06 1.91702E-04 3.13931E-04 1.80357E-05 9.45762E-05 1.85590E-04



 n o d a l   p r i n t   o u t   f o r   t i m e  s t e p   10602                              ( at time 5.2999696E+00 )

 nodal point  x-disp     y-disp      z-disp      x-vel       y-vel       z-vel      x-accl      y-accl      z-accl      x-coor      y-coor      z-coor
    22626 -1.11278E-02-4.35841E-02-1.66494E+01 1.35800E-02-1.44798E-02-3.16398E+00 1.15232E-02 9.94528E-03-1.71059E-02 4.79531E+01-2.20734E+01-9.31094E+00



 n o d a l   p r i n t   o u t   f o r   t i m e  s t e p   10602                              ( at time 5.2999696E+00 )

 nodal point  x-rot      y-rot       z-rot       x-rot vel   y-rot vel   z-rot vel   x-rot acc   y-rot acc   z-rot acc
    22626 -3.35945E-05 8.07235E-05 6.81384E-05-7.20289E-06 1.98403E-04 3.24028E-04-5.31394E-06 6.70154E-05 1.00980E-04



 n o d a l   p r i n t   o u t   f o r   t i m e  s t e p   10802                              ( at time 5.3999596E+00 )

 nodal point  x-disp     y-disp      z-disp      x-vel       y-vel       z-vel      x-accl      y-accl      z-accl      x-coor      y-coor      z-coor
    22626 -9.71572E-03-4.49766E-02-1.69659E+01 1.48032E-02-1.34935E-02-3.16558E+00 1.22331E-02 9.86382E-03-1.60281E-02 4.79545E+01-2.20748E+01-9.62738E+00



 n o d a l   p r i n t   o u t   f o r   t i m e  s t e p   10802                              ( at time 5.3999596E+00 )

 nodal point  x-rot      y-rot       z-rot       x-rot vel   y-rot vel   z-rot vel   x-rot acc   y-rot acc   z-rot acc
    22626 -3.40312E-05 1.00801E-04 1.00842E-04-1.61337E-06 2.00743E-04 3.27231E-04 5.59008E-05 2.34048E-05 3.20346E-05



 n o d a l   p r i n t   o u t   f o r   t i m e  s t e p   11002                              ( at time 5.4999496E+00 )

 nodal point  x-disp     y-disp      z-disp      x-vel       y-vel       z-vel      x-accl      y-accl      z-accl      x-coor      y-coor      z-coor
    22626 -8.16544E-03-4.62566E-02-1.72825E+01 1.61415E-02-1.19801E-02-3.16735E+00 1.33850E-02 1.51358E-02-1.77616E-02 4.79560E+01-2.20760E+01-9.94400E+00



 n o d a l   p r i n t   o u t   f o r   t i m e  s t e p   11002                              ( at time 5.4999496E+00 )

 nodal point  x-rot      y-rot       z-rot       x-rot vel   y-rot vel   z-rot vel   x-rot acc   y-rot acc   z-rot acc
    22626 -3.41259E-05 1.21026E-04 1.34011E-04-1.13640E-06 2.05002E-04 3.35243E-04 4.77022E-06 4.25973E-05 8.01222E-05



 n o d a l   p r i n t   o u t   f o r   t i m e  s t e p   11202                              ( at time 5.5999396E+00 )

 nodal point  x-disp     y-disp      z-disp      x-vel       y-vel       z-vel      x-accl      y-accl      z-accl      x-coor      y-coor      z-coor
    22626 -6.50549E-03-4.73556E-02-1.75993E+01 1.68142E-02-9.75718E-03-3.16865E+00 6.72764E-03 2.22313E-02-1.29260E-02 4.79577E+01-2.20771E+01-1.02608E+01



 n o d a l   p r i n t   o u t   f o r   t i m e  s t e p   11202                              ( at time 5.5999396E+00 )

 nodal point  x-rot      y-rot       z-rot       x-rot vel   y-rot vel   z-rot vel   x-rot acc   y-rot acc   z-rot acc
    22626 -3.44459E-05 1.42024E-04 1.68075E-04-5.52536E-06 2.17236E-04 3.39095E-04-4.38940E-05 1.22353E-04 3.85292E-05



 n o d a l   p r i n t   o u t   f o r   t i m e  s t e p   11402                              ( at time 5.6999296E+00 )

 nodal point  x-disp     y-disp      z-disp      x-vel       y-vel       z-vel      x-accl      y-accl      z-accl      x-coor      y-coor      z-coor
    22626 -4.81132E-03-4.81755E-02-1.79162E+01 1.69885E-02-6.88911E-03-3.16954E+00 1.74275E-03 2.86834E-02-8.96540E-03 4.79594E+01-2.20780E+01-1.05777E+01



 n o d a l   p r i n t   o u t   f o r   t i m e  s t e p   11402                              ( at time 5.6999296E+00 )

 nodal point  x-rot      y-rot       z-rot       x-rot vel   y-rot vel   z-rot vel   x-rot acc   y-rot acc   z-rot acc
    22626 -3.45580E-05 1.64937E-04 2.01992E-04-3.62623E-06 2.45296E-04 3.40917E-04 1.89931E-05 2.80624E-04 1.82138E-05



 n o d a l   p r i n t   o u t   f o r   t i m e  s t e p   11602                              ( at time 5.7999195E+00 )

 nodal point  x-disp     y-disp      z-disp      x-vel       y-vel       z-vel      x-accl      y-accl      z-accl      x-coor      y-coor      z-coor
    22626 -3.10877E-03-4.87541E-02-1.82330E+01 1.72482E-02-4.83612E-03-3.16793E+00 2.59768E-03 2.05319E-02 1.60949E-02 4.79611E+01-2.20785E+01-1.08945E+01



 n o d a l   p r i n t   o u t   f o r   t i m e  s t e p   11602                              ( at time 5.7999195E+00 )

 nodal point  x-rot      y-rot       z-rot       x-rot vel   y-rot vel   z-rot vel   x-rot acc   y-rot acc   z-rot acc
    22626 -3.51915E-05 1.91487E-04 2.35682E-04-5.64794E-06 2.87658E-04 3.30768E-04-2.02191E-05 4.23658E-04-1.01501E-04



 n o d a l   p r i n t   o u t   f o r   t i m e  s t e p   11802                              ( at time 5.8999095E+00 )

 nodal point  x-disp     y-disp      z-disp      x-vel       y-vel       z-vel      x-accl      y-accl      z-accl      x-coor      y-coor      z-coor
    22626 -1.35937E-03-4.91892E-02-1.85496E+01 1.76152E-02-3.89724E-03-3.16420E+00 3.66991E-03 9.38979E-03 3.73234E-02 4.79628E+01-2.20790E+01-1.12111E+01



 n o d a l   p r i n t   o u t   f o r   t i m e  s t e p   11802                              ( at time 5.8999095E+00 )

 nodal point  x-rot      y-rot       z-rot       x-rot vel   y-rot vel   z-rot vel   x-rot acc   y-rot acc   z-rot acc
    22626 -3.53815E-05 2.23488E-04 2.68243E-04 1.51728E-07 3.55386E-04 3.22542E-04 5.80025E-05 6.77355E-04-8.22598E-05



 n o d a l   p r i n t   o u t   f o r   t i m e  s t e p   12002                              ( at time 5.9998995E+00 )

 nodal point  x-disp     y-disp      z-disp      x-vel       y-vel       z-vel      x-accl      y-accl      z-accl      x-coor      y-coor      z-coor
    22626  4.30743E-04-4.95101E-02-1.88657E+01 1.79209E-02-2.58579E-03-3.15809E+00 3.05743E-03 1.31158E-02 6.11224E-02 4.79646E+01-2.20793E+01-1.15272E+01



 n o d a l   p r i n t   o u t   f o r   t i m e  s t e p   12002                              ( at time 5.9998995E+00 )

 nodal point  x-rot      y-rot       z-rot       x-rot vel   y-rot vel   z-rot vel   x-rot acc   y-rot acc   z-rot acc
    22626 -3.60326E-05 2.63247E-04 2.99774E-04-1.00556E-05 4.49147E-04 3.05574E-04-1.02084E-04 9.37704E-04-1.69700E-04



 n o d a l   p r i n t   o u t   f o r   t i m e  s t e p   12202                              ( at time 6.0998895E+00 )

 nodal point  x-disp     y-disp      z-disp      x-vel       y-vel       z-vel      x-accl      y-accl      z-accl      x-coor      y-coor      z-coor
    22626  2.13496E-03-4.96713E-02-1.91811E+01 1.62128E-02-3.70082E-04-3.14940E+00-1.70826E-02 2.21592E-02 8.68929E-02 4.79663E+01-2.20795E+01-1.18426E+01



 n o d a l   p r i n t   o u t   f o r   t i m e  s t e p   12202                              ( at time 6.0998895E+00 )

 nodal point  x-rot      y-rot       z-rot       x-rot vel   y-rot vel   z-rot vel   x-rot acc   y-rot acc   z-rot acc
    22626 -3.61507E-05 3.14869E-04 3.29054E-04 1.02714E-05 5.91315E-04 2.79687E-04 2.03290E-04 1.42181E-03-2.58899E-04



 n o d a l   p r i n t   o u t   f o r   t i m e  s t e p   12402                              ( at time 6.1998795E+00 )

 nodal point  x-disp     y-disp      z-disp      x-vel       y-vel       z-vel      x-accl      y-accl      z-accl      x-coor      y-coor      z-coor
    22626  3.67631E-03-4.96294E-02-1.94954E+01 1.48353E-02 8.59074E-04-3.13679E+00-1.37769E-02 1.22928E-02 1.26150E-01 4.79679E+01-2.20794E+01-1.21569E+01



 n o d a l   p r i n t   o u t   f o r   t i m e  s t e p   12402                              ( at time 6.1998795E+00 )

 nodal point  x-rot      y-rot       z-rot       x-rot vel   y-rot vel   z-rot vel   x-rot acc   y-rot acc   z-rot acc
    22626 -3.46627E-05 3.82891E-04 3.55121E-04 2.14186E-05 7.79203E-04 2.43134E-04 1.11483E-04 1.87907E-03-3.65567E-04



 n o d a l   p r i n t   o u t   f o r   t i m e  s t e p   12602                              ( at time 6.2998695E+00 )

 nodal point  x-disp     y-disp      z-disp      x-vel       y-vel       z-vel      x-accl      y-accl      z-accl      x-coor      y-coor      z-coor
    22626  5.08505E-03-4.94810E-02-1.98082E+01 1.30552E-02 2.42924E-03-3.12026E+00-1.78022E-02 1.57032E-02 1.65341E-01 4.79693E+01-2.20793E+01-1.24697E+01



 n o d a l   p r i n t   o u t   f o r   t i m e  s t e p   12602                              ( at time 6.2998695E+00 )

 nodal point  x-rot      y-rot       z-rot       x-rot vel   y-rot vel   z-rot vel   x-rot acc   y-rot acc   z-rot acc
    22626 -3.10490E-05 4.72746E-04 3.77044E-04 5.50699E-05 1.01959E-03 1.96518E-04 3.36547E-04 2.40409E-03-4.66206E-04



 n o d a l   p r i n t   o u t   f o r   t i m e  s t e p   12802                              ( at time 6.3998595E+00 )

 nodal point  x-disp     y-disp      z-disp      x-vel       y-vel       z-vel      x-accl      y-accl      z-accl      x-coor      y-coor      z-coor
    22626  6.26449E-03-4.91920E-02-2.01193E+01 1.00883E-02 3.53042E-03-3.10045E+00-2.96726E-02 1.10129E-02 1.98058E-01 4.79704E+01-2.20790E+01-1.27808E+01



 n o d a l   p r i n t   o u t   f o r   t i m e  s t e p   12802                              ( at time 6.3998595E+00 )

 nodal point  x-rot      y-rot       z-rot       x-rot vel   y-rot vel   z-rot vel   x-rot acc   y-rot acc   z-rot acc
    22626 -2.45769E-05 5.89275E-04 3.95269E-04 7.85643E-05 1.31924E-03 1.61325E-04 2.34968E-04 2.99687E-03-3.51965E-04



 n o d a l   p r i n t   o u t   f o r   t i m e  s t e p   13002                              ( at time 6.4998495E+00 )

 nodal point  x-disp     y-disp      z-disp      x-vel       y-vel       z-vel      x-accl      y-accl      z-accl      x-coor      y-coor      z-coor
    22626  7.08858E-03-4.87137E-02-2.04282E+01 6.35343E-03 6.32514E-03-3.07837E+00-3.73521E-02 2.79501E-02 2.20846E-01 4.79713E+01-2.20785E+01-1.30897E+01



 n o d a l   p r i n t   o u t   f o r   t i m e  s t e p   13002                              ( at time 6.4998495E+00 )

 nodal point  x-rot      y-rot       z-rot       x-rot vel   y-rot vel   z-rot vel   x-rot acc   y-rot acc   z-rot acc
    22626 -1.43254E-05 7.38562E-04 4.08355E-04 1.32441E-04 1.67317E-03 9.96641E-05 5.38817E-04 3.53962E-03-6.16669E-04



 n o d a l   p r i n t   o u t   f o r   t i m e  s t e p   13202                              ( at time 6.5998395E+00 )

 nodal point  x-disp     y-disp      z-disp      x-vel       y-vel       z-vel      x-accl      y-accl      z-accl      x-coor      y-coor      z-coor
    22626  7.47222E-03-4.79335E-02-2.07347E+01 1.49502E-03 8.78702E-03-3.05247E+00-4.85888E-02 2.46212E-02 2.59057E-01 4.79717E+01-2.20777E+01-1.33962E+01



 n o d a l   p r i n t   o u t   f o r   t i m e  s t e p   13202                              ( at time 6.5998395E+00 )

 nodal point  x-rot      y-rot       z-rot       x-rot vel   y-rot vel   z-rot vel   x-rot acc   y-rot acc   z-rot acc
    22626  1.52096E-06 9.25202E-04 4.15604E-04 1.83901E-04 2.06068E-03 4.97771E-05 5.14658E-04 3.87552E-03-4.98918E-04



 n o d a l   p r i n t   o u t   f o r   t i m e  s t e p   13402                              ( at time 6.6998295E+00 )

 nodal point  x-disp     y-disp      z-disp      x-vel       y-vel       z-vel      x-accl      y-accl      z-accl      x-coor      y-coor      z-coor
    22626  7.36751E-03-4.69071E-02-2.10385E+01-3.67382E-03 1.12722E-02-3.02320E+00-5.16936E-02 2.48543E-02 2.92688E-01 4.79715E+01-2.20767E+01-1.37000E+01



 n o d a l   p r i n t   o u t   f o r   t i m e  s t e p   13402                              ( at time 6.6998295E+00 )

 nodal point  x-rot      y-rot       z-rot       x-rot vel   y-rot vel   z-rot vel   x-rot acc   y-rot acc   z-rot acc
    22626  2.31869E-05 1.15252E-03 4.16826E-04 2.47508E-04 2.49367E-03-1.62427E-05 6.36128E-04 4.33025E-03-6.60264E-04



 n o d a l   p r i n t   o u t   f o r   t i m e  s t e p   13602                              ( at time 6.7998195E+00 )

 nodal point  x-disp     y-disp      z-disp      x-vel       y-vel       z-vel      x-accl      y-accl      z-accl      x-coor      y-coor      z-coor
    22626  6.69530E-03-4.57078E-02-2.13393E+01-9.70633E-03 1.26269E-02-2.99204E+00-6.03312E-02 1.35484E-02 3.11614E-01 4.79709E+01-2.20755E+01-1.40008E+01



 n o d a l   p r i n t   o u t   f o r   t i m e  s t e p   13602                              ( at time 6.7998195E+00 )

 nodal point  x-rot      y-rot       z-rot       x-rot vel   y-rot vel   z-rot vel   x-rot acc   y-rot acc   z-rot acc
    22626  5.17099E-05 1.42373E-03 4.12893E-04 3.17391E-04 2.94019E-03-5.96694E-05 6.98899E-04 4.46566E-03-4.34311E-04



 n o d a l   p r i n t   o u t   f o r   t i m e  s t e p   13802                              ( at time 6.8998095E+00 )

 nodal point  x-disp     y-disp      z-disp      x-vel       y-vel       z-vel      x-accl      y-accl      z-accl      x-coor      y-coor      z-coor
    22626  5.42721E-03-4.43257E-02-2.16368E+01-1.56466E-02 1.49480E-02-2.95854E+00-5.94087E-02 2.32136E-02 3.35017E-01 4.79696E+01-2.20741E+01-1.42983E+01



 n o d a l   p r i n t   o u t   f o r   t i m e  s t e p   13802                              ( at time 6.8998095E+00 )

 nodal point  x-rot      y-rot       z-rot       x-rot vel   y-rot vel   z-rot vel   x-rot acc   y-rot acc   z-rot acc
    22626  8.77235E-05 1.74056E-03 4.03946E-04 4.05629E-04 3.39437E-03-1.15918E-04 8.82478E-04 4.54227E-03-5.62540E-04



 n o d a l   p r i n t   o u t   f o r   t i m e  s t e p   14002                              ( at time 6.9997995E+00 )

 nodal point  x-disp     y-disp      z-disp      x-vel       y-vel       z-vel      x-accl      y-accl      z-accl      x-coor      y-coor      z-coor
    22626  3.52539E-03-4.27340E-02-2.19308E+01-2.28617E-02 1.72729E-02-2.92327E+00-7.21584E-02 2.32509E-02 3.52781E-01 4.79677E+01-2.20725E+01-1.45923E+01



 n o d a l   p r i n t   o u t   f o r   t i m e  s t e p   14002                              ( at time 6.9997995E+00 )

 nodal point  x-rot      y-rot       z-rot       x-rot vel   y-rot vel   z-rot vel   x-rot acc   y-rot acc   z-rot acc
    22626  1.31943E-04 2.10277E-03 3.90788E-04 4.90744E-04 3.85262E-03-1.60896E-04 8.51229E-04 4.58302E-03-4.49826E-04



 n o d a l   p r i n t   o u t   f o r   t i m e  s t e p   14202                              ( at time 7.0997895E+00 )

 nodal point  x-disp     y-disp      z-disp      x-vel       y-vel       z-vel      x-accl      y-accl      z-accl      x-coor      y-coor      z-coor
    22626  9.53920E-04-4.10124E-02-2.22213E+01-2.90016E-02 1.73483E-02-2.88567E+00-6.14053E-02 7.54053E-04 3.76053E-01 4.79651E+01-2.20708E+01-1.48828E+01



 n o d a l   p r i n t   o u t   f o r   t i m e  s t e p   14202                              ( at time 7.0997895E+00 )

 nodal point  x-rot      y-rot       z-rot       x-rot vel   y-rot vel   z-rot vel   x-rot acc   y-rot acc   z-rot acc
    22626  1.85172E-04 2.51049E-03 3.74316E-04 5.76219E-04 4.29970E-03-1.74213E-04 8.54830E-04 4.47120E-03-1.33185E-04



 n o d a l   p r i n t   o u t   f o r   t i m e  s t e p   14402                              ( at time 7.1997794E+00 )

 nodal point  x-disp     y-disp      z-disp      x-vel       y-vel       z-vel      x-accl      y-accl      z-accl      x-coor      y-coor      z-coor
    22626 -2.16149E-03-3.92757E-02-2.25078E+01-3.31191E-02 1.68446E-02-2.84466E+00-4.11789E-02-5.03762E-03 4.10140E-01 4.79620E+01-2.20691E+01-1.51693E+01



 n o d a l   p r i n t   o u t   f o r   t i m e  s t e p   14402                              ( at time 7.1997794E+00 )

 nodal point  x-rot      y-rot       z-rot       x-rot vel   y-rot vel   z-rot vel   x-rot acc   y-rot acc   z-rot acc
    22626  2.48110E-04 2.96160E-03 3.55737E-04 6.93205E-04 4.70926E-03-1.85003E-04 1.16998E-03 4.09603E-03-1.07908E-04



 n o d a l   p r i n t   o u t   f o r   t i m e  s t e p   14602                              ( at time 7.2997694E+00 )

 nodal point  x-disp     y-disp      z-disp      x-vel       y-vel       z-vel      x-accl      y-accl      z-accl      x-coor      y-coor      z-coor
    22626 -5.71906E-03-3.76045E-02-2.27901E+01-3.88202E-02 1.69552E-02-2.80066E+00-5.70165E-02 1.10608E-03 4.40020E-01 4.79585E+01-2.20674E+01-1.54516E+01



 n o d a l   p r i n t   o u t   f o r   t i m e  s t e p   14602                              ( at time 7.2997694E+00 )

 nodal point  x-rot      y-rot       z-rot       x-rot vel   y-rot vel   z-rot vel   x-rot acc   y-rot acc   z-rot acc
    22626  3.24474E-04 3.45186E-03 3.36497E-04 8.30803E-04 5.09341E-03-2.07428E-04 1.37612E-03 3.84185E-03-2.24278E-04



 n o d a l   p r i n t   o u t   f o r   t i m e  s t e p   14802                              ( at time 7.3997594E+00 )

 nodal point  x-disp     y-disp      z-disp      x-vel       y-vel       z-vel      x-accl      y-accl      z-accl      x-coor      y-coor      z-coor
    22626 -9.73341E-03-3.59745E-02-2.30678E+01-4.20050E-02 1.53581E-02-2.75485E+00-3.18510E-02-1.59718E-02 4.58170E-01 4.79544E+01-2.20658E+01-1.57293E+01



 n o d a l   p r i n t   o u t   f o r   t i m e  s t e p   14802                              ( at time 7.3997594E+00 )

 nodal point  x-rot      y-rot       z-rot       x-rot vel   y-rot vel   z-rot vel   x-rot acc   y-rot acc   z-rot acc
    22626  4.13934E-04 3.97966E-03 3.17168E-04 9.68815E-04 5.44599E-03-1.87443E-04 1.38027E-03 3.52618E-03 1.99871E-04



 n o d a l   p r i n t   o u t   f o r   t i m e  s t e p   15002                              ( at time 7.4997494E+00 )

 nodal point  x-disp     y-disp      z-disp      x-vel       y-vel       z-vel      x-accl      y-accl      z-accl      x-coor      y-coor      z-coor
    22626 -1.40595E-02-3.44973E-02-2.33409E+01-4.54079E-02 1.41690E-02-2.70676E+00-3.40329E-02-1.18928E-02 4.80972E-01 4.79501E+01-2.20643E+01-1.60024E+01



 n o d a l   p r i n t   o u t   f o r   t i m e  s t e p   15002                              ( at time 7.4997494E+00 )

 nodal point  x-rot      y-rot       z-rot       x-rot vel   y-rot vel   z-rot vel   x-rot acc   y-rot acc   z-rot acc
    22626  5.19062E-04 4.54206E-03 2.99612E-04 1.13445E-03 5.79241E-03-1.55801E-04 1.65647E-03 3.46454E-03 3.16448E-04



 n o d a l   p r i n t   o u t   f o r   t i m e  s t e p   15202                              ( at time 7.5997394E+00 )

 nodal point  x-disp     y-disp      z-disp      x-vel       y-vel       z-vel      x-accl      y-accl      z-accl      x-coor      y-coor      z-coor
    22626 -1.86168E-02-3.31563E-02-2.36090E+01-4.63082E-02 1.20553E-02-2.65572E+00-9.00322E-03-2.11393E-02 5.10379E-01 4.79456E+01-2.20629E+01-1.62705E+01



 n o d a l   p r i n t   o u t   f o r   t i m e  s t e p   15202                              ( at time 7.5997394E+00 )

 nodal point  x-rot      y-rot       z-rot       x-rot vel   y-rot vel   z-rot vel   x-rot acc   y-rot acc   z-rot acc
    22626  6.40486E-04 5.13594E-03 2.83050E-04 1.30464E-03 6.09992E-03-1.69221E-04 1.70215E-03 3.07542E-03-1.34208E-04



 n o d a l   p r i n t   o u t   f o r   t i m e  s t e p   15402                              ( at time 7.6997294E+00 )

 nodal point  x-disp     y-disp      z-disp      x-vel       y-vel       z-vel      x-accl      y-accl      z-accl      x-coor      y-coor      z-coor
    22626 -2.33131E-02-3.20635E-02-2.38719E+01-4.72167E-02 9.71707E-03-2.60261E+00-9.08653E-03-2.33843E-02 5.31150E-01 4.79409E+01-2.20619E+01-1.65334E+01



 n o d a l   p r i n t   o u t   f o r   t i m e  s t e p   15402                              ( at time 7.6997294E+00 )

 nodal point  x-rot      y-rot       z-rot       x-rot vel   y-rot vel   z-rot vel   x-rot acc   y-rot acc   z-rot acc
    22626  7.82254E-04 5.75979E-03 2.68413E-04 1.50134E-03 6.37419E-03-1.27770E-04 1.96714E-03 2.74297E-03 4.14551E-04



 n o d a l   p r i n t   o u t   f o r   t i m e  s t e p   15602                              ( at time 7.7997194E+00 )

 nodal point  x-disp     y-disp      z-disp      x-vel       y-vel       z-vel      x-accl      y-accl      z-accl      x-coor      y-coor      z-coor
    22626 -2.81150E-02-3.10628E-02-2.41292E+01-4.90402E-02 9.31914E-03-2.54576E+00-1.82362E-02-3.97965E-03 5.68626E-01 4.79361E+01-2.20609E+01-1.67907E+01



 n o d a l   p r i n t   o u t   f o r   t i m e  s t e p   15602                              ( at time 7.7997194E+00 )

 nodal point  x-rot      y-rot       z-rot       x-rot vel   y-rot vel   z-rot vel   x-rot acc   y-rot acc   z-rot acc
    22626  9.44521E-04 6.41064E-03 2.57644E-04 1.72857E-03 6.64729E-03-9.22392E-05 2.27253E-03 2.73128E-03 3.55344E-04



 n o d a l   p r i n t   o u t   f o r   t i m e  s t e p   15802                              ( at time 7.8997094E+00 )

 nodal point  x-disp     y-disp      z-disp      x-vel       y-vel       z-vel      x-accl      y-accl      z-accl      x-coor      y-coor      z-coor
    22626 -3.28315E-02-3.01807E-02-2.43810E+01-4.61791E-02 8.28036E-03-2.48827E+00 2.86139E-02-1.03889E-02 5.74892E-01 4.79313E+01-2.20600E+01-1.70425E+01



 n o d a l   p r i n t   o u t   f o r   t i m e  s t e p   15802                              ( at time 7.8997094E+00 )

 nodal point  x-rot      y-rot       z-rot       x-rot vel   y-rot vel   z-rot vel   x-rot acc   y-rot acc   z-rot acc
    22626  1.12986E-03 7.08397E-03 2.50983E-04 1.97921E-03 6.83993E-03-4.17809E-05 2.50663E-03 1.92658E-03 5.04634E-04



 n o d a l   p r i n t   o u t   f o r   t i m e  s t e p   16002                              ( at time 7.9996994E+00 )

 nodal point  x-disp     y-disp      z-disp      x-vel       y-vel       z-vel      x-accl      y-accl      z-accl      x-coor      y-coor      z-coor
    22626 -3.73371E-02-2.92708E-02-2.46266E+01-4.32674E-02 8.32028E-03-2.42614E+00 2.91191E-02 3.99324E-04 6.21395E-01 4.79268E+01-2.20591E+01-1.72881E+01



 n o d a l   p r i n t   o u t   f o r   t i m e  s t e p   16002                              ( at time 7.9996994E+00 )

 nodal point  x-rot      y-rot       z-rot       x-rot vel   y-rot vel   z-rot vel   x-rot acc   y-rot acc   z-rot acc
    22626  1.34219E-03 7.78053E-03 2.48583E-04 2.27892E-03 7.07023E-03 1.72665E-05 2.99748E-03 2.30324E-03 5.90531E-04



 n o d a l   p r i n t   o u t   f o r   t i m e  s t e p   16202                              ( at time 8.0996894E+00 )

 nodal point  x-disp     y-disp      z-disp      x-vel       y-vel       z-vel      x-accl      y-accl      z-accl      x-coor      y-coor      z-coor
    22626 -4.14852E-02-2.84771E-02-2.48659E+01-3.80901E-02 8.23655E-03-2.36121E+00 5.17786E-02-8.37418E-04 6.49370E-01 4.79227E+01-2.20583E+01-1.75274E+01



 n o d a l   p r i n t   o u t   f o r   t i m e  s t e p   16202                              ( at time 8.0996894E+00 )

 nodal point  x-rot      y-rot       z-rot       x-rot vel   y-rot vel   z-rot vel   x-rot acc   y-rot acc   z-rot acc
    22626  1.58396E-03 8.49597E-03 2.52422E-04 2.54898E-03 7.23268E-03 5.83816E-05 2.70083E-03 1.62462E-03 4.11192E-04



 n o d a l   p r i n t   o u t   f o r   t i m e  s t e p   16402                              ( at time 8.1996794E+00 )

 nodal point  x-disp     y-disp      z-disp      x-vel       y-vel       z-vel      x-accl      y-accl      z-accl      x-coor      y-coor      z-coor
    22626 -4.49849E-02-2.75746E-02-2.50987E+01-3.14698E-02 9.57727E-03-2.29586E+00 6.62093E-02 1.34086E-02 6.53538E-01 4.79192E+01-2.20574E+01-1.77602E+01



 n o d a l   p r i n t   o u t   f o r   t i m e  s t e p   16402                              ( at time 8.1996794E+00 )

 nodal point  x-rot      y-rot       z-rot       x-rot vel   y-rot vel   z-rot vel   x-rot acc   y-rot acc   z-rot acc
    22626  1.85692E-03 9.22680E-03 2.60197E-04 2.91028E-03 7.38534E-03 1.14235E-04 3.61337E-03 1.52680E-03 5.58588E-04



 n o d a l   p r i n t   o u t   f o r   t i m e  s t e p   16602                              ( at time 8.2996694E+00 )

 nodal point  x-disp     y-disp      z-disp      x-vel       y-vel       z-vel      x-accl      y-accl      z-accl      x-coor      y-coor      z-coor
    22626 -4.78547E-02-2.65771E-02-2.53249E+01-2.46318E-02 1.30890E-02-2.22539E+00 6.83876E-02 3.51208E-02 7.04806E-01 4.79163E+01-2.20564E+01-1.79864E+01



 n o d a l   p r i n t   o u t   f o r   t i m e  s t e p   16602                              ( at time 8.2996694E+00 )

 nodal point  x-rot      y-rot       z-rot       x-rot vel   y-rot vel   z-rot vel   x-rot acc   y-rot acc   z-rot acc
    22626  2.16464E-03 9.97430E-03 2.76108E-04 3.24178E-03 7.56620E-03 1.56211E-04 3.31535E-03 1.80879E-03 4.19808E-04



 n o d a l   p r i n t   o u t   f o r   t i m e  s t e p   16802                              ( at time 8.3996594E+00 )

 nodal point  x-disp     y-disp      z-disp      x-vel       y-vel       z-vel      x-accl      y-accl      z-accl      x-coor      y-coor      z-coor
    22626 -4.98130E-02-2.54067E-02-2.55439E+01-1.38224E-02 1.03501E-02-2.15597E+00 1.08105E-01-2.73921E-02 6.94283E-01 4.79144E+01-2.20552E+01-1.82054E+01



 n o d a l   p r i n t   o u t   f o r   t i m e  s t e p   16802                              ( at time 8.3996594E+00 )

 nodal point  x-rot      y-rot       z-rot       x-rot vel   y-rot vel   z-rot vel   x-rot acc   y-rot acc   z-rot acc
    22626  2.50873E-03 1.07359E-02 2.95220E-04 3.63567E-03 7.60933E-03 2.31887E-04 3.93926E-03 4.31269E-04 7.56835E-04



 n o d a l   p r i n t   o u t   f o r   t i m e  s t e p   17002                              ( at time 8.4996494E+00 )

 nodal point  x-disp     y-disp      z-disp      x-vel       y-vel       z-vel      x-accl      y-accl      z-accl      x-coor      y-coor      z-coor
    22626 -5.07573E-02-2.40782E-02-2.57556E+01-4.74624E-03 1.31016E-02-2.08205E+00 9.07708E-02 2.75181E-02 7.39292E-01 4.79134E+01-2.20539E+01-1.84171E+01



 n o d a l   p r i n t   o u t   f o r   t i m e  s t e p   17002                              ( at time 8.4996494E+00 )

 nodal point  x-rot      y-rot       z-rot       x-rot vel   y-rot vel   z-rot vel   x-rot acc   y-rot acc   z-rot acc
    22626  2.88953E-03 1.15075E-02 3.18966E-04 3.99696E-03 7.78207E-03 2.57375E-04 3.61332E-03 1.72765E-03 2.54905E-04



 n o d a l   p r i n t   o u t   f o r   t i m e  s t e p   17202                              ( at time 8.5996394E+00 )

 nodal point  x-disp     y-disp      z-disp      x-vel       y-vel       z-vel      x-accl      y-accl      z-accl      x-coor      y-coor      z-coor
    22626 -5.05203E-02-2.27648E-02-2.59598E+01 8.28131E-03 1.38110E-02-2.00108E+00 1.30289E-01 7.09446E-03 8.09749E-01 4.79137E+01-2.20526E+01-1.86213E+01



 n o d a l   p r i n t   o u t   f o r   t i m e  s t e p   17202                              ( at time 8.5996394E+00 )

 nodal point  x-rot      y-rot       z-rot       x-rot vel   y-rot vel   z-rot vel   x-rot acc   y-rot acc   z-rot acc
    22626  3.31080E-03 1.22902E-02 3.48422E-04 4.41908E-03 7.90466E-03 3.59768E-04 4.22162E-03 1.22600E-03 1.02403E-03



 n o d a l   p r i n t   o u t   f o r   t i m e  s t e p   17402                              ( at time 8.6996293E+00 )

 nodal point  x-disp     y-disp      z-disp      x-vel       y-vel       z-vel      x-accl      y-accl      z-accl      x-coor      y-coor      z-coor
    22626 -4.91421E-02-2.11315E-02-2.61562E+01 2.03496E-02 1.89827E-02-1.92821E+00 1.20694E-01 5.17218E-02 7.28766E-01 4.79150E+01-2.20509E+01-1.88177E+01



 n o d a l   p r i n t   o u t   f o r   t i m e  s t e p   17402                              ( at time 8.6996293E+00 )

 nodal point  x-rot      y-rot       z-rot       x-rot vel   y-rot vel   z-rot vel   x-rot acc   y-rot acc   z-rot acc
    22626  3.77082E-03 1.30834E-02 3.81085E-04 4.83392E-03 7.94355E-03 3.27912E-04 4.14878E-03 3.88937E-04-3.18583E-04



 n o d a l   p r i n t   o u t   f o r   t i m e  s t e p   17602                              ( at time 8.7996193E+00 )

 nodal point  x-disp     y-disp      z-disp      x-vel       y-vel       z-vel      x-accl      y-accl      z-accl      x-coor      y-coor      z-coor
    22626 -4.63026E-02-1.94901E-02-2.63449E+01 3.77572E-02 1.77987E-02-1.84370E+00 1.74094E-01-1.18406E-02 8.45146E-01 4.79179E+01-2.20493E+01-1.90064E+01



 n o d a l   p r i n t   o u t   f o r   t i m e  s t e p   17602                              ( at time 8.7996193E+00 )

 nodal point  x-rot      y-rot       z-rot       x-rot vel   y-rot vel   z-rot vel   x-rot acc   y-rot acc   z-rot acc
    22626  4.27313E-03 1.38801E-02 4.19462E-04 5.22382E-03 8.01381E-03 3.83156E-04 3.89937E-03 7.02679E-04 5.52491E-04



 n o d a l   p r i n t   o u t   f o r   t i m e  s t e p   17802                              ( at time 8.8996093E+00 )

 nodal point  x-disp     y-disp      z-disp      x-vel       y-vel       z-vel      x-accl      y-accl      z-accl      x-coor      y-coor      z-coor
    22626 -4.20971E-02-1.76642E-02-2.65254E+01 4.93743E-02 1.84276E-02-1.76601E+00 1.16182E-01 6.28956E-03 7.77032E-01 4.79221E+01-2.20475E+01-1.91869E+01



 n o d a l   p r i n t   o u t   f o r   t i m e  s t e p   17802                              ( at time 8.8996093E+00 )

 nodal point  x-rot      y-rot       z-rot       x-rot vel   y-rot vel   z-rot vel   x-rot acc   y-rot acc   z-rot acc
    22626  4.81763E-03 1.46845E-02 4.60222E-04 5.65705E-03 8.03185E-03 4.37710E-04 4.33270E-03 1.80350E-04 5.45599E-04



 n o d a l   p r i n t   o u t   f o r   t i m e  s t e p   18002                              ( at time 8.9995993E+00 )

 nodal point  x-disp     y-disp      z-disp      x-vel       y-vel       z-vel      x-accl      y-accl      z-accl      x-coor      y-coor      z-coor
    22626 -3.63919E-02-1.57392E-02-2.66978E+01 6.33865E-02 1.97729E-02-1.68108E+00 1.40136E-01 1.34540E-02 8.49372E-01 4.79278E+01-2.20455E+01-1.93593E+01



 n o d a l   p r i n t   o u t   f o r   t i m e  s t e p   18002                              ( at time 8.9995993E+00 )

 nodal point  x-rot      y-rot       z-rot       x-rot vel   y-rot vel   z-rot vel   x-rot acc   y-rot acc   z-rot acc
    22626  5.40407E-03 1.54919E-02 5.02694E-04 6.07208E-03 8.10446E-03 4.32210E-04 4.15075E-03 7.26272E-04-5.50010E-05



 n o d a l   p r i n t   o u t   f o r   t i m e  s t e p   18202                              ( at time 9.0995893E+00 )

 nodal point  x-disp     y-disp      z-disp      x-vel       y-vel       z-vel      x-accl      y-accl      z-accl      x-coor      y-coor      z-coor
    22626 -2.91514E-02-1.37598E-02-2.68619E+01 7.92439E-02 2.06114E-02-1.59930E+00 1.58590E-01 8.38597E-03 8.17885E-01 4.79350E+01-2.20436E+01-1.95234E+01



 n o d a l   p r i n t   o u t   f o r   t i m e  s t e p   18202                              ( at time 9.0995893E+00 )

 nodal point  x-rot      y-rot       z-rot       x-rot vel   y-rot vel   z-rot vel   x-rot acc   y-rot acc   z-rot acc
    22626  6.03341E-03 1.63044E-02 5.47815E-04 6.51551E-03 8.19718E-03 4.74667E-04 4.43474E-03 9.27253E-04 4.24613E-04



 n o d a l   p r i n t   o u t   f o r   t i m e  s t e p   18402                              ( at time 9.1995793E+00 )

 nodal point  x-disp     y-disp      z-disp      x-vel       y-vel       z-vel      x-accl      y-accl      z-accl      x-coor      y-coor      z-coor
    22626 -2.05989E-02-1.15933E-02-2.70179E+01 9.41587E-02 2.31487E-02-1.52160E+00 1.49164E-01 2.53758E-02 7.77035E-01 4.79436E+01-2.20414E+01-1.96794E+01



 n o d a l   p r i n t   o u t   f o r   t i m e  s t e p   18402                              ( at time 9.1995793E+00 )

 nodal point  x-rot      y-rot       z-rot       x-rot vel   y-rot vel   z-rot vel   x-rot acc   y-rot acc   z-rot acc
    22626  6.70289E-03 1.71229E-02 5.95728E-04 6.89108E-03 8.16495E-03 4.59840E-04 3.75606E-03-3.22335E-04-1.48291E-04



 n o d a l   p r i n t   o u t   f o r   t i m e  s t e p   18602                              ( at time 9.2995693E+00 )

 nodal point  x-disp     y-disp      z-disp      x-vel       y-vel       z-vel      x-accl      y-accl      z-accl      x-coor      y-coor      z-coor
    22626 -1.06333E-02-9.44782E-03-2.71655E+01 1.06636E-01 1.98902E-02-1.43390E+00 1.24787E-01-3.25887E-02 8.77136E-01 4.79535E+01-2.20392E+01-1.98270E+01



 n o d a l   p r i n t   o u t   f o r   t i m e  s t e p   18602                              ( at time 9.2995693E+00 )

 nodal point  x-rot      y-rot       z-rot       x-rot vel   y-rot vel   z-rot vel   x-rot acc   y-rot acc   z-rot acc
    22626  7.41582E-03 1.79471E-02 6.43971E-04 7.33153E-03 8.29274E-03 5.25320E-04 4.40494E-03 1.27807E-03 6.54869E-04



 n o d a l   p r i n t   o u t   f o r   t i m e  s t e p   18802                              ( at time 9.3995593E+00 )

 nodal point  x-disp     y-disp      z-disp      x-vel       y-vel       z-vel      x-accl      y-accl      z-accl      x-coor      y-coor      z-coor
    22626  8.62080E-04-7.18494E-03-2.73046E+01 1.21409E-01 2.13813E-02-1.35059E+00 1.47743E-01 1.49122E-02 8.33124E-01 4.79650E+01-2.20370E+01-1.99661E+01



 n o d a l   p r i n t   o u t   f o r   t i m e  s t e p   18802                              ( at time 9.3995593E+00 )

 nodal point  x-rot      y-rot       z-rot       x-rot vel   y-rot vel   z-rot vel   x-rot acc   y-rot acc   z-rot acc
    22626  8.16985E-03 1.87772E-02 6.93523E-04 7.69035E-03 8.35638E-03 5.46093E-04 3.58859E-03 6.36465E-04 2.07753E-04



 n o d a l   p r i n t   o u t   f o r   t i m e  s t e p   19002                              ( at time 9.4995493E+00 )

 nodal point  x-disp     y-disp      z-disp      x-vel       y-vel       z-vel      x-accl      y-accl      z-accl      x-coor      y-coor      z-coor
    22626  1.38266E-02-4.97596E-03-2.74355E+01 1.31684E-01 2.34081E-02-1.26447E+00 1.02763E-01 2.02709E-02 8.61286E-01 4.79780E+01-2.20348E+01-2.00970E+01



 n o d a l   p r i n t   o u t   f o r   t i m e  s t e p   19002                              ( at time 9.4995493E+00 )

 nodal point  x-rot      y-rot       z-rot       x-rot vel   y-rot vel   z-rot vel   x-rot acc   y-rot acc   z-rot acc
    22626  8.96087E-03 1.96115E-02 7.44766E-04 8.10279E-03 8.38184E-03 5.19099E-04 4.12483E-03 2.54593E-04-2.69975E-04



 n o d a l   p r i n t   o u t   f o r   t i m e  s t e p   19202                              ( at time 9.5995393E+00 )

 nodal point  x-disp     y-disp      z-disp      x-vel       y-vel       z-vel      x-accl      y-accl      z-accl      x-coor      y-coor      z-coor
    22626  2.79806E-02-2.48549E-03-2.75578E+01 1.50589E-01 2.45214E-02-1.18166E+00 1.89060E-01 1.11334E-02 8.28231E-01 4.79922E+01-2.20323E+01-2.02193E+01



 n o d a l   p r i n t   o u t   f o r   t i m e  s t e p   19202                              ( at time 9.5995393E+00 )

 nodal point  x-rot      y-rot       z-rot       x-rot vel   y-rot vel   z-rot vel   x-rot acc   y-rot acc   z-rot acc
    22626  9.79158E-03 2.04543E-02 7.94070E-04 8.52932E-03 8.45387E-03 4.86301E-04 4.26568E-03 7.20360E-04-3.28009E-04



 n o d a l   p r i n t   o u t   f o r   t i m e  s t e p   19402                              ( at time 9.6995293E+00 )

 nodal point  x-disp     y-disp      z-disp      x-vel       y-vel       z-vel      x-accl      y-accl      z-accl      x-coor      y-coor      z-coor
    22626  4.37049E-02-2.19086E-04-2.76715E+01 1.61164E-01 2.31986E-02-1.09413E+00 1.05765E-01-1.32290E-02 8.75389E-01 4.80079E+01-2.20300E+01-2.03330E+01



 n o d a l   p r i n t   o u t   f o r   t i m e  s t e p   19402                              ( at time 9.6995293E+00 )

 nodal point  x-rot      y-rot       z-rot       x-rot vel   y-rot vel   z-rot vel   x-rot acc   y-rot acc   z-rot acc
    22626  1.06605E-02 2.13013E-02 8.45067E-04 8.84414E-03 8.52677E-03 5.06955E-04 3.14856E-03 7.29029E-04 2.06568E-04



 n o d a l   p r i n t   o u t   f o r   t i m e  s t e p   19602                              ( at time 9.7995193E+00 )

 nodal point  x-disp     y-disp      z-disp      x-vel       y-vel       z-vel      x-accl      y-accl      z-accl      x-coor      y-coor      z-coor
    22626  6.05964E-02 2.14992E-03-2.77768E+01 1.74223E-01 2.28671E-02-1.01077E+00 1.30607E-01-3.31514E-03 8.33649E-01 4.80248E+01-2.20276E+01-2.04383E+01



 n o d a l   p r i n t   o u t   f o r   t i m e  s t e p   19602                              ( at time 9.7995193E+00 )

 nodal point  x-rot      y-rot       z-rot       x-rot vel   y-rot vel   z-rot vel   x-rot acc   y-rot acc   z-rot acc
    22626  1.15655E-02 2.21573E-02 8.95259E-04 9.23307E-03 8.57712E-03 4.62380E-04 3.88963E-03 5.03552E-04-4.45793E-04



 n o d a l   p r i n t   o u t   f o r   t i m e  s t e p   19802                              ( at time 9.8995093E+00 )

 nodal point  x-disp     y-disp      z-disp      x-vel       y-vel       z-vel      x-accl      y-accl      z-accl      x-coor      y-coor      z-coor
    22626  7.86378E-02 4.21190E-03-2.78733E+01 1.87576E-01 2.11649E-02-9.22108E-01 1.33539E-01-1.70243E-02 8.86730E-01 4.80428E+01-2.20256E+01-2.05348E+01



 n o d a l   p r i n t   o u t   f o r   t i m e  s t e p   19802                              ( at time 9.8995093E+00 )

 nodal point  x-rot      y-rot       z-rot       x-rot vel   y-rot vel   z-rot vel   x-rot acc   y-rot acc   z-rot acc
    22626  1.25058E-02 2.30220E-02 9.41337E-04 9.60601E-03 8.70712E-03 4.51074E-04 3.72978E-03 1.30014E-03-1.13076E-04



 n o d a l   p r i n t   o u t   f o r   t i m e  s t e p   20003                              ( at time 9.9999992E+00 )

 nodal point  x-disp     y-disp      z-disp      x-vel       y-vel       z-vel      x-accl      y-accl      z-accl      x-coor      y-coor      z-coor
[...]
    22626  2.01946E-01 1.32257E-01-2.39059E-02 1.75843E-02 7.15439E-03-4.32055E-03 1.46399E-04-3.81337E-04 1.37643E-04



 n o d a l   p r i n t   o u t   f o r   t i m e  s t e p   45205                              ( at time 2.2599738E+01 )

 nodal point  x-disp     y-disp      z-disp      x-vel       y-vel       z-vel      x-accl      y-accl      z-accl      x-coor      y-coor      z-coor
    22626  4.25276E+00-2.16069E+00-2.21263E+01 2.38743E-01-2.45816E-01 5.39781E-01-9.00053E-03 4.75793E-03-1.95283E-03 5.22169E+01-2.41905E+01-1.47878E+01



 n o d a l   p r i n t   o u t   f o r   t i m e  s t e p   45205                              ( at time 2.2599738E+01 )

 nodal point  x-rot      y-rot       z-rot       x-rot vel   y-rot vel   z-rot vel   x-rot acc   y-rot acc   z-rot acc
    22626  2.03701E-01 1.32975E-01-2.43379E-02 1.75523E-02 7.17106E-03-4.30225E-03-3.19398E-04 1.66708E-04 1.82952E-04



 n o d a l   p r i n t   o u t   f o r   t i m e  s t e p   45405                              ( at time 2.2699728E+01 )

 nodal point  x-disp     y-disp      z-disp      x-vel       y-vel       z-vel      x-accl      y-accl      z-accl      x-coor      y-coor      z-coor
    22626  4.27671E+00-2.18510E+00-2.20722E+01 2.39328E-01-2.43470E-01 5.42213E-01 5.85591E-03 2.34661E-02 2.43291E-02 5.22409E+01-2.42149E+01-1.47337E+01



 n o d a l   p r i n t   o u t   f o r   t i m e  s t e p   45405                              ( at time 2.2699728E+01 )

 nodal point  x-rot      y-rot       z-rot       x-rot vel   y-rot vel   z-rot vel   x-rot acc   y-rot acc   z-rot acc
    22626  2.05456E-01 1.33692E-01-2.47690E-02 1.75268E-02 7.17036E-03-4.29570E-03-2.55155E-04-7.02295E-06 6.55631E-05



 n o d a l   p r i n t   o u t   f o r   t i m e  s t e p   45605                              ( at time 2.2799718E+01 )

 nodal point  x-disp     y-disp      z-disp      x-vel       y-vel       z-vel      x-accl      y-accl      z-accl      x-coor      y-coor      z-coor
    22626  4.30067E+00-2.20940E+00-2.20180E+01 2.39382E-01-2.42283E-01 5.43924E-01 5.31424E-04 1.18699E-02 1.71093E-02 5.22648E+01-2.42392E+01-1.46795E+01



 n o d a l   p r i n t   o u t   f o r   t i m e  s t e p   45605                              ( at time 2.2799718E+01 )

 nodal point  x-rot      y-rot       z-rot       x-rot vel   y-rot vel   z-rot vel   x-rot acc   y-rot acc   z-rot acc
    22626  2.07209E-01 1.34408E-01-2.51988E-02 1.75242E-02 7.17125E-03-4.28363E-03-2.62843E-05 8.91357E-06 1.20641E-04



 n o d a l   p r i n t   o u t   f o r   t i m e  s t e p   45805                              ( at time 2.2899708E+01 )

 nodal point  x-disp     y-disp      z-disp      x-vel       y-vel       z-vel      x-accl      y-accl      z-accl      x-coor      y-coor      z-coor
    22626  4.32466E+00-2.23356E+00-2.19637E+01 2.39877E-01-2.40893E-01 5.43240E-01 4.95608E-03 1.39010E-02-6.84575E-03 5.22888E+01-2.42633E+01-1.46252E+01



 n o d a l   p r i n t   o u t   f o r   t i m e  s t e p   45805                              ( at time 2.2899708E+01 )

 nodal point  x-rot      y-rot       z-rot       x-rot vel   y-rot vel   z-rot vel   x-rot acc   y-rot acc   z-rot acc
    22626  2.08960E-01 1.35124E-01-2.56280E-02 1.75090E-02 7.16644E-03-4.29289E-03-1.52307E-04-4.81174E-05-9.26116E-05



 n o d a l   p r i n t   o u t   f o r   t i m e  s t e p   46005                              ( at time 2.2999698E+01 )

 nodal point  x-disp     y-disp      z-disp      x-vel       y-vel       z-vel      x-accl      y-accl      z-accl      x-coor      y-coor      z-coor
    22626  4.34872E+00-2.25762E+00-2.19092E+01 2.41556E-01-2.40249E-01 5.44135E-01 1.67907E-02 6.44132E-03 8.95582E-03 5.23129E+01-2.42874E+01-1.45707E+01



 n o d a l   p r i n t   o u t   f o r   t i m e  s t e p   46005                              ( at time 2.2999698E+01 )

 nodal point  x-rot      y-rot       z-rot       x-rot vel   y-rot vel   z-rot vel   x-rot acc   y-rot acc   z-rot acc
    22626  2.10710E-01 1.35840E-01-2.60562E-02 1.74864E-02 7.14765E-03-4.28081E-03-2.25922E-04-1.87921E-04 1.20832E-04



 n o d a l   p r i n t   o u t   f o r   t i m e  s t e p   46205                              ( at time 2.3099688E+01 )

 nodal point  x-disp     y-disp      z-disp      x-vel       y-vel       z-vel      x-accl      y-accl      z-accl      x-coor      y-coor      z-coor
    22626  4.37285E+00-2.28158E+00-2.18547E+01 2.41806E-01-2.38763E-01 5.46789E-01 2.50486E-03 1.48635E-02 2.65401E-02 5.23370E+01-2.43114E+01-1.45162E+01



 n o d a l   p r i n t   o u t   f o r   t i m e  s t e p   46205                              ( at time 2.3099688E+01 )

 nodal point  x-rot      y-rot       z-rot       x-rot vel   y-rot vel   z-rot vel   x-rot acc   y-rot acc   z-rot acc
    22626  2.12460E-01 1.36555E-01-2.64836E-02 1.74840E-02 7.16314E-03-4.27259E-03-2.42730E-05 1.54919E-04 8.22402E-05



 n o d a l   p r i n t   o u t   f o r   t i m e  s t e p   46405                              ( at time 2.3199678E+01 )

 nodal point  x-disp     y-disp      z-disp      x-vel       y-vel       z-vel      x-accl      y-accl      z-accl      x-coor      y-coor      z-coor
    22626  4.39708E+00-2.30544E+00-2.18000E+01 2.42369E-01-2.38422E-01 5.47064E-01 5.62123E-03 3.40523E-03 2.75339E-03 5.23613E+01-2.43352E+01-1.44615E+01



 n o d a l   p r i n t   o u t   f o r   t i m e  s t e p   46405                              ( at time 2.3199678E+01 )

 nodal point  x-rot      y-rot       z-rot       x-rot vel   y-rot vel   z-rot vel   x-rot acc   y-rot acc   z-rot acc
    22626  2.14207E-01 1.37269E-01-2.69104E-02 1.74577E-02 7.14335E-03-4.26312E-03-2.62750E-04-1.97920E-04 9.46916E-05



 n o d a l   p r i n t   o u t   f o r   t i m e  s t e p   46605                              ( at time 2.3299668E+01 )

 nodal point  x-disp     y-disp      z-disp      x-vel       y-vel       z-vel      x-accl      y-accl      z-accl      x-coor      y-coor      z-coor
    22626  4.42139E+00-2.32923E+00-2.17452E+01 2.43727E-01-2.37825E-01 5.47934E-01 1.35900E-02 5.97483E-03 8.70145E-03 5.23856E+01-2.43590E+01-1.44067E+01



 n o d a l   p r i n t   o u t   f o r   t i m e  s t e p   46605                              ( at time 2.3299668E+01 )

 nodal point  x-rot      y-rot       z-rot       x-rot vel   y-rot vel   z-rot vel   x-rot acc   y-rot acc   z-rot acc
    22626  2.15953E-01 1.37984E-01-2.73355E-02 1.74550E-02 7.14035E-03-4.25279E-03-2.69555E-05-2.99966E-05 1.03351E-04



 n o d a l   p r i n t   o u t   f o r   t i m e  s t e p   46805                              ( at time 2.3399658E+01 )

 nodal point  x-disp     y-disp      z-disp      x-vel       y-vel       z-vel      x-accl      y-accl      z-accl      x-coor      y-coor      z-coor
    22626  4.44577E+00-2.35296E+00-2.16902E+01 2.44966E-01-2.36590E-01 5.51027E-01 1.23909E-02 1.23473E-02 3.09317E-02 5.24100E+01-2.43828E+01-1.43517E+01



 n o d a l   p r i n t   o u t   f o r   t i m e  s t e p   46805                              ( at time 2.3399658E+01 )

 nodal point  x-rot      y-rot       z-rot       x-rot vel   y-rot vel   z-rot vel   x-rot acc   y-rot acc   z-rot acc
    22626  2.17696E-01 1.38698E-01-2.77601E-02 1.74369E-02 7.12934E-03-4.24606E-03-1.81289E-04-1.10037E-04 6.72570E-05



 n o d a l   p r i n t   o u t   f o r   t i m e  s t e p   47005                              ( at time 2.3499648E+01 )

 nodal point  x-disp     y-disp      z-disp      x-vel       y-vel       z-vel      x-accl      y-accl      z-accl      x-coor      y-coor      z-coor
    22626  4.47022E+00-2.37664E+00-2.16351E+01 2.44992E-01-2.36079E-01 5.52122E-01 2.58708E-04 5.11365E-03 1.09456E-02 5.24344E+01-2.44064E+01-1.42966E+01



 n o d a l   p r i n t   o u t   f o r   t i m e  s t e p   47005                              ( at time 2.3499648E+01 )

 nodal point  x-rot      y-rot       z-rot       x-rot vel   y-rot vel   z-rot vel   x-rot acc   y-rot acc   z-rot acc
    22626  2.19438E-01 1.39410E-01-2.81830E-02 1.74048E-02 7.12378E-03-4.22488E-03-3.20982E-04-5.56935E-05 2.11858E-04



 n o d a l   p r i n t   o u t   f o r   t i m e  s t e p   47205                              ( at time 2.3599638E+01 )

 nodal point  x-disp     y-disp      z-disp      x-vel       y-vel       z-vel      x-accl      y-accl      z-accl      x-coor      y-coor      z-coor
    22626  4.49479E+00-2.40024E+00-2.15798E+01 2.45356E-01-2.36240E-01 5.53370E-01 3.63956E-03-1.60548E-03 1.24874E-02 5.24590E+01-2.44300E+01-1.42413E+01



 n o d a l   p r i n t   o u t   f o r   t i m e  s t e p   47205                              ( at time 2.3599638E+01 )

 nodal point  x-rot      y-rot       z-rot       x-rot vel   y-rot vel   z-rot vel   x-rot acc   y-rot acc   z-rot acc
    22626  2.21177E-01 1.40122E-01-2.86049E-02 1.73827E-02 7.11160E-03-4.20964E-03-2.20711E-04-1.21761E-04 1.52381E-04



 n o d a l   p r i n t   o u t   f o r   t i m e  s t e p   47405                              ( at time 2.3699628E+01 )

 nodal point  x-disp     y-disp      z-disp      x-vel       y-vel       z-vel      x-accl      y-accl      z-accl      x-coor      y-coor      z-coor
    22626  4.51938E+00-2.42383E+00-2.15244E+01 2.46401E-01-2.35406E-01 5.55864E-01 1.04462E-02 8.33334E-03 2.49433E-02 5.24836E+01-2.44536E+01-1.41858E+01



 n o d a l   p r i n t   o u t   f o r   t i m e  s t e p   47405                              ( at time 2.3699628E+01 )

 nodal point  x-rot      y-rot       z-rot       x-rot vel   y-rot vel   z-rot vel   x-rot acc   y-rot acc   z-rot acc
    22626  2.22913E-01 1.40833E-01-2.90246E-02 1.73581E-02 7.08794E-03-4.18487E-03-2.46059E-04-2.36620E-04 2.47782E-04



 n o d a l   p r i n t   o u t   f o r   t i m e  s t e p   47605                              ( at time 2.3799618E+01 )

 nodal point  x-disp     y-disp      z-disp      x-vel       y-vel       z-vel      x-accl      y-accl      z-accl      x-coor      y-coor      z-coor
    22626  4.54401E+00-2.44737E+00-2.14688E+01 2.46745E-01-2.35381E-01 5.57960E-01 3.44195E-03 2.50665E-04 2.09635E-02 5.25082E+01-2.44772E+01-1.41302E+01



 n o d a l   p r i n t   o u t   f o r   t i m e  s t e p   47605                              ( at time 2.3799618E+01 )

 nodal point  x-rot      y-rot       z-rot       x-rot vel   y-rot vel   z-rot vel   x-rot acc   y-rot acc   z-rot acc
    22626  2.24646E-01 1.41543E-01-2.94427E-02 1.73168E-02 7.10203E-03-4.17297E-03-4.13050E-04 1.40953E-04 1.18957E-04



 n o d a l   p r i n t   o u t   f o r   t i m e  s t e p   47805                              ( at time 2.3899608E+01 )

 nodal point  x-disp     y-disp      z-disp      x-vel       y-vel       z-vel      x-accl      y-accl      z-accl      x-coor      y-coor      z-coor
    22626  4.56870E+00-2.47088E+00-2.14129E+01 2.46360E-01-2.35501E-01 5.58166E-01-3.84977E-03-1.20189E-03 2.05357E-03 5.25329E+01-2.45007E+01-1.40744E+01



 n o d a l   p r i n t   o u t   f o r   t i m e  s t e p   47805                              ( at time 2.3899608E+01 )

 nodal point  x-rot      y-rot       z-rot       x-rot vel   y-rot vel   z-rot vel   x-rot acc   y-rot acc   z-rot acc
    22626  2.26377E-01 1.42251E-01-2.98594E-02 1.72951E-02 7.06031E-03-4.14683E-03-2.17093E-04-4.17233E-04 2.61465E-04



 n o d a l   p r i n t   o u t   f o r   t i m e  s t e p   48005                              ( at time 2.3999598E+01 )

 nodal point  x-disp     y-disp      z-disp      x-vel       y-vel       z-vel      x-accl      y-accl      z-accl      x-coor      y-coor      z-coor
    22626  4.59341E+00-2.49437E+00-2.13570E+01 2.46606E-01-2.35004E-01 5.60103E-01 2.46030E-03 4.97918E-03 1.93766E-02 5.25576E+01-2.45242E+01-1.40185E+01



 n o d a l   p r i n t   o u t   f o r   t i m e  s t e p   48005                              ( at time 2.3999598E+01 )

 nodal point  x-rot      y-rot       z-rot       x-rot vel   y-rot vel   z-rot vel   x-rot acc   y-rot acc   z-rot acc
    22626  2.28105E-01 1.42957E-01-3.02740E-02 1.72600E-02 7.05559E-03-4.14166E-03-3.50477E-04-4.72140E-05 5.16615E-05



 n o d a l   p r i n t   o u t   f o r   t i m e  s t e p   48205                              ( at time 2.4099588E+01 )

 nodal point  x-disp     y-disp      z-disp      x-vel       y-vel       z-vel      x-accl      y-accl      z-accl      x-coor      y-coor      z-coor
    22626  4.61808E+00-2.51789E+00-2.13010E+01 2.47114E-01-2.34300E-01 5.60505E-01 5.08593E-03 7.03861E-03 4.02130E-03 5.25823E+01-2.45477E+01-1.39625E+01



 n o d a l   p r i n t   o u t   f o r   t i m e  s t e p   48205                              ( at time 2.4099588E+01 )

 nodal point  x-rot      y-rot       z-rot       x-rot vel   y-rot vel   z-rot vel   x-rot acc   y-rot acc   z-rot acc
    22626  2.29830E-01 1.43661E-01-3.06868E-02 1.72386E-02 7.02872E-03-4.12453E-03-2.14391E-04-2.68748E-04 1.71281E-04



 n o d a l   p r i n t   o u t   f o r   t i m e  s t e p   48405                              ( at time 2.4199578E+01 )

 nodal point  x-disp     y-disp      z-disp      x-vel       y-vel       z-vel      x-accl      y-accl      z-accl      x-coor      y-coor      z-coor
    22626  4.64276E+00-2.54138E+00-2.12448E+01 2.47007E-01-2.35301E-01 5.62072E-01-1.07509E-03-1.00138E-02 1.56700E-02 5.26069E+01-2.45712E+01-1.39063E+01



 n o d a l   p r i n t   o u t   f o r   t i m e  s t e p   48405                              ( at time 2.4199578E+01 )

 nodal point  x-rot      y-rot       z-rot       x-rot vel   y-rot vel   z-rot vel   x-rot acc   y-rot acc   z-rot acc
    22626  2.31552E-01 1.44363E-01-3.10980E-02 1.71981E-02 7.01261E-03-4.09855E-03-4.04742E-04-1.61127E-04 2.59882E-04



 n o d a l   p r i n t   o u t   f o r   t i m e  s t e p   48605                              ( at time 2.4299568E+01 )

 nodal point  x-disp     y-disp      z-disp      x-vel       y-vel       z-vel      x-accl      y-accl      z-accl      x-coor      y-coor      z-coor
    22626  4.66743E+00-2.56487E+00-2.11886E+01 2.46627E-01-2.34538E-01 5.63680E-01-3.80312E-03 7.63441E-03 1.60768E-02 5.26316E+01-2.45947E+01-1.38501E+01



 n o d a l   p r i n t   o u t   f o r   t i m e  s t e p   48605                              ( at time 2.4299568E+01 )

 nodal point  x-rot      y-rot       z-rot       x-rot vel   y-rot vel   z-rot vel   x-rot acc   y-rot acc   z-rot acc
    22626  2.33271E-01 1.45063E-01-3.15078E-02 1.71744E-02 6.99956E-03-4.08764E-03-2.37919E-04-1.30490E-04 1.09077E-04



 n o d a l   p r i n t   o u t   f o r   t i m e  s t e p   48805                              ( at time 2.4399558E+01 )

 nodal point  x-disp     y-disp      z-disp      x-vel       y-vel       z-vel      x-accl      y-accl      z-accl      x-coor      y-coor      z-coor
    22626  4.69205E+00-2.58835E+00-2.11323E+01 2.45999E-01-2.34967E-01 5.63290E-01-6.27843E-03-4.29521E-03-3.89731E-03 5.26562E+01-2.46181E+01-1.37938E+01



 n o d a l   p r i n t   o u t   f o r   t i m e  s t e p   48805                              ( at time 2.4399558E+01 )

 nodal point  x-rot      y-rot       z-rot       x-rot vel   y-rot vel   z-rot vel   x-rot acc   y-rot acc   z-rot acc
    22626  2.34987E-01 1.45760E-01-3.19161E-02 1.71482E-02 6.95984E-03-4.07696E-03-2.61688E-04-3.97255E-04 1.06819E-04



 n o d a l   p r i n t   o u t   f o r   t i m e  s t e p   49006                              ( at time 2.4500048E+01 )

 nodal point  x-disp     y-disp      z-disp      x-vel       y-vel       z-vel      x-accl      y-accl      z-accl      x-coor      y-coor      z-coor
    22626  4.71679E+00-2.61195E+00-2.10756E+01 2.45914E-01-2.35188E-01 5.63733E-01-8.42567E-04-2.19746E-03 4.41421E-03 5.26810E+01-2.46417E+01-1.37371E+01



 n o d a l   p r i n t   o u t   f o r   t i m e  s t e p   49006                              ( at time 2.4500048E+01 )

 nodal point  x-rot      y-rot       z-rot       x-rot vel   y-rot vel   z-rot vel   x-rot acc   y-rot acc   z-rot acc
    22626  2.36707E-01 1.46459E-01-3.23252E-02 1.71136E-02 6.93702E-03-4.06437E-03-3.43803E-04-2.27102E-04 1.25316E-04



 n o d a l   p r i n t   o u t   f o r   t i m e  s t e p   49206                              ( at time 2.4600038E+01 )

 nodal point  x-disp     y-disp      z-disp      x-vel       y-vel       z-vel      x-accl      y-accl      z-accl      x-coor      y-coor      z-coor
    22626  4.74137E+00-2.63543E+00-2.10191E+01 2.45696E-01-2.34572E-01 5.65528E-01-2.18143E-03 6.16205E-03 1.79516E-02 5.27056E+01-2.46652E+01-1.36806E+01



 n o d a l   p r i n t   o u t   f o r   t i m e  s t e p   49206                              ( at time 2.4600038E+01 )

 nodal point  x-rot      y-rot       z-rot       x-rot vel   y-rot vel   z-rot vel   x-rot acc   y-rot acc   z-rot acc
    22626  2.38416E-01 1.47152E-01-3.27309E-02 1.70801E-02 6.91187E-03-4.06036E-03-3.35288E-04-2.51550E-04 4.00738E-05



 n o d a l   p r i n t   o u t   f o r   t i m e  s t e p   49406                              ( at time 2.4700028E+01 )

 nodal point  x-disp     y-disp      z-disp      x-vel       y-vel       z-vel      x-accl      y-accl      z-accl      x-coor      y-coor      z-coor
    22626  4.76589E+00-2.65891E+00-2.09626E+01 2.45210E-01-2.34653E-01 5.65461E-01-4.86577E-03-8.14588E-04-6.70030E-04 5.27301E+01-2.46887E+01-1.36241E+01



 n o d a l   p r i n t   o u t   f o r   t i m e  s t e p   49406                              ( at time 2.4700028E+01 )

 nodal point  x-rot      y-rot       z-rot       x-rot vel   y-rot vel   z-rot vel   x-rot acc   y-rot acc   z-rot acc
    22626  2.40122E-01 1.47842E-01-3.31365E-02 1.70427E-02 6.89100E-03-4.06230E-03-3.73930E-04-2.08691E-04-1.94249E-05



 n o d a l   p r i n t   o u t   f o r   t i m e  s t e p   49606                              ( at time 2.4800018E+01 )

 nodal point  x-disp     y-disp      z-disp      x-vel       y-vel       z-vel      x-accl      y-accl      z-accl      x-coor      y-coor      z-coor
    22626  4.79038E+00-2.68237E+00-2.09061E+01 2.44548E-01-2.34526E-01 5.64994E-01-6.61851E-03 1.26910E-03-4.67939E-03 5.27546E+01-2.47122E+01-1.35676E+01



 n o d a l   p r i n t   o u t   f o r   t i m e  s t e p   49606                              ( at time 2.4800018E+01 )

 nodal point  x-rot      y-rot       z-rot       x-rot vel   y-rot vel   z-rot vel   x-rot acc   y-rot acc   z-rot acc
    22626  2.41825E-01 1.48530E-01-3.35414E-02 1.70080E-02 6.85646E-03-4.04521E-03-3.47341E-04-3.45389E-04 1.70937E-04



 n o d a l   p r i n t   o u t   f o r   t i m e  s t e p   49806                              ( at time 2.4900008E+01 )

 nodal point  x-disp     y-disp      z-disp      x-vel       y-vel       z-vel      x-accl      y-accl      z-accl      x-coor      y-coor      z-coor
    22626  4.81483E+00-2.70582E+00-2.08495E+01 2.44073E-01-2.34242E-01 5.66064E-01-4.75042E-03 2.84584E-03 1.07032E-02 5.27790E+01-2.47356E+01-1.35110E+01



 n o d a l   p r i n t   o u t   f o r   t i m e  s t e p   49806                              ( at time 2.4900008E+01 )

 nodal point  x-rot      y-rot       z-rot       x-rot vel   y-rot vel   z-rot vel   x-rot acc   y-rot acc   z-rot acc
    22626  2.43524E-01 1.49215E-01-3.39460E-02 1.69790E-02 6.85634E-03-4.05024E-03-2.89785E-04-1.23880E-06-5.03063E-05



 n o d a l   p r i n t   o u t   f o r   t i m e  s t e p   50006                              ( at time 2.4999998E+01 )

 nodal point  x-disp     y-disp      z-disp      x-vel       y-vel       z-vel      x-accl      y-accl      z-accl      x-coor      y-coor      z-coor
    22626  4.83923E+00-2.72921E+00-2.07929E+01 2.44165E-01-2.33693E-01 5.65631E-01 9.18294E-04 5.48487E-03-4.33008E-03 5.28034E+01-2.47590E+01-1.34544E+01



 n o d a l   p r i n t   o u t   f o r   t i m e  s t e p   50006                              ( at time 2.4999998E+01 )

 nodal point  x-rot      y-rot       z-rot       x-rot vel   y-rot vel   z-rot vel   x-rot acc   y-rot acc   z-rot acc
    22626  2.45221E-01 1.49899E-01-3.43511E-02 1.69562E-02 6.83057E-03-4.05368E-03-2.28065E-04-2.57688E-04-3.43643E-05
