 LSTC 50th% Full_FE H-III Dummy (Beta Version, February 17, 2019)        
                    ls-dyna smp s R16 R16.0_619_d222963 date 03/18/2025

{BEGIN LEGEND}
 Entity #        Title
    22626                                                                                     
{END LEGEND}




 n o d a l   p r i n t   o u t   f o r   t i m e  s t e p       1                              ( at time 0.0000000E+00 )

 nodal point  x-disp     y-disp      z-disp      x-vel       y-vel       z-vel      x-accl      y-accl      z-accl      x-coor      y-coor      z-coor
    22626  0.00000E+00 0.00000E+00 0.00000E+00 0.00000E+00 0.00000E+00 0.00000E+00 0.00000E+00 0.00000E+00 0.00000E+00 4.65938E+00-2.81908E+01-4.49817E+01



 n o d a l   p r i n t   o u t   f o r   t i m e  s t e p       1                              ( at time 0.0000000E+00 )

 nodal point  x-rot      y-rot       z-rot       x-rot vel   y-rot vel   z-rot vel   x-rot acc   y-rot acc   z-rot acc
    22626  0.00000E+00 0.00000E+00 0.00000E+00 0.00000E+00 0.00000E+00 0.00000E+00 0.00000E+00 0.00000E+00 0.00000E+00



 n o d a l   p r i n t   o u t   f o r   t i m e  s t e p     201                              ( at time 9.9989993E-02 )

 nodal point  x-disp     y-disp      z-disp      x-vel       y-vel       z-vel      x-accl      y-accl      z-accl      x-coor      y-coor      z-coor
    22626  2.73585E-07 1.73664E-06-5.34276E-05 4.19765E-05 2.55585E-04-1.46815E-03 4.19807E-04 2.55610E-03-1.46830E-02 4.65938E+00-2.81908E+01-4.49818E+01



 n o d a l   p r i n t   o u t   f o r   t i m e  s t e p     201                              ( at time 9.9989993E-02 )

 nodal point  x-rot      y-rot       z-rot       x-rot vel   y-rot vel   z-rot vel   x-rot acc   y-rot acc   z-rot acc
    22626 -5.98899E-08-8.38532E-09-5.45973E-09-5.86836E-06-9.70030E-07-9.27186E-07-5.86894E-05-9.70127E-06-9.27278E-06



 n o d a l   p r i n t   o u t   f o r   t i m e  s t e p     401                              ( at time 1.9997999E-01 )

 nodal point  x-disp     y-disp      z-disp      x-vel       y-vel       z-vel      x-accl      y-accl      z-accl      x-coor      y-coor      z-coor
    22626  1.73050E-05 3.61738E-04-6.67574E-04 3.05669E-05 7.81059E-03-1.21538E-02-1.14108E-04 7.55577E-02-1.06867E-01 4.65939E+00-2.81905E+01-4.49824E+01



 n o d a l   p r i n t   o u t   f o r   t i m e  s t e p     401                              ( at time 1.9997999E-01 )

 nodal point  x-rot      y-rot       z-rot       x-rot vel   y-rot vel   z-rot vel   x-rot acc   y-rot acc   z-rot acc
    22626 -2.81956E-06-3.37131E-07-3.34534E-07-3.94197E-05-1.77571E-06-2.30196E-06-3.35547E-04-8.05762E-06-1.37491E-05



 n o d a l   p r i n t   o u t   f o r   t i m e  s t e p     601                              ( at time 2.9996998E-01 )

 nodal point  x-disp     y-disp      z-disp      x-vel       y-vel       z-vel      x-accl      y-accl      z-accl      x-coor      y-coor      z-coor
    22626  2.73668E-05 1.23936E-03-2.33797E-03 4.22150E-04 8.41810E-03-1.92300E-02 3.91622E-03 6.07565E-03-7.07693E-02 4.65940E+00-2.81896E+01-4.49841E+01



 n o d a l   p r i n t   o u t   f o r   t i m e  s t e p     601                              ( at time 2.9996998E-01 )

 nodal point  x-rot      y-rot       z-rot       x-rot vel   y-rot vel   z-rot vel   x-rot acc   y-rot acc   z-rot acc
    22626 -5.38610E-06-3.89989E-07-6.42933E-07-1.54104E-05-5.53671E-06-6.69307E-06 2.40118E-04-3.76138E-05-4.39155E-05



 n o d a l   p r i n t   o u t   f o r   t i m e  s t e p     801                              ( at time 3.9995997E-01 )

 nodal point  x-disp     y-disp      z-disp      x-vel       y-vel       z-vel      x-accl      y-accl      z-accl      x-coor      y-coor      z-coor
    22626  2.67532E-05 2.14981E-03-4.27492E-03-2.97249E-04 1.05067E-02-2.09408E-02-7.19471E-03 2.08885E-02-1.71099E-02 4.65940E+00-2.81887E+01-4.49860E+01



 n o d a l   p r i n t   o u t   f o r   t i m e  s t e p     801                              ( at time 3.9995997E-01 )

 nodal point  x-rot      y-rot       z-rot       x-rot vel   y-rot vel   z-rot vel   x-rot acc   y-rot acc   z-rot acc
    22626 -7.61095E-06-1.23666E-06-9.71676E-07-4.47739E-05-5.84113E-06-1.25979E-06-2.93664E-04-3.04452E-06 5.43383E-05



 n o d a l   p r i n t   o u t   f o r   t i m e  s t e p    1001                              ( at time 4.9994997E-01 )

 nodal point  x-disp     y-disp      z-disp      x-vel       y-vel       z-vel      x-accl      y-accl      z-accl      x-coor      y-coor      z-coor
    22626  6.48360E-06 3.39428E-03-6.71402E-03-2.20777E-04 1.38185E-02-2.83732E-02 7.64806E-04 3.31206E-02-7.43314E-02 4.65938E+00-2.81874E+01-4.49884E+01



 n o d a l   p r i n t   o u t   f o r   t i m e  s t e p    1001                              ( at time 4.9994997E-01 )

 nodal point  x-rot      y-rot       z-rot       x-rot vel   y-rot vel   z-rot vel   x-rot acc   y-rot acc   z-rot acc
    22626 -1.34900E-05-1.10218E-06-8.95259E-07-8.30288E-05 3.70008E-06 4.57909E-06-3.82588E-04 9.54217E-05 5.83946E-05



 n o d a l   p r i n t   o u t   f o r   t i m e  s t e p    1201                              ( at time 5.9993996E-01 )

 nodal point  x-disp     y-disp      z-disp      x-vel       y-vel       z-vel      x-accl      y-accl      z-accl      x-coor      y-coor      z-coor
    22626  4.94139E-06 4.92378E-03-9.64371E-03 8.16536E-05 1.60750E-02-3.05242E-02 3.02460E-03 2.25680E-02-2.15120E-02 4.65938E+00-2.81859E+01-4.49914E+01



 n o d a l   p r i n t   o u t   f o r   t i m e  s t e p    1201                              ( at time 5.9993996E-01 )

 nodal point  x-rot      y-rot       z-rot       x-rot vel   y-rot vel   z-rot vel   x-rot acc   y-rot acc   z-rot acc
    22626 -2.00805E-05-7.69197E-07-8.53395E-07-5.65493E-05 4.51945E-06-1.43328E-06 2.64822E-04 8.19453E-06-6.01297E-05



 n o d a l   p r i n t   o u t   f o r   t i m e  s t e p    1401                              ( at time 6.9992995E-01 )

 nodal point  x-disp     y-disp      z-disp      x-vel       y-vel       z-vel      x-accl      y-accl      z-accl      x-coor      y-coor      z-coor
    22626 -4.04181E-05 6.68943E-03-1.30515E-02-4.36049E-04 1.88800E-02-3.84402E-02-5.17754E-03 2.80520E-02-7.91678E-02 4.65933E+00-2.81841E+01-4.49948E+01



 n o d a l   p r i n t   o u t   f o r   t i m e  s t e p    1401                              ( at time 6.9992995E-01 )

 nodal point  x-rot      y-rot       z-rot       x-rot vel   y-rot vel   z-rot vel   x-rot acc   y-rot acc   z-rot acc
    22626 -2.56164E-05-6.81664E-07-4.66208E-07-6.55819E-05 1.64640E-06 4.33487E-06-9.03356E-05-2.87334E-05 5.76873E-05



 n o d a l   p r i n t   o u t   f o r   t i m e  s t e p    1601                              ( at time 7.9991994E-01 )

 nodal point  x-disp     y-disp      z-disp      x-vel       y-vel       z-vel      x-accl      y-accl      z-accl      x-coor      y-coor      z-coor
    22626 -6.42544E-05 8.73465E-03-1.72722E-02-4.31047E-04 2.10689E-02-4.41501E-02 5.00182E-05 2.18916E-02-5.71051E-02 4.65931E+00-2.81821E+01-4.49990E+01



 n o d a l   p r i n t   o u t   f o r   t i m e  s t e p    1601                              ( at time 7.9991994E-01 )

 nodal point  x-rot      y-rot       z-rot       x-rot vel   y-rot vel   z-rot vel   x-rot acc   y-rot acc   z-rot acc
    22626 -3.32900E-05-5.29729E-07-2.55407E-07-8.65459E-05-3.25311E-06 2.75062E-06-2.09661E-04-4.90000E-05-1.58441E-05



 n o d a l   p r i n t   o u t   f o r   t i m e  s t e p    1801                              ( at time 8.9990994E-01 )

 nodal point  x-disp     y-disp      z-disp      x-vel       y-vel       z-vel      x-accl      y-accl      z-accl      x-coor      y-coor      z-coor
    22626 -9.34612E-05 1.08788E-02-2.16844E-02-1.85400E-04 2.27163E-02-4.43588E-02 2.45672E-03 1.64759E-02-2.08682E-03 4.65928E+00-2.81800E+01-4.50034E+01



 n o d a l   p r i n t   o u t   f o r   t i m e  s t e p    1801                              ( at time 8.9990994E-01 )

 nodal point  x-rot      y-rot       z-rot       x-rot vel   y-rot vel   z-rot vel   x-rot acc   y-rot acc   z-rot acc
    22626 -4.10735E-05-3.95954E-07-9.19232E-08-7.54581E-05 4.41987E-06 1.04799E-06 1.10889E-04 7.67375E-05-1.70281E-05



 n o d a l   p r i n t   o u t   f o r   t i m e  s t e p    2001                              ( at time 9.9989993E-01 )

 nodal point  x-disp     y-disp      z-disp      x-vel       y-vel       z-vel      x-accl      y-accl      z-accl      x-coor      y-coor      z-coor
    22626 -1.17782E-04 1.32712E-02-2.62983E-02 6.36981E-05 2.48997E-02-4.87290E-02 2.49124E-03 2.18356E-02-4.37068E-02 4.65926E+00-2.81776E+01-4.50080E+01



 n o d a l   p r i n t   o u t   f o r   t i m e  s t e p    2001                              ( at time 9.9989993E-01 )

 nodal point  x-rot      y-rot       z-rot       x-rot vel   y-rot vel   z-rot vel   x-rot acc   y-rot acc   z-rot acc
    22626 -4.91292E-05-1.13453E-07 1.21969E-07-9.37196E-05 3.60635E-06-1.94968E-06-1.82633E-04-8.13602E-06-2.99797E-05



 n o d a l   p r i n t   o u t   f o r   t i m e  s t e p    2201                              ( at time 1.0998899E+00 )

 nodal point  x-disp     y-disp      z-disp      x-vel       y-vel       z-vel      x-accl      y-accl      z-accl      x-coor      y-coor      z-coor
    22626 -1.17562E-04 1.58428E-02-3.14782E-02-2.58752E-04 2.70234E-02-5.44839E-02-3.22483E-03 2.12393E-02-5.75544E-02 4.65926E+00-2.81750E+01-4.50132E+01



 n o d a l   p r i n t   o u t   f o r   t i m e  s t e p    2201                              ( at time 1.0998899E+00 )

 nodal point  x-rot      y-rot       z-rot       x-rot vel   y-rot vel   z-rot vel   x-rot acc   y-rot acc   z-rot acc
    22626 -5.87369E-05 1.50015E-08-4.83550E-08-8.78299E-05-5.14795E-06-6.90140E-08 5.89027E-05-8.75519E-05 1.88085E-05



 n o d a l   p r i n t   o u t   f o r   t i m e  s t e p    2401                              ( at time 1.1998799E+00 )

 nodal point  x-disp     y-disp      z-disp      x-vel       y-vel       z-vel      x-accl      y-accl      z-accl      x-coor      y-coor      z-coor
    22626 -1.36970E-04 1.85910E-02-3.71770E-02-8.56346E-05 2.81884E-02-5.92962E-02 1.73135E-03 1.16516E-02-4.81277E-02 4.65924E+00-2.81722E+01-4.50189E+01



 n o d a l   p r i n t   o u t   f o r   t i m e  s t e p    2401                              ( at time 1.1998799E+00 )

 nodal point  x-rot      y-rot       z-rot       x-rot vel   y-rot vel   z-rot vel   x-rot acc   y-rot acc   z-rot acc
    22626 -6.70722E-05-3.24362E-07-6.59263E-08-8.47719E-05-4.58155E-06-7.16506E-07 3.05827E-05 5.66463E-06-6.47557E-06



 n o d a l   p r i n t   o u t   f o r   t i m e  s t e p    2601                              ( at time 1.2998699E+00 )

 nodal point  x-disp     y-disp      z-disp      x-vel       y-vel       z-vel      x-accl      y-accl      z-accl      x-coor      y-coor      z-coor
    22626 -1.59971E-04 2.15322E-02-4.32350E-02-1.21897E-04 3.03605E-02-6.17269E-02-3.62660E-04 2.17230E-02-2.43099E-02 4.65921E+00-2.81693E+01-4.50250E+01



 n o d a l   p r i n t   o u t   f o r   t i m e  s t e p    2601                              ( at time 1.2998699E+00 )

 nodal point  x-rot      y-rot       z-rot       x-rot vel   y-rot vel   z-rot vel   x-rot acc   y-rot acc   z-rot acc
    22626 -7.61730E-05-5.59762E-07-1.01927E-07-1.07680E-04 3.90406E-06 6.87798E-07-2.29102E-04 8.48646E-05 1.40444E-05



 n o d a l   p r i n t   o u t   f o r   t i m e  s t e p    2801                              ( at time 1.3998599E+00 )

 nodal point  x-disp     y-disp      z-disp      x-vel       y-vel       z-vel      x-accl      y-accl      z-accl      x-coor      y-coor      z-coor
    22626 -1.75410E-04 2.46584E-02-4.95021E-02-2.96913E-04 3.20116E-02-6.43677E-02-1.75033E-03 1.65122E-02-2.64107E-02 4.65920E+00-2.81662E+01-4.50312E+01



 n o d a l   p r i n t   o u t   f o r   t i m e  s t e p    2801                              ( at time 1.3998599E+00 )

 nodal point  x-rot      y-rot       z-rot       x-rot vel   y-rot vel   z-rot vel   x-rot acc   y-rot acc   z-rot acc
    22626 -8.68866E-05-1.00271E-08 6.09496E-08-1.07122E-04 3.92420E-06 3.78088E-06 5.57525E-06 2.01337E-07 3.09339E-05



 n o d a l   p r i n t   o u t   f o r   t i m e  s t e p    3001                              ( at time 1.4998499E+00 )

 nodal point  x-disp     y-disp      z-disp      x-vel       y-vel       z-vel      x-accl      y-accl      z-accl      x-coor      y-coor      z-coor
    22626 -2.08625E-04 2.79977E-02-5.62652E-02-3.76304E-04 3.45615E-02-7.11996E-02-7.93993E-04 2.55020E-02-6.83258E-02 4.65917E+00-2.81628E+01-4.50380E+01



 n o d a l   p r i n t   o u t   f o r   t i m e  s t e p    3001                              ( at time 1.4998499E+00 )

 nodal point  x-rot      y-rot       z-rot       x-rot vel   y-rot vel   z-rot vel   x-rot acc   y-rot acc   z-rot acc
    22626 -9.68866E-05 3.35764E-07 3.40657E-07-9.33540E-05 2.55297E-06 8.96145E-07 1.37698E-04-1.37136E-05-2.88502E-05



 n o d a l   p r i n t   o u t   f o r   t i m e  s t e p    3201                              ( at time 1.5998399E+00 )

 nodal point  x-disp     y-disp      z-disp      x-vel       y-vel       z-vel      x-accl      y-accl      z-accl      x-coor      y-coor      z-coor
    22626 -2.63993E-04 3.16227E-02-6.36893E-02-5.08440E-04 3.77304E-02-7.65822E-02-1.32149E-03 3.16922E-02-5.38309E-02 4.65911E+00-2.81592E+01-4.50454E+01



 n o d a l   p r i n t   o u t   f o r   t i m e  s t e p    3201                              ( at time 1.5998399E+00 )

 nodal point  x-rot      y-rot       z-rot       x-rot vel   y-rot vel   z-rot vel   x-rot acc   y-rot acc   z-rot acc
    22626 -1.05899E-04 5.53242E-07 8.11686E-07-9.53088E-05-3.07909E-08 5.88140E-06-1.95507E-05-2.58402E-05 4.98575E-05



 n o d a l   p r i n t   o u t   f o r   t i m e  s t e p    3401                              ( at time 1.6998299E+00 )

 nodal point  x-disp     y-disp      z-disp      x-vel       y-vel       z-vel      x-accl      y-accl      z-accl      x-coor      y-coor      z-coor
    22626 -3.14413E-04 3.54817E-02-7.15047E-02-6.40989E-04 3.91275E-02-7.91828E-02-1.32563E-03 1.39721E-02-2.60087E-02 4.65906E+00-2.81553E+01-4.50532E+01



 n o d a l   p r i n t   o u t   f o r   t i m e  s t e p    3401                              ( at time 1.6998299E+00 )

 nodal point  x-rot      y-rot       z-rot       x-rot vel   y-rot vel   z-rot vel   x-rot acc   y-rot acc   z-rot acc
    22626 -1.15906E-04 9.35080E-07 1.23889E-06-1.00174E-04 5.93050E-06 5.67095E-06-4.86540E-05 5.96188E-05-2.10474E-06



 n o d a l   p r i n t   o u t   f o r   t i m e  s t e p    3601                              ( at time 1.7998199E+00 )

 nodal point  x-disp     y-disp      z-disp      x-vel       y-vel       z-vel      x-accl      y-accl      z-accl      x-coor      y-coor      z-coor
    22626 -3.69218E-04 3.94095E-02-7.95287E-02-4.00342E-04 3.99125E-02-8.11963E-02 2.40672E-03 7.85080E-03-2.01372E-02 4.65901E+00-2.81514E+01-4.50612E+01



 n o d a l   p r i n t   o u t   f o r   t i m e  s t e p    3601                              ( at time 1.7998199E+00 )

 nodal point  x-rot      y-rot       z-rot       x-rot vel   y-rot vel   z-rot vel   x-rot acc   y-rot acc   z-rot acc
    22626 -1.26043E-04 1.56591E-06 1.56515E-06-9.55166E-05 6.79615E-06 7.82212E-07 4.65756E-05 8.65742E-06-4.88923E-05



 n o d a l   p r i n t   o u t   f o r   t i m e  s t e p    3801                              ( at time 1.8998099E+00 )

 nodal point  x-disp     y-disp      z-disp      x-vel       y-vel       z-vel      x-accl      y-accl      z-accl      x-coor      y-coor      z-coor
    22626 -4.18630E-04 4.35428E-02-8.78258E-02-4.47519E-04 4.25335E-02-8.49825E-02-4.71816E-04 2.62125E-02-3.78655E-02 4.65896E+00-2.81473E+01-4.50695E+01



 n o d a l   p r i n t   o u t   f o r   t i m e  s t e p    3801                              ( at time 1.8998099E+00 )

 nodal point  x-rot      y-rot       z-rot       x-rot vel   y-rot vel   z-rot vel   x-rot acc   y-rot acc   z-rot acc
    22626 -1.35151E-04 2.24118E-06 1.91012E-06-9.05761E-05 2.17202E-06 1.49487E-06 4.94099E-05-4.62460E-05 7.12728E-06



 n o d a l   p r i n t   o u t   f o r   t i m e  s t e p    4001                              ( at time 1.9997999E+00 )

 nodal point  x-disp     y-disp      z-disp      x-vel       y-vel       z-vel      x-accl      y-accl      z-accl      x-coor      y-coor      z-coor
    22626 -4.66581E-04 4.78363E-02-9.65270E-02-4.38506E-04 4.35294E-02-8.89602E-02 9.01395E-05 9.96041E-03-3.97814E-02 4.65891E+00-2.81430E+01-4.50782E+01



 n o d a l   p r i n t   o u t   f o r   t i m e  s t e p    4001                              ( at time 1.9997999E+00 )

 nodal point  x-rot      y-rot       z-rot       x-rot vel   y-rot vel   z-rot vel   x-rot acc   y-rot acc   z-rot acc
    22626 -1.43750E-04 2.36106E-06 2.06441E-06-8.84559E-05-9.54900E-07 1.74189E-06 2.12050E-05-3.12723E-05 2.47041E-06



 n o d a l   p r i n t   o u t   f o r   t i m e  s t e p    4201                              ( at time 2.0997899E+00 )

 nodal point  x-disp     y-disp      z-disp      x-vel       y-vel       z-vel      x-accl      y-accl      z-accl      x-coor      y-coor      z-coor
    22626 -5.18975E-04 5.22170E-02-1.05515E-01-5.26004E-04 4.42467E-02-9.08960E-02-8.75071E-04 7.17298E-03-1.93600E-02 4.65886E+00-2.81386E+01-4.50872E+01



 n o d a l   p r i n t   o u t   f o r   t i m e  s t e p    4201                              ( at time 2.0997899E+00 )

 nodal point  x-rot      y-rot       z-rot       x-rot vel   y-rot vel   z-rot vel   x-rot acc   y-rot acc   z-rot acc
    22626 -1.51703E-04 2.45480E-06 2.12949E-06-7.48810E-05 4.60784E-06 4.20465E-06 1.35763E-04 5.56330E-05 2.46301E-05



 n o d a l   p r i n t   o u t   f o r   t i m e  s t e p    4401                              ( at time 2.1997798E+00 )

 nodal point  x-disp     y-disp      z-disp      x-vel       y-vel       z-vel      x-accl      y-accl      z-accl      x-coor      y-coor      z-coor
    22626 -5.76365E-04 5.66968E-02-1.14653E-01-4.97127E-04 4.50901E-02-9.19413E-02 2.88796E-04 8.43569E-03-1.04542E-02 4.65880E+00-2.81341E+01-4.50964E+01



 n o d a l   p r i n t   o u t   f o r   t i m e  s t e p    4401                              ( at time 2.1997798E+00 )

 nodal point  x-rot      y-rot       z-rot       x-rot vel   y-rot vel   z-rot vel   x-rot acc   y-rot acc   z-rot acc
    22626 -1.59161E-04 2.88999E-06 2.26800E-06-7.67304E-05 4.37139E-06 1.19294E-07-1.84962E-05-2.36479E-06-4.08577E-05



 n o d a l   p r i n t   o u t   f o r   t i m e  s t e p    4601                              ( at time 2.2997698E+00 )

 nodal point  x-disp     y-disp      z-disp      x-vel       y-vel       z-vel      x-accl      y-accl      z-accl      x-coor      y-coor      z-coor
    22626 -6.26972E-04 6.12403E-02-1.23918E-01-7.26563E-04 4.62412E-02-9.39868E-02-2.29458E-03 1.15118E-02-2.04563E-02 4.65875E+00-2.81296E+01-4.51056E+01



 n o d a l   p r i n t   o u t   f o r   t i m e  s t e p    4601                              ( at time 2.2997698E+00 )

 nodal point  x-rot      y-rot       z-rot       x-rot vel   y-rot vel   z-rot vel   x-rot acc   y-rot acc   z-rot acc
    22626 -1.66968E-04 3.52401E-06 2.50083E-06-7.06309E-05 6.44522E-06 2.30306E-06 6.10010E-05 2.07404E-05 2.18398E-05



 n o d a l   p r i n t   o u t   f o r   t i m e  s t e p    4801                              ( at time 2.3997598E+00 )

 nodal point  x-disp     y-disp      z-disp      x-vel       y-vel       z-vel      x-accl      y-accl      z-accl      x-coor      y-coor      z-coor
    22626 -6.97664E-04 6.59700E-02-1.33551E-01-8.17348E-04 4.80493E-02-9.85730E-02-9.07949E-04 1.80832E-02-4.58670E-02 4.65868E+00-2.81249E+01-4.51153E+01



 n o d a l   p r i n t   o u t   f o r   t i m e  s t e p    4801                              ( at time 2.3997598E+00 )

 nodal point  x-rot      y-rot       z-rot       x-rot vel   y-rot vel   z-rot vel   x-rot acc   y-rot acc   z-rot acc
    22626 -1.73342E-04 4.07116E-06 3.03351E-06-5.89428E-05 4.94601E-06 6.06046E-06 1.16893E-04-1.49936E-05 3.75778E-05



 n o d a l   p r i n t   o u t   f o r   t i m e  s t e p    5001                              ( at time 2.4997498E+00 )

 nodal point  x-disp     y-disp      z-disp      x-vel       y-vel       z-vel      x-accl      y-accl      z-accl      x-coor      y-coor      z-coor
    22626 -7.81605E-04 7.08618E-02-1.43565E-01-8.65058E-04 4.94208E-02-1.00960E-01-4.77145E-04 1.37161E-02-2.38743E-02 4.65859E+00-2.81200E+01-4.51253E+01



 n o d a l   p r i n t   o u t   f o r   t i m e  s t e p    5001                              ( at time 2.4997498E+00 )

 nodal point  x-rot      y-rot       z-rot       x-rot vel   y-rot vel   z-rot vel   x-rot acc   y-rot acc   z-rot acc
    22626 -1.78990E-04 4.73261E-06 3.59060E-06-5.32051E-05 7.79253E-06 6.66389E-06 5.73828E-05 2.84680E-05 6.03491E-06



 n o d a l   p r i n t   o u t   f o r   t i m e  s t e p    5201                              ( at time 2.5997398E+00 )

 nodal point  x-disp     y-disp      z-disp      x-vel       y-vel       z-vel      x-accl      y-accl      z-accl      x-coor      y-coor      z-coor
    22626 -8.70511E-04 7.58151E-02-1.53674E-01-9.00961E-04 4.95460E-02-1.01131E-01-3.59065E-04 1.25227E-03-1.70926E-03 4.65850E+00-2.81150E+01-4.51354E+01



 n o d a l   p r i n t   o u t   f o r   t i m e  s t e p    5201                              ( at time 2.5997398E+00 )

 nodal point  x-rot      y-rot       z-rot       x-rot vel   y-rot vel   z-rot vel   x-rot acc   y-rot acc   z-rot acc
    22626 -1.84076E-04 5.73269E-06 4.32355E-06-4.30303E-05 1.22027E-05 9.06690E-06 1.01758E-04 4.41058E-05 2.40324E-05



 n o d a l   p r i n t   o u t   f o r   t i m e  s t e p    5401                              ( at time 2.6997298E+00 )

 nodal point  x-disp     y-disp      z-disp      x-vel       y-vel       z-vel      x-accl      y-accl      z-accl      x-coor      y-coor      z-coor
    22626 -9.58749E-04 8.07755E-02-1.63792E-01-7.10267E-04 4.97935E-02-1.01387E-01 1.90713E-03 2.47503E-03-2.56258E-03 4.65842E+00-2.81101E+01-4.51455E+01



 n o d a l   p r i n t   o u t   f o r   t i m e  s t e p    5401                              ( at time 2.6997298E+00 )

 nodal point  x-rot      y-rot       z-rot       x-rot vel   y-rot vel   z-rot vel   x-rot acc   y-rot acc   z-rot acc
    22626 -1.88758E-04 6.91965E-06 5.23844E-06-4.93851E-05 1.24935E-05 7.82732E-06-6.35540E-05 2.90888E-06-1.23970E-05



 n o d a l   p r i n t   o u t   f o r   t i m e  s t e p    5601                              ( at time 2.7997198E+00 )

 nodal point  x-disp     y-disp      z-disp      x-vel       y-vel       z-vel      x-accl      y-accl      z-accl      x-coor      y-coor      z-coor
    22626 -1.04310E-03 8.58080E-02-1.73999E-01-8.18779E-04 5.08125E-02-1.03122E-01-1.08523E-03 1.01910E-02-1.73508E-02 4.65833E+00-2.81050E+01-4.51557E+01



 n o d a l   p r i n t   o u t   f o r   t i m e  s t e p    5601                              ( at time 2.7997198E+00 )

 nodal point  x-rot      y-rot       z-rot       x-rot vel   y-rot vel   z-rot vel   x-rot acc   y-rot acc   z-rot acc
    22626 -1.92880E-04 8.11748E-06 6.02475E-06-3.14340E-05 9.76771E-06 7.53569E-06 1.79528E-04-2.72608E-05-2.91654E-06



 n o d a l   p r i n t   o u t   f o r   t i m e  s t e p    5801                              ( at time 2.8997098E+00 )

 nodal point  x-disp     y-disp      z-disp      x-vel       y-vel       z-vel      x-accl      y-accl      z-accl      x-coor      y-coor      z-coor
    22626 -1.12597E-03 9.08870E-02-1.84413E-01-7.00580E-04 5.08725E-02-1.05122E-01 1.18211E-03 5.99944E-04-2.00025E-02 4.65825E+00-2.80999E+01-4.51661E+01



 n o d a l   p r i n t   o u t   f o r   t i m e  s t e p    5801                              ( at time 2.8997098E+00 )

 nodal point  x-rot      y-rot       z-rot       x-rot vel   y-rot vel   z-rot vel   x-rot acc   y-rot acc   z-rot acc
    22626 -1.95338E-04 8.96672E-06 6.72495E-06-2.36213E-05 8.55386E-06 7.79114E-06 7.81348E-05-1.21398E-05 2.55472E-06



 n o d a l   p r i n t   o u t   f o r   t i m e  s t e p    6001                              ( at time 2.9996998E+00 )

 nodal point  x-disp     y-disp      z-disp      x-vel       y-vel       z-vel      x-accl      y-accl      z-accl      x-coor      y-coor      z-coor
    22626 -1.20318E-03 9.59642E-02-1.94940E-01-7.73739E-04 5.05441E-02-1.05111E-01-7.31661E-04-3.28484E-03 1.09683E-04 4.65817E+00-2.80949E+01-4.51767E+01



 n o d a l   p r i n t   o u t   f o r   t i m e  s t e p    6001                              ( at time 2.9996998E+00 )

 nodal point  x-rot      y-rot       z-rot       x-rot vel   y-rot vel   z-rot vel   x-rot acc   y-rot acc   z-rot acc
    22626 -1.98398E-04 9.88783E-06 7.36152E-06-3.28899E-05 9.69992E-06 8.52602E-06-9.26945E-05 1.14618E-05 7.34949E-06



 n o d a l   p r i n t   o u t   f o r   t i m e  s t e p    6201                              ( at time 3.0996898E+00 )

 nodal point  x-disp     y-disp      z-disp      x-vel       y-vel       z-vel      x-accl      y-accl      z-accl      x-coor      y-coor      z-coor
    22626 -1.26532E-03 1.01031E-01-2.05429E-01-7.34517E-04 5.10333E-02-1.05150E-01 3.92266E-04 4.89281E-03-3.85830E-04 4.65811E+00-2.80898E+01-4.51871E+01



 n o d a l   p r i n t   o u t   f o r   t i m e  s t e p    6201                              ( at time 3.0996898E+00 )

 nodal point  x-rot      y-rot       z-rot       x-rot vel   y-rot vel   z-rot vel   x-rot acc   y-rot acc   z-rot acc
    22626 -2.01736E-04 1.07571E-05 8.03722E-06-3.31564E-05 8.45357E-06 1.05961E-05-2.66542E-06-1.24648E-05 2.07033E-05



 n o d a l   p r i n t   o u t   f o r   t i m e  s t e p    6401                              ( at time 3.1996798E+00 )

 nodal point  x-disp     y-disp      z-disp      x-vel       y-vel       z-vel      x-accl      y-accl      z-accl      x-coor      y-coor      z-coor
    22626 -1.33190E-03 1.06152E-01-2.16048E-01-6.52664E-04 5.15244E-02-1.07348E-01 8.18606E-04 4.91139E-03-2.19806E-02 4.65804E+00-2.80847E+01-4.51978E+01



 n o d a l   p r i n t   o u t   f o r   t i m e  s t e p    6401                              ( at time 3.1996798E+00 )

 nodal point  x-rot      y-rot       z-rot       x-rot vel   y-rot vel   z-rot vel   x-rot acc   y-rot acc   z-rot acc
    22626 -2.04880E-04 1.17835E-05 8.62354E-06-2.35488E-05 1.05331E-05 4.78134E-06 9.60854E-05 2.07977E-05-5.81537E-05



 n o d a l   p r i n t   o u t   f o r   t i m e  s t e p    6601                              ( at time 3.2996698E+00 )

 nodal point  x-disp     y-disp      z-disp      x-vel       y-vel       z-vel      x-accl      y-accl      z-accl      x-coor      y-coor      z-coor
    22626 -1.41123E-03 1.11346E-01-2.26922E-01-8.41793E-04 5.21694E-02-1.09738E-01-1.89148E-03 6.45047E-03-2.39013E-02 4.65796E+00-2.80795E+01-4.52086E+01



 n o d a l   p r i n t   o u t   f o r   t i m e  s t e p    6601                              ( at time 3.2996698E+00 )

 nodal point  x-rot      y-rot       z-rot       x-rot vel   y-rot vel   z-rot vel   x-rot acc   y-rot acc   z-rot acc
    22626 -2.07676E-04 1.27813E-05 9.32341E-06-2.65829E-05 9.73123E-06 7.25650E-06-3.03439E-05-8.01981E-06 2.47541E-05



 n o d a l   p r i n t   o u t   f o r   t i m e  s t e p    6801                              ( at time 3.3996598E+00 )

 nodal point  x-disp     y-disp      z-disp      x-vel       y-vel       z-vel      x-accl      y-accl      z-accl      x-coor      y-coor      z-coor
    22626 -1.50030E-03 1.16573E-01-2.37929E-01-9.80918E-04 5.21803E-02-1.10240E-01-1.39138E-03 1.09013E-04-5.02860E-03 4.65787E+00-2.80743E+01-4.52197E+01



 n o d a l   p r i n t   o u t   f o r   t i m e  s t e p    6801                              ( at time 3.3996598E+00 )

 nodal point  x-rot      y-rot       z-rot       x-rot vel   y-rot vel   z-rot vel   x-rot acc   y-rot acc   z-rot acc
    22626 -2.10434E-04 1.38309E-05 1.02134E-05-2.83879E-05 1.36804E-05 1.14442E-05-1.80524E-05 3.94959E-05 4.18813E-05



 n o d a l   p r i n t   o u t   f o r   t i m e  s t e p    7001                              ( at time 3.4996498E+00 )

 nodal point  x-disp     y-disp      z-disp      x-vel       y-vel       z-vel      x-accl      y-accl      z-accl      x-coor      y-coor      z-coor
    22626 -1.59327E-03 1.21737E-01-2.48897E-01-9.41103E-04 5.12572E-02-1.09255E-01 3.98193E-04-9.23105E-03 9.85335E-03 4.65778E+00-2.80691E+01-4.52306E+01



 n o d a l   p r i n t   o u t   f o r   t i m e  s t e p    7001                              ( at time 3.4996498E+00 )

 nodal point  x-rot      y-rot       z-rot       x-rot vel   y-rot vel   z-rot vel   x-rot acc   y-rot acc   z-rot acc
    22626 -2.13537E-04 1.51292E-05 1.11944E-05-3.13892E-05 1.40299E-05 9.47297E-06-3.00154E-05 3.49533E-06-1.97144E-05



 n o d a l   p r i n t   o u t   f o r   t i m e  s t e p    7201                              ( at time 3.5996397E+00 )

 nodal point  x-disp     y-disp      z-disp      x-vel       y-vel       z-vel      x-accl      y-accl      z-accl      x-coor      y-coor      z-coor
    22626 -1.68911E-03 1.26831E-01-2.59783E-01-9.00905E-04 5.03621E-02-1.08930E-01 4.02020E-04-8.95222E-03 3.24781E-03 4.65769E+00-2.80640E+01-4.52415E+01



 n o d a l   p r i n t   o u t   f o r   t i m e  s t e p    7201                              ( at time 3.5996397E+00 )

 nodal point  x-rot      y-rot       z-rot       x-rot vel   y-rot vel   z-rot vel   x-rot acc   y-rot acc   z-rot acc
    22626 -2.16589E-04 1.67532E-05 1.23123E-05-3.34674E-05 1.59913E-05 8.17884E-06-2.07843E-05 1.96161E-05-1.29426E-05



 n o d a l   p r i n t   o u t   f o r   t i m e  s t e p    7401                              ( at time 3.6996297E+00 )

 nodal point  x-disp     y-disp      z-disp      x-vel       y-vel       z-vel      x-accl      y-accl      z-accl      x-coor      y-coor      z-coor
    22626 -1.77855E-03 1.31841E-01-2.70698E-01-8.53362E-04 4.96801E-02-1.09459E-01 4.75481E-04-6.82112E-03-5.28686E-03 4.65760E+00-2.80590E+01-4.52524E+01



 n o d a l   p r i n t   o u t   f o r   t i m e  s t e p    7401                              ( at time 3.6996297E+00 )

 nodal point  x-rot      y-rot       z-rot       x-rot vel   y-rot vel   z-rot vel   x-rot acc   y-rot acc   z-rot acc
    22626 -2.19900E-04 1.81603E-05 1.31924E-05-2.92629E-05 1.19704E-05 9.07361E-06 4.20493E-05-4.02134E-05 8.94860E-06



 n o d a l   p r i n t   o u t   f o r   t i m e  s t e p    7601                              ( at time 3.7996197E+00 )

 nodal point  x-disp     y-disp      z-disp      x-vel       y-vel       z-vel      x-accl      y-accl      z-accl      x-coor      y-coor      z-coor
    22626 -1.86370E-03 1.36756E-01-2.81640E-01-7.60950E-04 4.85498E-02-1.09067E-01 9.24206E-04-1.13037E-02 3.92365E-03 4.65751E+00-2.80541E+01-4.52634E+01



 n o d a l   p r i n t   o u t   f o r   t i m e  s t e p    7601                              ( at time 3.7996197E+00 )

 nodal point  x-rot      y-rot       z-rot       x-rot vel   y-rot vel   z-rot vel   x-rot acc   y-rot acc   z-rot acc
    22626 -2.23032E-04 1.91975E-05 1.41530E-05-3.64100E-05 9.87500E-06 7.62905E-06-7.14781E-05-2.09561E-05-1.44470E-05



 n o d a l   p r i n t   o u t   f o r   t i m e  s t e p    7801                              ( at time 3.8996097E+00 )

 nodal point  x-disp     y-disp      z-disp      x-vel       y-vel       z-vel      x-accl      y-accl      z-accl      x-coor      y-coor      z-coor
    22626 -1.93524E-03 1.41522E-01-2.92461E-01-7.27405E-04 4.66787E-02-1.07328E-01 3.35486E-04-1.87135E-02 1.73923E-02 4.65744E+00-2.80493E+01-4.52742E+01



 n o d a l   p r i n t   o u t   f o r   t i m e  s t e p    7801                              ( at time 3.8996097E+00 )

 nodal point  x-rot      y-rot       z-rot       x-rot vel   y-rot vel   z-rot vel   x-rot acc   y-rot acc   z-rot acc
    22626 -2.27007E-04 2.01682E-05 1.49111E-05-4.59774E-05 1.06089E-05 7.92982E-06-9.56838E-05 7.33951E-06 3.00798E-06



 n o d a l   p r i n t   o u t   f o r   t i m e  s t e p    8001                              ( at time 3.9995997E+00 )

 nodal point  x-disp     y-disp      z-disp      x-vel       y-vel       z-vel      x-accl      y-accl      z-accl      x-coor      y-coor      z-coor
    22626 -1.98831E-03 1.46118E-01-3.03114E-01-5.31361E-04 4.53688E-02-1.05821E-01 1.96064E-03-1.31001E-02 1.50702E-02 4.65739E+00-2.80447E+01-4.52848E+01



 n o d a l   p r i n t   o u t   f o r   t i m e  s t e p    8001                              ( at time 3.9995997E+00 )

 nodal point  x-rot      y-rot       z-rot       x-rot vel   y-rot vel   z-rot vel   x-rot acc   y-rot acc   z-rot acc
    22626 -2.31563E-04 2.11943E-05 1.55142E-05-4.19104E-05 9.26920E-06 7.45532E-06 4.06743E-05-1.33981E-05-4.74549E-06



 n o d a l   p r i n t   o u t   f o r   t i m e  s t e p    8201                              ( at time 4.0995897E+00 )

 nodal point  x-disp     y-disp      z-disp      x-vel       y-vel       z-vel      x-accl      y-accl      z-accl      x-coor      y-coor      z-coor
    22626 -2.04479E-03 1.50605E-01-3.13669E-01-4.57611E-04 4.46366E-02-1.05527E-01 7.37575E-04-7.32196E-03 2.93418E-03 4.65733E+00-2.80402E+01-4.52954E+01



 n o d a l   p r i n t   o u t   f o r   t i m e  s t e p    8201                              ( at time 4.0995897E+00 )

 nodal point  x-rot      y-rot       z-rot       x-rot vel   y-rot vel   z-rot vel   x-rot acc   y-rot acc   z-rot acc
    22626 -2.35534E-04 2.20696E-05 1.61658E-05-4.48238E-05 7.32744E-06 5.99346E-06-2.91365E-05-1.94194E-05-1.46201E-05



 n o d a l   p r i n t   o u t   f o r   t i m e  s t e p    8401                              ( at time 4.1995797E+00 )

 nodal point  x-disp     y-disp      z-disp      x-vel       y-vel       z-vel      x-accl      y-accl      z-accl      x-coor      y-coor      z-coor
    22626 -2.11625E-03 1.55095E-01-3.24182E-01-8.35434E-04 4.54686E-02-1.04821E-01-3.77862E-03 8.32042E-03 7.06603E-03 4.65726E+00-2.80357E+01-4.53059E+01



 n o d a l   p r i n t   o u t   f o r   t i m e  s t e p    8401                              ( at time 4.1995797E+00 )

 nodal point  x-rot      y-rot       z-rot       x-rot vel   y-rot vel   z-rot vel   x-rot acc   y-rot acc   z-rot acc
    22626 -2.40597E-04 2.27419E-05 1.67257E-05-6.07622E-05 6.48851E-06 3.92486E-06-1.59400E-04-8.39019E-06-2.06881E-05



 n o d a l   p r i n t   o u t   f o r   t i m e  s t e p    8601                              ( at time 4.2995697E+00 )

 nodal point  x-disp     y-disp      z-disp      x-vel       y-vel       z-vel      x-accl      y-accl      z-accl      x-coor      y-coor      z-coor
    22626 -2.23185E-03 1.59795E-01-3.34587E-01-1.50198E-03 4.86206E-02-1.03132E-01-6.66612E-03 3.15236E-02 1.68899E-02 4.65714E+00-2.80310E+01-4.53163E+01



 n o d a l   p r i n t   o u t   f o r   t i m e  s t e p    8601                              ( at time 4.2995697E+00 )

 nodal point  x-rot      y-rot       z-rot       x-rot vel   y-rot vel   z-rot vel   x-rot acc   y-rot acc   z-rot acc
    22626 -2.47756E-04 2.31900E-05 1.66134E-05-8.26681E-05 3.20817E-06-8.78916E-06-2.19082E-04-3.28067E-05-1.27153E-04



 n o d a l   p r i n t   o u t   f o r   t i m e  s t e p    8801                              ( at time 4.3995597E+00 )

 nodal point  x-disp     y-disp      z-disp      x-vel       y-vel       z-vel      x-accl      y-accl      z-accl      x-coor      y-coor      z-coor
    22626 -2.43722E-03 1.64894E-01-3.44823E-01-2.46642E-03 5.40695E-02-1.02007E-01-9.64537E-03 5.44940E-02 1.12537E-02 4.65694E+00-2.80259E+01-4.53265E+01



 n o d a l   p r i n t   o u t   f o r   t i m e  s t e p    8801                              ( at time 4.3995597E+00 )

 nodal point  x-rot      y-rot       z-rot       x-rot vel   y-rot vel   z-rot vel   x-rot acc   y-rot acc   z-rot acc
    22626 -2.57342E-04 2.33111E-05 1.45624E-05-1.10965E-04-1.66452E-06-3.09974E-05-2.82994E-04-4.87318E-05-2.22105E-04



 n o d a l   p r i n t   o u t   f o r   t i m e  s t e p    9001                              ( at time 4.4995497E+00 )

 nodal point  x-disp     y-disp      z-disp      x-vel       y-vel       z-vel      x-accl      y-accl      z-accl      x-coor      y-coor      z-coor
    22626 -2.73789E-03 1.70774E-01-3.55069E-01-3.40894E-03 6.42491E-02-1.03038E-01-9.42615E-03 1.01806E-01-1.03096E-02 4.65664E+00-2.80201E+01-4.53368E+01



 n o d a l   p r i n t   o u t   f o r   t i m e  s t e p    9001                              ( at time 4.4995497E+00 )

 nodal point  x-rot      y-rot       z-rot       x-rot vel   y-rot vel   z-rot vel   x-rot acc   y-rot acc   z-rot acc
    22626 -2.70973E-04 2.29329E-05 1.05067E-05-1.61964E-04-6.21710E-06-5.17588E-05-5.10042E-04-4.55301E-05-2.07633E-04



 n o d a l   p r i n t   o u t   f o r   t i m e  s t e p    9201                              ( at time 4.5995397E+00 )

 nodal point  x-disp     y-disp      z-disp      x-vel       y-vel       z-vel      x-accl      y-accl      z-accl      x-coor      y-coor      z-coor
    22626 -3.12733E-03 1.77874E-01-3.65474E-01-4.43196E-03 7.84774E-02-1.05204E-01-1.02312E-02 1.42297E-01-2.16683E-02 4.65625E+00-2.80130E+01-4.53472E+01



 n o d a l   p r i n t   o u t   f o r   t i m e  s t e p    9201                              ( at time 4.5995397E+00 )

 nodal point  x-rot      y-rot       z-rot       x-rot vel   y-rot vel   z-rot vel   x-rot acc   y-rot acc   z-rot acc
    22626 -2.90623E-04 2.18680E-05 4.15005E-06-2.31071E-04-1.48979E-05-7.81612E-05-6.91145E-04-8.68168E-05-2.64051E-04



 n o d a l   p r i n t   o u t   f o r   t i m e  s t e p    9401                              ( at time 4.6995297E+00 )

 nodal point  x-disp     y-disp      z-disp      x-vel       y-vel       z-vel      x-accl      y-accl      z-accl      x-coor      y-coor      z-coor
    22626 -3.62728E-03 1.86518E-01-3.76109E-01-5.63294E-03 9.38017E-02-1.07017E-01-1.20110E-02 1.53259E-01-1.81282E-02 4.65575E+00-2.80043E+01-4.53578E+01



 n o d a l   p r i n t   o u t   f o r   t i m e  s t e p    9401                              ( at time 4.6995297E+00 )

 nodal point  x-rot      y-rot       z-rot       x-rot vel   y-rot vel   z-rot vel   x-rot acc   y-rot acc   z-rot acc
    22626 -3.18160E-04 2.03010E-05-5.40055E-06-3.16564E-04-1.36442E-05-1.07924E-04-8.55013E-04 1.25384E-05-2.97656E-04



 n o d a l   p r i n t   o u t   f o r   t i m e  s t e p    9601                              ( at time 4.7995197E+00 )

 nodal point  x-disp     y-disp      z-disp      x-vel       y-vel       z-vel      x-accl      y-accl      z-accl      x-coor      y-coor      z-coor
    22626 -4.17802E-03 1.96751E-01-3.86929E-01-4.70273E-03 1.13291E-01-1.10229E-01 9.30302E-03 1.94915E-01-3.21192E-02 4.65520E+00-2.79941E+01-4.53686E+01



 n o d a l   p r i n t   o u t   f o r   t i m e  s t e p    9601                              ( at time 4.7995197E+00 )

 nodal point  x-rot      y-rot       z-rot       x-rot vel   y-rot vel   z-rot vel   x-rot acc   y-rot acc   z-rot acc
    22626 -3.53204E-04 1.93077E-05-1.64292E-05-4.19839E-04-7.66881E-07-9.78484E-05-1.03285E-03 1.28786E-04 1.00763E-04



 n o d a l   p r i n t   o u t   f o r   t i m e  s t e p    9801                              ( at time 4.8995097E+00 )

 nodal point  x-disp     y-disp      z-disp      x-vel       y-vel       z-vel      x-accl      y-accl      z-accl      x-coor      y-coor      z-coor
    22626 -4.57031E-03 2.09120E-01-3.97928E-01-3.02470E-03 1.33122E-01-1.08705E-01 1.67821E-02 1.98329E-01 1.52340E-02 4.65480E+00-2.79817E+01-4.53796E+01



 n o d a l   p r i n t   o u t   f o r   t i m e  s t e p    9801                              ( at time 4.8995097E+00 )

 nodal point  x-rot      y-rot       z-rot       x-rot vel   y-rot vel   z-rot vel   x-rot acc   y-rot acc   z-rot acc
    22626 -4.01401E-04 2.01983E-05-2.53536E-05-5.63729E-04 1.37324E-05-8.09468E-05-1.43904E-03 1.45008E-04 1.69033E-04



 n o d a l   p r i n t   o u t   f o r   t i m e  s t e p   10001                              ( at time 4.9994997E+00 )

 nodal point  x-disp     y-disp      z-disp      x-vel       y-vel       z-vel      x-accl      y-accl      z-accl      x-coor      y-coor      z-coor
    22626 -4.87378E-03 2.23599E-01-4.08641E-01-3.20967E-03 1.57328E-01-1.06521E-01-1.84989E-03 2.42079E-01 2.18445E-02 4.65450E+00-2.79672E+01-4.53904E+01



 n o d a l   p r i n t   o u t   f o r   t i m e  s t e p   10001                              ( at time 4.9994997E+00 )

 nodal point  x-rot      y-rot       z-rot       x-rot vel   y-rot vel   z-rot vel   x-rot acc   y-rot acc   z-rot acc
    22626 -4.66003E-04 2.25676E-05-3.41291E-05-7.33509E-04 2.73851E-05-8.76735E-05-1.69797E-03 1.36540E-04-6.72728E-05



 n o d a l   p r i n t   o u t   f o r   t i m e  s t e p   10202                              ( at time 5.0999896E+00 )

 nodal point  x-disp     y-disp      z-disp      x-vel       y-vel       z-vel      x-accl      y-accl      z-accl      x-coor      y-coor      z-coor
    22626 -5.15682E-03 2.40545E-01-4.19202E-01-2.94181E-03 1.78841E-01-1.01683E-01 2.66551E-03 2.14085E-01 4.81411E-02 4.65422E+00-2.79503E+01-4.54009E+01



 n o d a l   p r i n t   o u t   f o r   t i m e  s t e p   10202                              ( at time 5.0999896E+00 )

 nodal point  x-rot      y-rot       z-rot       x-rot vel   y-rot vel   z-rot vel   x-rot acc   y-rot acc   z-rot acc
    22626 -5.49357E-04 2.64894E-05-4.14954E-05-9.08904E-04 4.40457E-05-6.43175E-05-1.74540E-03 1.65795E-04 2.32421E-04



 n o d a l   p r i n t   o u t   f o r   t i m e  s t e p   10402                              ( at time 5.1999796E+00 )

 nodal point  x-disp     y-disp      z-disp      x-vel       y-vel       z-vel      x-accl      y-accl      z-accl      x-coor      y-coor      z-coor
    22626 -5.35389E-03 2.59560E-01-4.29038E-01-2.37912E-03 2.01874E-01-9.39013E-02 5.62750E-03 2.30352E-01 7.78287E-02 4.65402E+00-2.79313E+01-4.54108E+01



 n o d a l   p r i n t   o u t   f o r   t i m e  s t e p   10402                              ( at time 5.1999796E+00 )

 nodal point  x-rot      y-rot       z-rot       x-rot vel   y-rot vel   z-rot vel   x-rot acc   y-rot acc   z-rot acc
    22626 -6.52482E-04 3.07860E-05-4.74092E-05-1.13432E-03 4.15889E-05-6.36160E-05-2.25441E-03-2.45701E-05 7.01586E-06



 n o d a l   p r i n t   o u t   f o r   t i m e  s t e p   10602                              ( at time 5.2999696E+00 )

 nodal point  x-disp     y-disp      z-disp      x-vel       y-vel       z-vel      x-accl      y-accl      z-accl      x-coor      y-coor      z-coor
    22626 -5.57994E-03 2.80720E-01-4.37980E-01-2.65251E-03 2.22115E-01-8.37346E-02-2.73423E-03 2.02427E-01 1.01677E-01 4.65380E+00-2.79101E+01-4.54197E+01



 n o d a l   p r i n t   o u t   f o r   t i m e  s t e p   10602                              ( at time 5.2999696E+00 )

 nodal point  x-rot      y-rot       z-rot       x-rot vel   y-rot vel   z-rot vel   x-rot acc   y-rot acc   z-rot acc
    22626 -7.79296E-04 3.35625E-05-5.23942E-05-1.36807E-03 2.35667E-05-5.28523E-05-2.33772E-03-1.80241E-04 1.07648E-04



 n o d a l   p r i n t   o u t   f o r   t i m e  s t e p   10802                              ( at time 5.3999596E+00 )

 nodal point  x-disp     y-disp      z-disp      x-vel       y-vel       z-vel      x-accl      y-accl      z-accl      x-coor      y-coor      z-coor
    22626 -5.83911E-03 3.04252E-01-4.45983E-01-2.72518E-03 2.46459E-01-7.86727E-02-7.26812E-04 2.43465E-01 5.06239E-02 4.65354E+00-2.78866E+01-4.54277E+01



 n o d a l   p r i n t   o u t   f o r   t i m e  s t e p   10802                              ( at time 5.3999596E+00 )

 nodal point  x-rot      y-rot       z-rot       x-rot vel   y-rot vel   z-rot vel   x-rot acc   y-rot acc   z-rot acc
    22626 -9.25894E-04 3.48630E-05-5.71557E-05-1.56443E-03 5.62953E-06-3.36515E-05-1.96378E-03-1.79390E-04 1.92028E-04



 n o d a l   p r i n t   o u t   f o r   t i m e  s t e p   11002                              ( at time 5.4999496E+00 )

 nodal point  x-disp     y-disp      z-disp      x-vel       y-vel       z-vel      x-accl      y-accl      z-accl      x-coor      y-coor      z-coor
    22626 -6.06864E-03 3.30053E-01-4.53369E-01-1.88986E-03 2.69436E-01-6.92661E-02 8.35404E-03 2.29801E-01 9.40759E-02 4.65331E+00-2.78608E+01-4.54351E+01



 n o d a l   p r i n t   o u t   f o r   t i m e  s t e p   11002                              ( at time 5.4999496E+00 )

 nodal point  x-rot      y-rot       z-rot       x-rot vel   y-rot vel   z-rot vel   x-rot acc   y-rot acc   z-rot acc
    22626 -1.09288E-03 3.45841E-05-5.96154E-05-1.83063E-03-1.35796E-05-9.25007E-06-2.66225E-03-1.92111E-04 2.44039E-04



 n o d a l   p r i n t   o u t   f o r   t i m e  s t e p   11202                              ( at time 5.5999396E+00 )

 nodal point  x-disp     y-disp      z-disp      x-vel       y-vel       z-vel      x-accl      y-accl      z-accl      x-coor      y-coor      z-coor
    22626 -6.24548E-03 3.58494E-01-4.59492E-01-1.76920E-03 2.98637E-01-5.65357E-02 1.20673E-03 2.92039E-01 1.27317E-01 4.65313E+00-2.78323E+01-4.54412E+01



 n o d a l   p r i n t   o u t   f o r   t i m e  s t e p   11202                              ( at time 5.5999396E+00 )

 nodal point  x-rot      y-rot       z-rot       x-rot vel   y-rot vel   z-rot vel   x-rot acc   y-rot acc   z-rot acc
    22626 -1.28746E-03 3.31989E-05-6.06647E-05-2.09351E-03-1.68690E-05-9.78689E-06-2.62911E-03-3.28974E-05-5.36868E-06



 n o d a l   p r i n t   o u t   f o r   t i m e  s t e p   11402                              ( at time 5.6999296E+00 )

 nodal point  x-disp     y-disp      z-disp      x-vel       y-vel       z-vel      x-accl      y-accl      z-accl      x-coor      y-coor      z-coor
    22626 -6.47152E-03 3.89785E-01-4.64715E-01-2.42021E-03 3.26964E-01-4.68777E-02-6.51072E-03 2.83295E-01 9.65887E-02 4.65290E+00-2.78010E+01-4.54464E+01



 n o d a l   p r i n t   o u t   f o r   t i m e  s t e p   11402                              ( at time 5.6999296E+00 )

 nodal point  x-rot      y-rot       z-rot       x-rot vel   y-rot vel   z-rot vel   x-rot acc   y-rot acc   z-rot acc
    22626 -1.50533E-03 3.12738E-05-6.10222E-05-2.25835E-03-2.87087E-05-3.24543E-06-1.64855E-03-1.18408E-04 6.54209E-05



 n o d a l   p r i n t   o u t   f o r   t i m e  s t e p   11602                              ( at time 5.7999195E+00 )

 nodal point  x-disp     y-disp      z-disp      x-vel       y-vel       z-vel      x-accl      y-accl      z-accl      x-coor      y-coor      z-coor
    22626 -6.71218E-03 4.23851E-01-4.69068E-01-2.40170E-03 3.54804E-01-4.07347E-02 1.85133E-04 2.78423E-01 6.14367E-02 4.65266E+00-2.77670E+01-4.54508E+01



 n o d a l   p r i n t   o u t   f o r   t i m e  s t e p   11602                              ( at time 5.7999195E+00 )

 nodal point  x-rot      y-rot       z-rot       x-rot vel   y-rot vel   z-rot vel   x-rot acc   y-rot acc   z-rot acc
    22626 -1.74146E-03 2.86639E-05-6.06628E-05-2.46007E-03-2.79849E-05-4.52559E-06-2.01735E-03 7.23916E-06-1.28029E-05



 n o d a l   p r i n t   o u t   f o r   t i m e  s t e p   11802                              ( at time 5.8999095E+00 )

 nodal point  x-disp     y-disp      z-disp      x-vel       y-vel       z-vel      x-accl      y-accl      z-accl      x-coor      y-coor      z-coor
    22626 -6.98382E-03 4.60853E-01-4.72690E-01-2.61197E-03 3.87311E-01-2.90797E-02-2.10293E-03 3.25105E-01 1.16561E-01 4.65239E+00-2.77300E+01-4.54544E+01



 n o d a l   p r i n t   o u t   f o r   t i m e  s t e p   11802                              ( at time 5.8999095E+00 )

 nodal point  x-rot      y-rot       z-rot       x-rot vel   y-rot vel   z-rot vel   x-rot acc   y-rot acc   z-rot acc
    22626 -2.00000E-03 2.51784E-05-5.91338E-05-2.71672E-03-4.99016E-05 2.79144E-05-2.56678E-03-2.19189E-04 3.24432E-04



 n o d a l   p r i n t   o u t   f o r   t i m e  s t e p   12002                              ( at time 5.9998995E+00 )

 nodal point  x-disp     y-disp      z-disp      x-vel       y-vel       z-vel      x-accl      y-accl      z-accl      x-coor      y-coor      z-coor
    22626 -7.29564E-03 5.00892E-01-4.75077E-01-3.70141E-03 4.16556E-01-1.96988E-02-1.08954E-02 2.92484E-01 9.38187E-02 4.65208E+00-2.76899E+01-4.54568E+01



 n o d a l   p r i n t   o u t   f o r   t i m e  s t e p   12002                              ( at time 5.9998995E+00 )

 nodal point  x-rot      y-rot       z-rot       x-rot vel   y-rot vel   z-rot vel   x-rot acc   y-rot acc   z-rot acc
    22626 -2.28293E-03 1.95254E-05-5.82614E-05-2.91906E-03-5.99083E-05-4.71766E-06-2.02364E-03-1.00077E-04-3.26353E-04



 n o d a l   p r i n t   o u t   f o r   t i m e  s t e p   12202                              ( at time 6.0998895E+00 )

 nodal point  x-disp     y-disp      z-disp      x-vel       y-vel       z-vel      x-accl      y-accl      z-accl      x-coor      y-coor      z-coor
    22626 -7.80130E-03 5.44327E-01-4.77059E-01-5.91657E-03 4.50073E-01-1.80537E-02-2.21537E-02 3.35204E-01 1.64530E-02 4.65157E+00-2.76465E+01-4.54588E+01



 n o d a l   p r i n t   o u t   f o r   t i m e  s t e p   12202                              ( at time 6.0998895E+00 )

 nodal point  x-rot      y-rot       z-rot       x-rot vel   y-rot vel   z-rot vel   x-rot acc   y-rot acc   z-rot acc
    22626 -2.58290E-03 1.37398E-05-5.92209E-05-3.05616E-03-6.07970E-05 1.85185E-05-1.37116E-03-8.88833E-06 2.32384E-04



 n o d a l   p r i n t   o u t   f o r   t i m e  s t e p   12402                              ( at time 6.1998795E+00 )

 nodal point  x-disp     y-disp      z-disp      x-vel       y-vel       z-vel      x-accl      y-accl      z-accl      x-coor      y-coor      z-coor
    22626 -8.24363E-03 5.90943E-01-4.78426E-01-4.21980E-03 4.83078E-01-8.98081E-03 1.69693E-02 3.30078E-01 9.07377E-02 4.65113E+00-2.75999E+01-4.54601E+01



 n o d a l   p r i n t   o u t   f o r   t i m e  s t e p   12402                              ( at time 6.1998795E+00 )

 nodal point  x-rot      y-rot       z-rot       x-rot vel   y-rot vel   z-rot vel   x-rot acc   y-rot acc   z-rot acc
    22626 -2.90093E-03 6.44762E-06-5.68129E-05-3.29105E-03-7.78420E-05 2.27007E-05-2.34910E-03-1.70467E-04 4.18267E-05



 n o d a l   p r i n t   o u t   f o r   t i m e  s t e p   12602                              ( at time 6.2998695E+00 )

 nodal point  x-disp     y-disp      z-disp      x-vel       y-vel       z-vel      x-accl      y-accl      z-accl      x-coor      y-coor      z-coor
    22626 -8.58325E-03 6.41145E-01-4.78947E-01-4.38702E-03 5.19683E-01-9.06749E-04-1.67232E-03 3.66086E-01 8.07488E-02 4.65079E+00-2.75497E+01-4.54607E+01



 n o d a l   p r i n t   o u t   f o r   t i m e  s t e p   12602                              ( at time 6.2998695E+00 )

 nodal point  x-rot      y-rot       z-rot       x-rot vel   y-rot vel   z-rot vel   x-rot acc   y-rot acc   z-rot acc
    22626 -3.24158E-03 9.35400E-08-5.52012E-05-3.49792E-03-4.58598E-05 2.88677E-05-2.06888E-03 3.19854E-04 6.16757E-05



 n o d a l   p r i n t   o u t   f o r   t i m e  s t e p   12802                              ( at time 6.3998595E+00 )

 nodal point  x-disp     y-disp      z-disp      x-vel       y-vel       z-vel      x-accl      y-accl      z-accl      x-coor      y-coor      z-coor
    22626 -9.11214E-03 6.94980E-01-4.78644E-01-5.84695E-03 5.56596E-01 4.64758E-03-1.46008E-02 3.69169E-01 5.55489E-02 4.65026E+00-2.74958E+01-4.54604E+01



 n o d a l   p r i n t   o u t   f o r   t i m e  s t e p   12802                              ( at time 6.3998595E+00 )

 nodal point  x-rot      y-rot       z-rot       x-rot vel   y-rot vel   z-rot vel   x-rot acc   y-rot acc   z-rot acc
    22626 -3.60270E-03-6.95489E-06-5.23460E-05-3.74390E-03-7.50589E-05 4.56000E-06-2.46003E-03-2.92020E-04-2.43101E-04



 n o d a l   p r i n t   o u t   f o r   t i m e  s t e p   13002                              ( at time 6.4998495E+00 )

 nodal point  x-disp     y-disp      z-disp      x-vel       y-vel       z-vel      x-accl      y-accl      z-accl      x-coor      y-coor      z-coor
    22626 -9.53123E-03 7.52494E-01-4.77690E-01-2.02211E-03 5.93220E-01 1.35266E-02 3.82523E-02 3.66278E-01 8.87993E-02 4.64984E+00-2.74383E+01-4.54594E+01



 n o d a l   p r i n t   o u t   f o r   t i m e  s t e p   13002                              ( at time 6.4998495E+00 )

 nodal point  x-rot      y-rot       z-rot       x-rot vel   y-rot vel   z-rot vel   x-rot acc   y-rot acc   z-rot acc
    22626 -3.98578E-03-1.52763E-05-4.98237E-05-3.95946E-03-5.34815E-05 4.70944E-05-2.15582E-03 2.15796E-04 4.25387E-04



 n o d a l   p r i n t   o u t   f o r   t i m e  s t e p   13202                              ( at time 6.5998395E+00 )

 nodal point  x-disp     y-disp      z-disp      x-vel       y-vel       z-vel      x-accl      y-accl      z-accl      x-coor      y-coor      z-coor
    22626 -9.81198E-03 8.13798E-01-4.75388E-01-2.14009E-03 6.32688E-01 3.06813E-02-1.17985E-03 3.94716E-01 1.71563E-01 4.64956E+00-2.73770E+01-4.54571E+01



 n o d a l   p r i n t   o u t   f o r   t i m e  s t e p   13202                              ( at time 6.5998395E+00 )

 nodal point  x-rot      y-rot       z-rot       x-rot vel   y-rot vel   z-rot vel   x-rot acc   y-rot acc   z-rot acc
    22626 -4.39193E-03-2.02429E-05-4.36861E-05-4.18283E-03-7.32253E-05 5.40152E-05-2.23400E-03-1.97458E-04 6.92144E-05



 n o d a l   p r i n t   o u t   f o r   t i m e  s t e p   13402                              ( at time 6.6998295E+00 )

 nodal point  x-disp     y-disp      z-disp      x-vel       y-vel       z-vel      x-accl      y-accl      z-accl      x-coor      y-coor      z-coor
    22626 -9.98474E-03 8.78897E-01-4.71738E-01 6.12962E-05 6.68639E-01 3.94631E-02 2.20160E-02 3.59545E-01 8.78269E-02 4.64939E+00-2.73119E+01-4.54535E+01



 n o d a l   p r i n t   o u t   f o r   t i m e  s t e p   13402                              ( at time 6.6998295E+00 )

 nodal point  x-rot      y-rot       z-rot       x-rot vel   y-rot vel   z-rot vel   x-rot acc   y-rot acc   z-rot acc
    22626 -4.82079E-03-2.59129E-05-3.83454E-05-4.36822E-03-5.40771E-05 7.74193E-05-1.85408E-03 1.91502E-04 2.34065E-04



 n o d a l   p r i n t   o u t   f o r   t i m e  s t e p   13602                              ( at time 6.7998195E+00 )

 nodal point  x-disp     y-disp      z-disp      x-vel       y-vel       z-vel      x-accl      y-accl      z-accl      x-coor      y-coor      z-coor
    22626 -1.00020E-02 9.48040E-01-4.67663E-01 5.41575E-04 7.14042E-01 4.62527E-02 4.80328E-03 4.54081E-01 6.79036E-02 4.64937E+00-2.72428E+01-4.54494E+01



 n o d a l   p r i n t   o u t   f o r   t i m e  s t e p   13602                              ( at time 6.7998195E+00 )

 nodal point  x-rot      y-rot       z-rot       x-rot vel   y-rot vel   z-rot vel   x-rot acc   y-rot acc   z-rot acc
    22626 -5.27074E-03-2.81340E-05-2.72838E-05-4.58911E-03-3.72717E-05 1.34024E-04-2.20912E-03 1.68071E-04 5.66108E-04



 n o d a l   p r i n t   o u t   f o r   t i m e  s t e p   13802                              ( at time 6.8998095E+00 )

 nodal point  x-disp     y-disp      z-disp      x-vel       y-vel       z-vel      x-accl      y-accl      z-accl      x-coor      y-coor      z-coor
    22626 -9.91634E-03 1.02133E+00-4.62182E-01 6.08137E-04 7.53361E-01 6.26742E-02 6.65682E-04 3.93229E-01 1.64231E-01 4.64946E+00-2.71695E+01-4.54439E+01



 n o d a l   p r i n t   o u t   f o r   t i m e  s t e p   13802                              ( at time 6.8998095E+00 )

 nodal point  x-rot      y-rot       z-rot       x-rot vel   y-rot vel   z-rot vel   x-rot acc   y-rot acc   z-rot acc
    22626 -5.74481E-03-2.94165E-05-1.65266E-05-4.84666E-03 1.53084E-06 8.72640E-05-2.57571E-03 3.88064E-04-4.67651E-04



 n o d a l   p r i n t   o u t   f o r   t i m e  s t e p   14002                              ( at time 6.9997995E+00 )

 nodal point  x-disp     y-disp      z-disp      x-vel       y-vel       z-vel      x-accl      y-accl      z-accl      x-coor      y-coor      z-coor
    22626 -9.81967E-03 1.09894E+00-4.55598E-01 2.08681E-03 7.96375E-01 6.76078E-02 1.47882E-02 4.30185E-01 4.93416E-02 4.64956E+00-2.70919E+01-4.54373E+01



 n o d a l   p r i n t   o u t   f o r   t i m e  s t e p   14002                              ( at time 6.9997995E+00 )

 nodal point  x-rot      y-rot       z-rot       x-rot vel   y-rot vel   z-rot vel   x-rot acc   y-rot acc   z-rot acc
    22626 -6.24012E-03-2.71435E-05-4.90227E-06-5.05091E-03 5.21418E-05 1.24465E-04-2.04275E-03 5.06161E-04 3.72051E-04



 n o d a l   p r i n t   o u t   f o r   t i m e  s t e p   14202                              ( at time 7.0997895E+00 )

 nodal point  x-disp     y-disp      z-disp      x-vel       y-vel       z-vel      x-accl      y-accl      z-accl      x-coor      y-coor      z-coor
    22626 -9.59296E-03 1.18092E+00-4.48365E-01 1.09749E-03 8.41571E-01 7.56745E-02-9.89411E-03 4.51998E-01 8.06750E-02 4.64978E+00-2.70099E+01-4.54301E+01



 n o d a l   p r i n t   o u t   f o r   t i m e  s t e p   14202                              ( at time 7.0997895E+00 )

 nodal point  x-rot      y-rot       z-rot       x-rot vel   y-rot vel   z-rot vel   x-rot acc   y-rot acc   z-rot acc
    22626 -6.75430E-03-2.29275E-05 8.36048E-06-5.23018E-03 7.10254E-05 1.25797E-04-1.79288E-03 1.88854E-04 1.33141E-05



 n o d a l   p r i n t   o u t   f o r   t i m e  s t e p   14402                              ( at time 7.1997794E+00 )

 nodal point  x-disp     y-disp      z-disp      x-vel       y-vel       z-vel      x-accl      y-accl      z-accl      x-coor      y-coor      z-coor
    22626 -9.38842E-03 1.26720E+00-4.40322E-01 1.02909E-03 8.83390E-01 8.52185E-02-6.84102E-04 4.18241E-01 9.54488E-02 4.64999E+00-2.69236E+01-4.54220E+01



 n o d a l   p r i n t   o u t   f o r   t i m e  s t e p   14402                              ( at time 7.1997794E+00 )

 nodal point  x-rot      y-rot       z-rot       x-rot vel   y-rot vel   z-rot vel   x-rot acc   y-rot acc   z-rot acc
    22626 -7.28356E-03-1.54510E-05 2.17133E-05-5.36477E-03 1.07601E-04 1.19911E-04-1.34599E-03 3.65790E-04-5.88640E-05



 n o d a l   p r i n t   o u t   f o r   t i m e  s t e p   14602                              ( at time 7.2997694E+00 )

 nodal point  x-disp     y-disp      z-disp      x-vel       y-vel       z-vel      x-accl      y-accl      z-accl      x-coor      y-coor      z-coor
    22626 -9.18998E-03 1.35784E+00-4.31383E-01 7.63891E-04 9.27845E-01 9.11972E-02-2.65225E-03 4.44587E-01 5.97938E-02 4.65019E+00-2.68330E+01-4.54131E+01



 n o d a l   p r i n t   o u t   f o r   t i m e  s t e p   14602                              ( at time 7.2997694E+00 )

 nodal point  x-rot      y-rot       z-rot       x-rot vel   y-rot vel   z-rot vel   x-rot acc   y-rot acc   z-rot acc
    22626 -7.83072E-03-7.68432E-06 3.35946E-05-5.56542E-03 7.83702E-05 1.49355E-04-2.00671E-03-2.92334E-04 2.94471E-04



 n o d a l   p r i n t   o u t   f o r   t i m e  s t e p   14802                              ( at time 7.3997594E+00 )

 nodal point  x-disp     y-disp      z-disp      x-vel       y-vel       z-vel      x-accl      y-accl      z-accl      x-coor      y-coor      z-coor
    22626 -9.09503E-03 1.45264E+00-4.21937E-01 7.41714E-04 9.67012E-01 9.69565E-02-2.21797E-04 3.91714E-01 5.75986E-02 4.65028E+00-2.67382E+01-4.54037E+01



 n o d a l   p r i n t   o u t   f o r   t i m e  s t e p   14802                              ( at time 7.3997594E+00 )

 nodal point  x-rot      y-rot       z-rot       x-rot vel   y-rot vel   z-rot vel   x-rot acc   y-rot acc   z-rot acc
    22626 -8.38755E-03 1.97338E-06 4.52138E-05-5.57507E-03 9.01822E-05 9.22985E-05-9.64948E-05 1.18131E-04-5.70622E-04



 n o d a l   p r i n t   o u t   f o r   t i m e  s t e p   15002                              ( at time 7.4997494E+00 )

 nodal point  x-disp     y-disp      z-disp      x-vel       y-vel       z-vel      x-accl      y-accl      z-accl      x-coor      y-coor      z-coor
    22626 -9.10650E-03 1.55161E+00-4.11862E-01 1.69920E-03 1.01377E+00 1.06296E-01 9.57578E-03 4.67624E-01 9.34017E-02 4.65027E+00-2.66392E+01-4.53936E+01



 n o d a l   p r i n t   o u t   f o r   t i m e  s t e p   15002                              ( at time 7.4997494E+00 )

 nodal point  x-rot      y-rot       z-rot       x-rot vel   y-rot vel   z-rot vel   x-rot acc   y-rot acc   z-rot acc
    22626 -8.95105E-03 1.14318E-05 5.72050E-05-5.66108E-03 8.19194E-05 1.03633E-04-8.60192E-04-8.26355E-05 1.13356E-04



 n o d a l   p r i n t   o u t   f o r   t i m e  s t e p   15202                              ( at time 7.5997394E+00 )

 nodal point  x-disp     y-disp      z-disp      x-vel       y-vel       z-vel      x-accl      y-accl      z-accl      x-coor      y-coor      z-coor
    22626 -9.16419E-03 1.65492E+00-4.01129E-01-1.88253E-03 1.05433E+00 1.08344E-01-3.58209E-02 4.05607E-01 2.04840E-02 4.65021E+00-2.65359E+01-4.53829E+01



 n o d a l   p r i n t   o u t   f o r   t i m e  s t e p   15202                              ( at time 7.5997394E+00 )

 nodal point  x-rot      y-rot       z-rot       x-rot vel   y-rot vel   z-rot vel   x-rot acc   y-rot acc   z-rot acc
    22626 -9.52057E-03 2.34707E-05 6.51222E-05-5.69643E-03 1.23887E-04 7.32212E-05-3.53556E-04 4.19718E-04-3.04149E-04



 n o d a l   p r i n t   o u t   f o r   t i m e  s t e p   15402                              ( at time 7.6997294E+00 )

 nodal point  x-disp     y-disp      z-disp      x-vel       y-vel       z-vel      x-accl      y-accl      z-accl      x-coor      y-coor      z-coor
    22626 -9.33912E-03 1.76253E+00-3.90342E-01-3.90512E-03 1.09845E+00 1.09003E-01-2.02279E-02 4.41275E-01 6.58817E-03 4.65004E+00-2.64283E+01-4.53721E+01



 n o d a l   p r i n t   o u t   f o r   t i m e  s t e p   15402                              ( at time 7.6997294E+00 )

 nodal point  x-rot      y-rot       z-rot       x-rot vel   y-rot vel   z-rot vel   x-rot acc   y-rot acc   z-rot acc
    22626 -1.00924E-02 3.44340E-05 6.96308E-05-5.72253E-03 9.39077E-05 4.81449E-05-2.61002E-04-2.99823E-04-2.50788E-04



 n o d a l   p r i n t   o u t   f o r   t i m e  s t e p   15602                              ( at time 7.7997194E+00 )

 nodal point  x-disp     y-disp      z-disp      x-vel       y-vel       z-vel      x-accl      y-accl      z-accl      x-coor      y-coor      z-coor
    22626 -9.65938E-03 1.87449E+00-3.79301E-01-2.22789E-03 1.14010E+00 1.11184E-01 1.67740E-02 4.16556E-01 2.18193E-02 4.64972E+00-2.63163E+01-4.53610E+01



 n o d a l   p r i n t   o u t   f o r   t i m e  s t e p   15602                              ( at time 7.7997194E+00 )

 nodal point  x-rot      y-rot       z-rot       x-rot vel   y-rot vel   z-rot vel   x-rot acc   y-rot acc   z-rot acc
    22626 -1.06630E-02 4.54075E-05 7.50059E-05-5.66377E-03 1.28403E-04 3.14550E-05 5.87626E-04 3.44989E-04-1.66916E-04



 n o d a l   p r i n t   o u t   f o r   t i m e  s t e p   15802                              ( at time 7.8997094E+00 )

 nodal point  x-disp     y-disp      z-disp      x-vel       y-vel       z-vel      x-accl      y-accl      z-accl      x-coor      y-coor      z-coor
    22626 -1.00448E-02 1.99069E+00-3.68110E-01-3.80229E-03 1.18145E+00 1.13774E-01-1.57456E-02 4.13519E-01 2.58973E-02 4.64933E+00-2.62001E+01-4.53498E+01



 n o d a l   p r i n t   o u t   f o r   t i m e  s t e p   15802                              ( at time 7.8997094E+00 )

 nodal point  x-rot      y-rot       z-rot       x-rot vel   y-rot vel   z-rot vel   x-rot acc   y-rot acc   z-rot acc
    22626 -1.12287E-02 5.72775E-05 7.49931E-05-5.63312E-03 1.18790E-04-2.87976E-05 3.06557E-04-9.61395E-05-6.02587E-04



 n o d a l   p r i n t   o u t   f o r   t i m e  s t e p   16002                              ( at time 7.9996994E+00 )

 nodal point  x-disp     y-disp      z-disp      x-vel       y-vel       z-vel      x-accl      y-accl      z-accl      x-coor      y-coor      z-coor
    22626 -1.04189E-02 2.11099E+00-3.56554E-01-3.55851E-03 1.22320E+00 1.16074E-01 2.43806E-03 4.17591E-01 2.29998E-02 4.64896E+00-2.60798E+01-4.53383E+01



 n o d a l   p r i n t   o u t   f o r   t i m e  s t e p   16002                              ( at time 7.9996994E+00 )

 nodal point  x-rot      y-rot       z-rot       x-rot vel   y-rot vel   z-rot vel   x-rot acc   y-rot acc   z-rot acc
    22626 -1.17909E-02 6.96397E-05 7.71009E-05-5.57831E-03 1.37962E-04 4.64193E-05 5.48090E-04 1.91740E-04 7.52242E-04



 n o d a l   p r i n t   o u t   f o r   t i m e  s t e p   16202                              ( at time 8.0996894E+00 )

 nodal point  x-disp     y-disp      z-disp      x-vel       y-vel       z-vel      x-accl      y-accl      z-accl      x-coor      y-coor      z-coor
    22626 -1.06773E-02 2.23533E+00-3.44948E-01-4.00040E-03 1.26358E+00 1.18329E-01-4.41942E-03 4.03785E-01 2.25535E-02 4.64870E+00-2.59555E+01-4.53267E+01



 n o d a l   p r i n t   o u t   f o r   t i m e  s t e p   16202                              ( at time 8.0996894E+00 )

 nodal point  x-rot      y-rot       z-rot       x-rot vel   y-rot vel   z-rot vel   x-rot acc   y-rot acc   z-rot acc
    22626 -1.23444E-02 8.39260E-05 8.04452E-05-5.46187E-03 1.37557E-04 2.71701E-05 1.16453E-03-4.05297E-06-1.92511E-04



 n o d a l   p r i n t   o u t   f o r   t i m e  s t e p   16402                              ( at time 8.1996794E+00 )

 nodal point  x-disp     y-disp      z-disp      x-vel       y-vel       z-vel      x-accl      y-accl      z-accl      x-coor      y-coor      z-coor
    22626 -1.10249E-02 2.36373E+00-3.32875E-01-3.41175E-03 1.30313E+00 1.24149E-01 5.88714E-03 3.95560E-01 5.82063E-02 4.64835E+00-2.58271E+01-4.53146E+01



 n o d a l   p r i n t   o u t   f o r   t i m e  s t e p   16402                              ( at time 8.1996794E+00 )

 nodal point  x-rot      y-rot       z-rot       x-rot vel   y-rot vel   z-rot vel   x-rot acc   y-rot acc   z-rot acc
    22626 -1.28895E-02 9.77660E-05 8.17696E-05-5.37625E-03 1.39127E-04 4.29508E-05 8.56358E-04 1.57059E-05 1.57823E-04



 n o d a l   p r i n t   o u t   f o r   t i m e  s t e p   16602                              ( at time 8.2996694E+00 )

 nodal point  x-disp     y-disp      z-disp      x-vel       y-vel       z-vel      x-accl      y-accl      z-accl      x-coor      y-coor      z-coor
    22626 -1.14003E-02 2.49591E+00-3.20360E-01-2.03340E-03 1.34041E+00 1.27060E-01 1.37849E-02 3.72861E-01 2.91098E-02 4.64797E+00-2.56949E+01-4.53021E+01



 n o d a l   p r i n t   o u t   f o r   t i m e  s t e p   16602                              ( at time 8.2996694E+00 )

 nodal point  x-rot      y-rot       z-rot       x-rot vel   y-rot vel   z-rot vel   x-rot acc   y-rot acc   z-rot acc
    22626 -1.34231E-02 1.11497E-04 8.71170E-05-5.25218E-03 1.35412E-04 4.42679E-05 1.24077E-03-3.71618E-05 1.31721E-05



 n o d a l   p r i n t   o u t   f o r   t i m e  s t e p   16802                              ( at time 8.3996594E+00 )

 nodal point  x-disp     y-disp      z-disp      x-vel       y-vel       z-vel      x-accl      y-accl      z-accl      x-coor      y-coor      z-coor
    22626 -1.15920E-02 2.63180E+00-3.07397E-01-3.64015E-03 1.37983E+00 1.33909E-01-1.60691E-02 3.94215E-01 6.85010E-02 4.64778E+00-2.55590E+01-4.52891E+01



 n o d a l   p r i n t   o u t   f o r   t i m e  s t e p   16802                              ( at time 8.3996594E+00 )

 nodal point  x-rot      y-rot       z-rot       x-rot vel   y-rot vel   z-rot vel   x-rot acc   y-rot acc   z-rot acc
    22626 -1.39438E-02 1.27693E-04 9.18442E-05-5.14537E-03 1.65274E-04 7.66599E-05 1.06819E-03 2.98651E-04 3.23953E-04



 n o d a l   p r i n t   o u t   f o r   t i m e  s t e p   17002                              ( at time 8.4996494E+00 )

 nodal point  x-disp     y-disp      z-disp      x-vel       y-vel       z-vel      x-accl      y-accl      z-accl      x-coor      y-coor      z-coor
    22626 -1.20264E-02 2.77169E+00-2.93852E-01-2.07756E-03 1.41728E+00 1.38835E-01 1.56275E-02 3.74523E-01 4.92664E-02 4.64735E+00-2.54191E+01-4.52756E+01



 n o d a l   p r i n t   o u t   f o r   t i m e  s t e p   17002                              ( at time 8.4996494E+00 )

 nodal point  x-rot      y-rot       z-rot       x-rot vel   y-rot vel   z-rot vel   x-rot acc   y-rot acc   z-rot acc
    22626 -1.44551E-02 1.39660E-04 9.72707E-05-5.02049E-03 1.06469E-04 1.49043E-05 1.24896E-03-5.88107E-04-6.17618E-04



 n o d a l   p r i n t   o u t   f o r   t i m e  s t e p   17202                              ( at time 8.5996394E+00 )

 nodal point  x-disp     y-disp      z-disp      x-vel       y-vel       z-vel      x-accl      y-accl      z-accl      x-coor      y-coor      z-coor
    22626 -1.23845E-02 2.91511E+00-2.79670E-01-3.44634E-03 1.45169E+00 1.46898E-01-1.36892E-02 3.44169E-01 8.06334E-02 4.64699E+00-2.52757E+01-4.52614E+01



 n o d a l   p r i n t   o u t   f o r   t i m e  s t e p   17202                              ( at time 8.5996394E+00 )

 nodal point  x-rot      y-rot       z-rot       x-rot vel   y-rot vel   z-rot vel   x-rot acc   y-rot acc   z-rot acc
    22626 -1.49522E-02 1.53668E-04 1.00039E-04-4.90269E-03 1.70045E-04 3.91718E-05 1.17812E-03 6.35826E-04 2.42700E-04



 n o d a l   p r i n t   o u t   f o r   t i m e  s t e p   17402                              ( at time 8.6996293E+00 )

 nodal point  x-disp     y-disp      z-disp      x-vel       y-vel       z-vel      x-accl      y-accl      z-accl      x-coor      y-coor      z-coor
    22626 -1.27823E-02 3.06194E+00-2.64662E-01-6.21234E-03 1.48733E+00 1.53066E-01-2.76625E-02 3.56455E-01 6.16942E-02 4.64659E+00-2.51289E+01-4.52464E+01



 n o d a l   p r i n t   o u t   f o r   t i m e  s t e p   17402                              ( at time 8.6996293E+00 )

 nodal point  x-rot      y-rot       z-rot       x-rot vel   y-rot vel   z-rot vel   x-rot acc   y-rot acc   z-rot acc
    22626 -1.54357E-02 1.65490E-04 1.06489E-04-4.78127E-03 6.85991E-05 7.43278E-05 1.21432E-03-1.01455E-03 3.51592E-04



 n o d a l   p r i n t   o u t   f o r   t i m e  s t e p   17602                              ( at time 8.7996193E+00 )

 nodal point  x-disp     y-disp      z-disp      x-vel       y-vel       z-vel      x-accl      y-accl      z-accl      x-coor      y-coor      z-coor
    22626 -1.34155E-02 3.21248E+00-2.48723E-01-8.36077E-03 1.52161E+00 1.66992E-01-2.14864E-02 3.42807E-01 1.39271E-01 4.64596E+00-2.49783E+01-4.52304E+01



 n o d a l   p r i n t   o u t   f o r   t i m e  s t e p   17602                              ( at time 8.7996193E+00 )

 nodal point  x-rot      y-rot       z-rot       x-rot vel   y-rot vel   z-rot vel   x-rot acc   y-rot acc   z-rot acc
    22626 -1.59093E-02 1.72246E-04 1.09274E-04-4.70820E-03 5.82755E-05 8.16685E-06 7.30794E-04-1.03247E-04-6.61676E-04



 n o d a l   p r i n t   o u t   f o r   t i m e  s t e p   17802                              ( at time 8.8996093E+00 )

 nodal point  x-disp     y-disp      z-disp      x-vel       y-vel       z-vel      x-accl      y-accl      z-accl      x-coor      y-coor      z-coor
    22626 -1.40824E-02 3.36645E+00-2.31458E-01-7.48918E-03 1.55800E+00 1.78348E-01 8.71669E-03 3.63935E-01 1.13565E-01 4.64529E+00-2.48244E+01-4.52132E+01



 n o d a l   p r i n t   o u t   f o r   t i m e  s t e p   17802                              ( at time 8.8996093E+00 )

 nodal point  x-rot      y-rot       z-rot       x-rot vel   y-rot vel   z-rot vel   x-rot acc   y-rot acc   z-rot acc
    22626 -1.63733E-02 1.77858E-04 1.12826E-04-4.54962E-03 6.09168E-05 5.39701E-05 1.58590E-03 2.64164E-05 4.58079E-04



 n o d a l   p r i n t   o u t   f o r   t i m e  s t e p   18002                              ( at time 8.9995993E+00 )

 nodal point  x-disp     y-disp      z-disp      x-vel       y-vel       z-vel      x-accl      y-accl      z-accl      x-coor      y-coor      z-coor
    22626 -1.47932E-02 3.52388E+00-2.13068E-01-6.35922E-03 1.59131E+00 1.90766E-01 1.13008E-02 3.33168E-01 1.24198E-01 4.64458E+00-2.46670E+01-4.51948E+01



 n o d a l   p r i n t   o u t   f o r   t i m e  s t e p   18002                              ( at time 8.9995993E+00 )

 nodal point  x-rot      y-rot       z-rot       x-rot vel   y-rot vel   z-rot vel   x-rot acc   y-rot acc   z-rot acc
    22626 -1.68277E-02 1.85688E-04 1.16059E-04-4.54518E-03 8.99661E-05-1.01152E-05 4.44193E-05 2.90522E-04-6.40918E-04



 n o d a l   p r i n t   o u t   f o r   t i m e  s t e p   18202                              ( at time 9.0995893E+00 )

 nodal point  x-disp     y-disp      z-disp      x-vel       y-vel       z-vel      x-accl      y-accl      z-accl      x-coor      y-coor      z-coor
    22626 -1.56460E-02 3.68467E+00-1.93150E-01-1.22902E-02 1.62414E+00 2.06370E-01-5.93163E-02 3.28263E-01 1.56057E-01 4.64373E+00-2.45062E+01-4.51749E+01



 n o d a l   p r i n t   o u t   f o r   t i m e  s t e p   18202                              ( at time 9.0995893E+00 )

 nodal point  x-rot      y-rot       z-rot       x-rot vel   y-rot vel   z-rot vel   x-rot acc   y-rot acc   z-rot acc
    22626 -1.72767E-02 1.88505E-04 1.15446E-04-4.43532E-03-7.31516E-06-1.58697E-05 1.09871E-03-9.72911E-04-5.75506E-05



 n o d a l   p r i n t   o u t   f o r   t i m e  s t e p   18402                              ( at time 9.1995793E+00 )

 nodal point  x-disp     y-disp      z-disp      x-vel       y-vel       z-vel      x-accl      y-accl      z-accl      x-coor      y-coor      z-coor
    22626 -1.68089E-02 3.84878E+00-1.71593E-01-8.98913E-03 1.65614E+00 2.23593E-01 3.30145E-02 3.20080E-01 1.72249E-01 4.64257E+00-2.43421E+01-4.51533E+01



 n o d a l   p r i n t   o u t   f o r   t i m e  s t e p   18402                              ( at time 9.1995793E+00 )

 nodal point  x-rot      y-rot       z-rot       x-rot vel   y-rot vel   z-rot vel   x-rot acc   y-rot acc   z-rot acc
    22626 -1.77150E-02 1.86181E-04 1.16619E-04-4.36950E-03-1.94042E-05-5.26776E-06 6.58269E-04-1.20903E-04 1.06030E-04



 n o d a l   p r i n t   o u t   f o r   t i m e  s t e p   18602                              ( at time 9.2995693E+00 )

 nodal point  x-disp     y-disp      z-disp      x-vel       y-vel       z-vel      x-accl      y-accl      z-accl      x-coor      y-coor      z-coor
    22626 -1.76621E-02 4.01594E+00-1.48429E-01-9.03504E-03 1.68793E+00 2.40328E-01-4.59161E-04 3.17932E-01 1.67363E-01 4.64171E+00-2.41749E+01-4.51301E+01



 n o d a l   p r i n t   o u t   f o r   t i m e  s t e p   18602                              ( at time 9.2995693E+00 )

 nodal point  x-rot      y-rot       z-rot       x-rot vel   y-rot vel   z-rot vel   x-rot acc   y-rot acc   z-rot acc
    22626 -1.81492E-02 1.88545E-04 1.14626E-04-4.31692E-03 1.04898E-05-9.49104E-08 5.25873E-04 2.98971E-04 5.17338E-05



 n o d a l   p r i n t   o u t   f o r   t i m e  s t e p   18802                              ( at time 9.3995593E+00 )

 nodal point  x-disp     y-disp      z-disp      x-vel       y-vel       z-vel      x-accl      y-accl      z-accl      x-coor      y-coor      z-coor
    22626 -1.87596E-02 4.18613E+00-1.23381E-01-9.63224E-03 1.71660E+00 2.62799E-01-5.97252E-03 2.86709E-01 2.24731E-01 4.64062E+00-2.40047E+01-4.51051E+01



 n o d a l   p r i n t   o u t   f o r   t i m e  s t e p   18802                              ( at time 9.3995593E+00 )

 nodal point  x-rot      y-rot       z-rot       x-rot vel   y-rot vel   z-rot vel   x-rot acc   y-rot acc   z-rot acc
    22626 -1.85776E-02 1.86780E-04 1.12857E-04-4.25363E-03-4.25662E-05-2.93910E-05 6.32977E-04-5.30614E-04-2.92990E-04



 n o d a l   p r i n t   o u t   f o r   t i m e  s t e p   19002                              ( at time 9.4995493E+00 )

 nodal point  x-disp     y-disp      z-disp      x-vel       y-vel       z-vel      x-accl      y-accl      z-accl      x-coor      y-coor      z-coor
    22626 -1.96426E-02 4.35907E+00-9.60569E-02-1.09027E-02 1.74380E+00 2.82086E-01-1.27063E-02 2.72061E-01 1.92895E-01 4.63973E+00-2.38318E+01-4.50778E+01



 n o d a l   p r i n t   o u t   f o r   t i m e  s t e p   19002                              ( at time 9.4995493E+00 )

 nodal point  x-rot      y-rot       z-rot       x-rot vel   y-rot vel   z-rot vel   x-rot acc   y-rot acc   z-rot acc
    22626 -1.89991E-02 1.84592E-04 1.09181E-04-4.24470E-03 5.95433E-06-7.88613E-06 8.92996E-05 4.85255E-04 2.15070E-04



 n o d a l   p r i n t   o u t   f o r   t i m e  s t e p   19202                              ( at time 9.5995393E+00 )

 nodal point  x-disp     y-disp      z-disp      x-vel       y-vel       z-vel      x-accl      y-accl      z-accl      x-coor      y-coor      z-coor
    22626 -2.05776E-02 4.53470E+00-6.68408E-02-8.51071E-03 1.76927E+00 3.02808E-01 2.39224E-02 2.54709E-01 2.07233E-01 4.63880E+00-2.36561E+01-4.50486E+01



 n o d a l   p r i n t   o u t   f o r   t i m e  s t e p   19202                              ( at time 9.5995393E+00 )

 nodal point  x-rot      y-rot       z-rot       x-rot vel   y-rot vel   z-rot vel   x-rot acc   y-rot acc   z-rot acc
    22626 -1.94150E-02 1.83834E-04 1.10511E-04-4.11884E-03-2.49368E-05-2.23007E-06 1.25867E-03-3.08939E-04 5.65658E-05



 n o d a l   p r i n t   o u t   f o r   t i m e  s t e p   19402                              ( at time 9.6995293E+00 )

 nodal point  x-disp     y-disp      z-disp      x-vel       y-vel       z-vel      x-accl      y-accl      z-accl      x-coor      y-coor      z-coor
    22626 -2.13707E-02 4.71271E+00-3.51859E-02-6.56337E-03 1.79371E+00 3.29415E-01 1.94753E-02 2.44363E-01 2.66098E-01 4.63800E+00-2.34781E+01-4.50169E+01



 n o d a l   p r i n t   o u t   f o r   t i m e  s t e p   19402                              ( at time 9.6995293E+00 )

 nodal point  x-rot      y-rot       z-rot       x-rot vel   y-rot vel   z-rot vel   x-rot acc   y-rot acc   z-rot acc
    22626 -1.98218E-02 1.80786E-04 1.09609E-04-4.07424E-03 1.68160E-06-2.50919E-05 4.46121E-04 2.66210E-04-2.28641E-04



 n o d a l   p r i n t   o u t   f o r   t i m e  s t e p   19602                              ( at time 9.7995193E+00 )

 nodal point  x-disp     y-disp      z-disp      x-vel       y-vel       z-vel      x-accl      y-accl      z-accl      x-coor      y-coor      z-coor
    22626 -2.20554E-02 4.89315E+00-1.00535E-03-8.12312E-03 1.81560E+00 3.55384E-01-1.55990E-02 2.18993E-01 2.59717E-01 4.63732E+00-2.32977E+01-4.49827E+01



 n o d a l   p r i n t   o u t   f o r   t i m e  s t e p   19602                              ( at time 9.7995193E+00 )

 nodal point  x-rot      y-rot       z-rot       x-rot vel   y-rot vel   z-rot vel   x-rot acc   y-rot acc   z-rot acc
    22626 -2.02247E-02 1.81285E-04 1.09920E-04-3.98926E-03-3.88228E-05 5.68728E-05 8.49862E-04-4.05085E-04 8.19730E-04



 n o d a l   p r i n t   o u t   f o r   t i m e  s t e p   19802                              ( at time 9.8995093E+00 )

 nodal point  x-disp     y-disp      z-disp      x-vel       y-vel       z-vel      x-accl      y-accl      z-accl      x-coor      y-coor      z-coor
    22626 -2.26552E-02 5.07583E+00 3.57551E-02-1.89396E-03 1.83577E+00 3.79786E-01 6.22978E-02 2.01709E-01 2.44047E-01 4.63672E+00-2.31150E+01-4.49460E+01



 n o d a l   p r i n t   o u t   f o r   t i m e  s t e p   19802                              ( at time 9.8995093E+00 )

 nodal point  x-rot      y-rot       z-rot       x-rot vel   y-rot vel   z-rot vel   x-rot acc   y-rot acc   z-rot acc
    22626 -2.06205E-02 1.80414E-04 1.12651E-04-3.90218E-03 2.18360E-05 2.91985E-05 8.70921E-04 6.06649E-04-2.76771E-04



 n o d a l   p r i n t   o u t   f o r   t i m e  s t e p   20003                              ( at time 9.9999992E+00 )

 nodal point  x-disp     y-disp      z-disp      x-vel       y-vel       z-vel      x-accl      y-accl      z-accl      x-coor      y-coor      z-coor
[...]
    22626 -1.58764E-01 2.01151E-04 4.81065E-04-2.52357E-02 5.24834E-05 2.86936E-04-1.77558E-03-7.79282E-05-3.27108E-04



 n o d a l   p r i n t   o u t   f o r   t i m e  s t e p   45205                              ( at time 2.2599738E+01 )

 nodal point  x-disp     y-disp      z-disp      x-vel       y-vel       z-vel      x-accl      y-accl      z-accl      x-coor      y-coor      z-coor
    22626 -4.52466E-02 2.81543E+01 1.91014E+01-4.46558E-03 1.61066E+00 1.00143E+00 4.98410E-03-7.42468E-02-3.09353E-02 4.61413E+00-3.65571E-02-2.58803E+01



 n o d a l   p r i n t   o u t   f o r   t i m e  s t e p   45205                              ( at time 2.2599738E+01 )

 nodal point  x-rot      y-rot       z-rot       x-rot vel   y-rot vel   z-rot vel   x-rot acc   y-rot acc   z-rot acc
    22626 -1.61294E-01 2.06336E-04 5.10514E-04-2.53905E-02 6.49142E-05 3.19518E-04-1.54796E-03 1.24319E-04 3.25850E-04



 n o d a l   p r i n t   o u t   f o r   t i m e  s t e p   45405                              ( at time 2.2699728E+01 )

 nodal point  x-disp     y-disp      z-disp      x-vel       y-vel       z-vel      x-accl      y-accl      z-accl      x-coor      y-coor      z-coor
    22626 -4.56402E-02 2.83149E+01 1.92015E+01-4.05275E-03 1.60157E+00 1.00040E+00 4.12883E-03-9.09763E-02-1.03116E-02 4.61373E+00 1.24105E-01-2.57802E+01



 n o d a l   p r i n t   o u t   f o r   t i m e  s t e p   45405                              ( at time 2.2699728E+01 )

 nodal point  x-rot      y-rot       z-rot       x-rot vel   y-rot vel   z-rot vel   x-rot acc   y-rot acc   z-rot acc
    22626 -1.63838E-01 2.14461E-04 5.41309E-04-2.55013E-02 8.99259E-05 2.96707E-04-1.10838E-03 2.50145E-04-2.28131E-04



 n o d a l   p r i n t   o u t   f o r   t i m e  s t e p   45605                              ( at time 2.2799718E+01 )

 nodal point  x-disp     y-disp      z-disp      x-vel       y-vel       z-vel      x-accl      y-accl      z-accl      x-coor      y-coor      z-coor
    22626 -4.59962E-02 2.84746E+01 1.93015E+01-4.78537E-03 1.59337E+00 9.99263E-01-7.32686E-03-8.20068E-02-1.13414E-02 4.61338E+00 2.83803E-01-2.56802E+01



 n o d a l   p r i n t   o u t   f o r   t i m e  s t e p   45605                              ( at time 2.2799718E+01 )

 nodal point  x-rot      y-rot       z-rot       x-rot vel   y-rot vel   z-rot vel   x-rot acc   y-rot acc   z-rot acc
    22626 -1.66395E-01 2.21489E-04 5.69395E-04-2.56360E-02 5.14136E-05 2.91927E-04-1.34657E-03-3.85159E-04-4.78086E-05



 n o d a l   p r i n t   o u t   f o r   t i m e  s t e p   45805                              ( at time 2.2899708E+01 )

 nodal point  x-disp     y-disp      z-disp      x-vel       y-vel       z-vel      x-accl      y-accl      z-accl      x-coor      y-coor      z-coor
    22626 -4.64150E-02 2.86334E+01 1.94013E+01-3.41812E-03 1.58322E+00 9.99043E-01 1.36740E-02-1.01434E-01-2.20383E-03 4.61296E+00 4.42619E-01-2.55804E+01



 n o d a l   p r i n t   o u t   f o r   t i m e  s t e p   45805                              ( at time 2.2899708E+01 )

 nodal point  x-rot      y-rot       z-rot       x-rot vel   y-rot vel   z-rot vel   x-rot acc   y-rot acc   z-rot acc
    22626 -1.68965E-01 2.27760E-04 5.99722E-04-2.57377E-02 6.88370E-05 3.05805E-04-1.01740E-03 1.74253E-04 1.38796E-04



 n o d a l   p r i n t   o u t   f o r   t i m e  s t e p   46005                              ( at time 2.2999698E+01 )

 nodal point  x-disp     y-disp      z-disp      x-vel       y-vel       z-vel      x-accl      y-accl      z-accl      x-coor      y-coor      z-coor
    22626 -4.66124E-02 2.87913E+01 1.95012E+01-9.13437E-04 1.57494E+00 9.99536E-01 2.50491E-02-8.28509E-02 4.93631E-03 4.61276E+00 6.00505E-01-2.54805E+01



 n o d a l   p r i n t   o u t   f o r   t i m e  s t e p   46005                              ( at time 2.2999698E+01 )

 nodal point  x-rot      y-rot       z-rot       x-rot vel   y-rot vel   z-rot vel   x-rot acc   y-rot acc   z-rot acc
    22626 -1.71546E-01 2.35851E-04 6.29149E-04-2.58521E-02 1.02859E-04 2.84061E-04-1.14353E-03 3.40255E-04-2.17454E-04



 n o d a l   p r i n t   o u t   f o r   t i m e  s t e p   46205                              ( at time 2.3099688E+01 )

 nodal point  x-disp     y-disp      z-disp      x-vel       y-vel       z-vel      x-accl      y-accl      z-accl      x-coor      y-coor      z-coor
    22626 -4.69021E-02 2.89483E+01 1.96012E+01-3.10675E-03 1.56540E+00 1.00109E+00-2.19356E-02-9.54352E-02 1.55561E-02 4.61247E+00 7.57482E-01-2.53805E+01



 n o d a l   p r i n t   o u t   f o r   t i m e  s t e p   46205                              ( at time 2.3099688E+01 )

 nodal point  x-rot      y-rot       z-rot       x-rot vel   y-rot vel   z-rot vel   x-rot acc   y-rot acc   z-rot acc
    22626 -1.74136E-01 2.45820E-04 6.59597E-04-2.59562E-02 9.80002E-05 3.12604E-04-1.04187E-03-4.85968E-05 2.85461E-04



 n o d a l   p r i n t   o u t   f o r   t i m e  s t e p   46405                              ( at time 2.3199678E+01 )

 nodal point  x-disp     y-disp      z-disp      x-vel       y-vel       z-vel      x-accl      y-accl      z-accl      x-coor      y-coor      z-coor
    22626 -4.71265E-02 2.91044E+01 1.97014E+01-2.16901E-03 1.55715E+00 1.00236E+00 9.37831E-03-8.24563E-02 1.26838E-02 4.61225E+00 9.13602E-01-2.52803E+01



 n o d a l   p r i n t   o u t   f o r   t i m e  s t e p   46405                              ( at time 2.3199678E+01 )

 nodal point  x-rot      y-rot       z-rot       x-rot vel   y-rot vel   z-rot vel   x-rot acc   y-rot acc   z-rot acc
    22626 -1.76735E-01 2.54301E-04 6.90305E-04-2.60338E-02 8.52858E-05 3.18394E-04-7.75378E-04-1.27155E-04 5.79018E-05



 n o d a l   p r i n t   o u t   f o r   t i m e  s t e p   46605                              ( at time 2.3299668E+01 )

 nodal point  x-disp     y-disp      z-disp      x-vel       y-vel       z-vel      x-accl      y-accl      z-accl      x-coor      y-coor      z-coor
    22626 -4.72593E-02 2.92596E+01 1.98017E+01-1.54669E-03 1.54728E+00 1.00456E+00 6.22382E-03-9.87567E-02 2.20109E-02 4.61212E+00 1.06876E+00-2.51800E+01



 n o d a l   p r i n t   o u t   f o r   t i m e  s t e p   46605                              ( at time 2.3299668E+01 )

 nodal point  x-rot      y-rot       z-rot       x-rot vel   y-rot vel   z-rot vel   x-rot acc   y-rot acc   z-rot acc
    22626 -1.79342E-01 2.63977E-04 7.22437E-04-2.61074E-02 1.02744E-04 3.23118E-04-7.36795E-04 1.74604E-04 4.72469E-05



 n o d a l   p r i n t   o u t   f o r   t i m e  s t e p   46805                              ( at time 2.3399658E+01 )

 nodal point  x-disp     y-disp      z-disp      x-vel       y-vel       z-vel      x-accl      y-accl      z-accl      x-coor      y-coor      z-coor
    22626 -4.74777E-02 2.94139E+01 1.99023E+01-1.71209E-03 1.53871E+00 1.00792E+00-1.65413E-03-8.56967E-02 3.35712E-02 4.61190E+00 1.22309E+00-2.50794E+01



 n o d a l   p r i n t   o u t   f o r   t i m e  s t e p   46805                              ( at time 2.3399658E+01 )

 nodal point  x-rot      y-rot       z-rot       x-rot vel   y-rot vel   z-rot vel   x-rot acc   y-rot acc   z-rot acc
    22626 -1.81957E-01 2.72525E-04 7.54528E-04-2.61806E-02 6.40710E-05 3.08280E-04-7.31844E-04-3.86768E-04-1.48399E-04



 n o d a l   p r i n t   o u t   f o r   t i m e  s t e p   47005                              ( at time 2.3499648E+01 )

 nodal point  x-disp     y-disp      z-disp      x-vel       y-vel       z-vel      x-accl      y-accl      z-accl      x-coor      y-coor      z-coor
    22626 -4.76544E-02 2.95673E+01 2.00032E+01-1.38558E-03 1.52938E+00 1.01078E+00 3.26537E-03-9.32624E-02 2.86152E-02 4.61172E+00 1.37650E+00-2.49785E+01



 n o d a l   p r i n t   o u t   f o r   t i m e  s t e p   47005                              ( at time 2.3499648E+01 )

 nodal point  x-rot      y-rot       z-rot       x-rot vel   y-rot vel   z-rot vel   x-rot acc   y-rot acc   z-rot acc
    22626 -1.84579E-01 2.79568E-04 7.85543E-04-2.62531E-02 7.76224E-05 3.16198E-04-7.25194E-04 1.35526E-04 7.91929E-05



 n o d a l   p r i n t   o u t   f o r   t i m e  s t e p   47205                              ( at time 2.3599638E+01 )

 nodal point  x-disp     y-disp      z-disp      x-vel       y-vel       z-vel      x-accl      y-accl      z-accl      x-coor      y-coor      z-coor
    22626 -4.77321E-02 2.97199E+01 2.01045E+01-1.00737E-04 1.52096E+00 1.01539E+00 1.28499E-02-8.42724E-02 4.60759E-02 4.61164E+00 1.52902E+00-2.48772E+01



 n o d a l   p r i n t   o u t   f o r   t i m e  s t e p   47205                              ( at time 2.3599638E+01 )

 nodal point  x-rot      y-rot       z-rot       x-rot vel   y-rot vel   z-rot vel   x-rot acc   y-rot acc   z-rot acc
    22626 -1.87209E-01 2.86271E-04 8.17141E-04-2.63339E-02 4.37998E-05 3.15749E-04-8.07714E-04-3.38264E-04-4.49355E-06



 n o d a l   p r i n t   o u t   f o r   t i m e  s t e p   47405                              ( at time 2.3699628E+01 )

 nodal point  x-disp     y-disp      z-disp      x-vel       y-vel       z-vel      x-accl      y-accl      z-accl      x-coor      y-coor      z-coor
    22626 -4.77242E-02 2.98716E+01 2.02063E+01-6.36549E-04 1.51340E+00 1.01920E+00-5.35861E-03-7.55379E-02 3.81624E-02 4.61165E+00 1.68072E+00-2.47755E+01



 n o d a l   p r i n t   o u t   f o r   t i m e  s t e p   47405                              ( at time 2.3699628E+01 )

 nodal point  x-rot      y-rot       z-rot       x-rot vel   y-rot vel   z-rot vel   x-rot acc   y-rot acc   z-rot acc
    22626 -1.89846E-01 2.89159E-04 8.48288E-04-2.63835E-02 2.81714E-05 3.12036E-04-4.95956E-04-1.56298E-04-3.71326E-05



 n o d a l   p r i n t   o u t   f o r   t i m e  s t e p   47605                              ( at time 2.3799618E+01 )

 nodal point  x-disp     y-disp      z-disp      x-vel       y-vel       z-vel      x-accl      y-accl      z-accl      x-coor      y-coor      z-coor
    22626 -4.77802E-02 3.00224E+01 2.03083E+01 1.28318E-04 1.50402E+00 1.02392E+00 7.64951E-03-9.38627E-02 4.71501E-02 4.61159E+00 1.83160E+00-2.46734E+01



 n o d a l   p r i n t   o u t   f o r   t i m e  s t e p   47605                              ( at time 2.3799618E+01 )

 nodal point  x-rot      y-rot       z-rot       x-rot vel   y-rot vel   z-rot vel   x-rot acc   y-rot acc   z-rot acc
    22626 -1.92488E-01 2.92934E-04 8.79571E-04-2.64705E-02 4.24907E-05 3.10037E-04-8.70715E-04 1.43208E-04-1.99945E-05



 n o d a l   p r i n t   o u t   f o r   t i m e  s t e p   47805                              ( at time 2.3899608E+01 )

 nodal point  x-disp     y-disp      z-disp      x-vel       y-vel       z-vel      x-accl      y-accl      z-accl      x-coor      y-coor      z-coor
    22626 -4.77037E-02 3.01724E+01 2.04110E+01 6.67056E-04 1.49672E+00 1.02929E+00 5.38788E-03-7.29938E-02 5.37004E-02 4.61167E+00 1.98160E+00-2.45707E+01



 n o d a l   p r i n t   o u t   f o r   t i m e  s t e p   47805                              ( at time 2.3899608E+01 )

 nodal point  x-rot      y-rot       z-rot       x-rot vel   y-rot vel   z-rot vel   x-rot acc   y-rot acc   z-rot acc
    22626 -1.95140E-01 2.95506E-04 9.11664E-04-2.65562E-02 1.19528E-05 3.28717E-04-8.56970E-04-3.05407E-04 1.86822E-04



 n o d a l   p r i n t   o u t   f o r   t i m e  s t e p   48005                              ( at time 2.3999598E+01 )

 nodal point  x-disp     y-disp      z-disp      x-vel       y-vel       z-vel      x-accl      y-accl      z-accl      x-coor      y-coor      z-coor
    22626 -4.76121E-02 3.03217E+01 2.05142E+01 9.85441E-04 1.48932E+00 1.03610E+00 3.18420E-03-7.40419E-02 6.81058E-02 4.61176E+00 2.13087E+00-2.44675E+01



 n o d a l   p r i n t   o u t   f o r   t i m e  s t e p   48005                              ( at time 2.3999598E+01 )

 nodal point  x-rot      y-rot       z-rot       x-rot vel   y-rot vel   z-rot vel   x-rot acc   y-rot acc   z-rot acc
    22626 -1.97797E-01 2.96440E-04 9.45471E-04-2.66000E-02 9.21258E-06 3.39188E-04-4.38031E-04-2.74050E-05 1.04724E-04



 n o d a l   p r i n t   o u t   f o r   t i m e  s t e p   48205                              ( at time 2.4099588E+01 )

 nodal point  x-disp     y-disp      z-disp      x-vel       y-vel       z-vel      x-accl      y-accl      z-accl      x-coor      y-coor      z-coor
    22626 -4.74485E-02 3.04701E+01 2.06181E+01 1.85539E-03 1.48141E+00 1.04161E+00 8.70033E-03-7.91133E-02 5.51620E-02 4.61193E+00 2.27929E+00-2.43636E+01



 n o d a l   p r i n t   o u t   f o r   t i m e  s t e p   48205                              ( at time 2.4099588E+01 )

 nodal point  x-rot      y-rot       z-rot       x-rot vel   y-rot vel   z-rot vel   x-rot acc   y-rot acc   z-rot acc
    22626 -2.00461E-01 2.98849E-04 9.79437E-04-2.66650E-02 3.05658E-05 3.43128E-04-6.50272E-04 2.13552E-04 3.94009E-05



 n o d a l   p r i n t   o u t   f o r   t i m e  s t e p   48405                              ( at time 2.4199578E+01 )

 nodal point  x-disp     y-disp      z-disp      x-vel       y-vel       z-vel      x-accl      y-accl      z-accl      x-coor      y-coor      z-coor
    22626 -4.73165E-02 3.06178E+01 2.07225E+01 2.23885E-03 1.47310E+00 1.04792E+00 3.83498E-03-8.31052E-02 6.30985E-02 4.61206E+00 2.42700E+00-2.42592E+01



 n o d a l   p r i n t   o u t   f o r   t i m e  s t e p   48405                              ( at time 2.4199578E+01 )

 nodal point  x-rot      y-rot       z-rot       x-rot vel   y-rot vel   z-rot vel   x-rot acc   y-rot acc   z-rot acc
    22626 -2.03130E-01 3.00915E-04 1.01497E-03-2.67367E-02 1.67014E-05 3.52063E-04-7.16508E-04-1.38659E-04 8.93621E-05



 n o d a l   p r i n t   o u t   f o r   t i m e  s t e p   48605                              ( at time 2.4299568E+01 )

 nodal point  x-disp     y-disp      z-disp      x-vel       y-vel       z-vel      x-accl      y-accl      z-accl      x-coor      y-coor      z-coor
    22626 -4.69990E-02 3.07647E+01 2.08277E+01 2.95115E-03 1.46497E+00 1.05581E+00 7.12364E-03-8.13225E-02 7.89107E-02 4.61238E+00 2.57389E+00-2.41540E+01



 n o d a l   p r i n t   o u t   f o r   t i m e  s t e p   48605                              ( at time 2.4299568E+01 )

 nodal point  x-rot      y-rot       z-rot       x-rot vel   y-rot vel   z-rot vel   x-rot acc   y-rot acc   z-rot acc
    22626 -2.05805E-01 3.02072E-04 1.05027E-03-2.67941E-02 6.28445E-06 3.59675E-04-5.73971E-04-1.04179E-04 7.61193E-05



 n o d a l   p r i n t   o u t   f o r   t i m e  s t e p   48805                              ( at time 2.4399558E+01 )

 nodal point  x-disp     y-disp      z-disp      x-vel       y-vel       z-vel      x-accl      y-accl      z-accl      x-coor      y-coor      z-coor
    22626 -4.66325E-02 3.09108E+01 2.09338E+01 4.27766E-03 1.45637E+00 1.06490E+00 1.32663E-02-8.59840E-02 9.09304E-02 4.61274E+00 2.71995E+00-2.40480E+01



 n o d a l   p r i n t   o u t   f o r   t i m e  s t e p   48805                              ( at time 2.4399558E+01 )

 nodal point  x-rot      y-rot       z-rot       x-rot vel   y-rot vel   z-rot vel   x-rot acc   y-rot acc   z-rot acc
    22626 -2.08484E-01 3.02631E-04 1.08652E-03-2.68138E-02 4.52288E-06 3.65374E-04-1.97440E-04-1.76173E-05 5.70039E-05



 n o d a l   p r i n t   o u t   f o r   t i m e  s t e p   49006                              ( at time 2.4500048E+01 )

 nodal point  x-disp     y-disp      z-disp      x-vel       y-vel       z-vel      x-accl      y-accl      z-accl      x-coor      y-coor      z-coor
    22626 -4.61730E-02 3.10568E+01 2.10412E+01 4.86315E-03 1.44912E+00 1.07305E+00 5.82646E-03-7.21588E-02 8.10620E-02 4.61320E+00 2.86597E+00-2.39406E+01



 n o d a l   p r i n t   o u t   f o r   t i m e  s t e p   49006                              ( at time 2.4500048E+01 )

 nodal point  x-rot      y-rot       z-rot       x-rot vel   y-rot vel   z-rot vel   x-rot acc   y-rot acc   z-rot acc
    22626 -2.11182E-01 3.02156E-04 1.12226E-03-2.68654E-02-2.26028E-06 3.58291E-04-5.13666E-04-6.75017E-05-7.04925E-05



 n o d a l   p r i n t   o u t   f o r   t i m e  s t e p   49206                              ( at time 2.4600038E+01 )

 nodal point  x-disp     y-disp      z-disp      x-vel       y-vel       z-vel      x-accl      y-accl      z-accl      x-coor      y-coor      z-coor
    22626 -4.56259E-02 3.12012E+01 2.11489E+01 6.03774E-03 1.44026E+00 1.08292E+00 1.17470E-02-8.86211E-02 9.87632E-02 4.61375E+00 3.01035E+00-2.38328E+01



 n o d a l   p r i n t   o u t   f o r   t i m e  s t e p   49206                              ( at time 2.4600038E+01 )

 nodal point  x-rot      y-rot       z-rot       x-rot vel   y-rot vel   z-rot vel   x-rot acc   y-rot acc   z-rot acc
    22626 -2.13871E-01 3.01105E-04 1.15782E-03-2.69000E-02-2.24702E-05 3.66765E-04-3.45794E-04-2.02118E-04 8.47540E-05



 n o d a l   p r i n t   o u t   f o r   t i m e  s t e p   49406                              ( at time 2.4700028E+01 )

 nodal point  x-disp     y-disp      z-disp      x-vel       y-vel       z-vel      x-accl      y-accl      z-accl      x-coor      y-coor      z-coor
    22626 -4.50233E-02 3.13448E+01 2.12576E+01 6.20596E-03 1.43188E+00 1.09192E+00 1.68231E-03-8.37490E-02 8.99367E-02 4.61435E+00 3.15394E+00-2.37241E+01



 n o d a l   p r i n t   o u t   f o r   t i m e  s t e p   49406                              ( at time 2.4700028E+01 )

 nodal point  x-rot      y-rot       z-rot       x-rot vel   y-rot vel   z-rot vel   x-rot acc   y-rot acc   z-rot acc
    22626 -2.16562E-01 2.98536E-04 1.19442E-03-2.69174E-02-2.98991E-05 3.51510E-04-1.73972E-04-7.42973E-05-1.52570E-04



 n o d a l   p r i n t   o u t   f o r   t i m e  s t e p   49606                              ( at time 2.4800018E+01 )

 nodal point  x-disp     y-disp      z-disp      x-vel       y-vel       z-vel      x-accl      y-accl      z-accl      x-coor      y-coor      z-coor
    22626 -4.44230E-02 3.14876E+01 2.13673E+01 6.56881E-03 1.42276E+00 1.10238E+00 3.62891E-03-9.12571E-02 1.04636E-01 4.61495E+00 3.29673E+00-2.36144E+01



 n o d a l   p r i n t   o u t   f o r   t i m e  s t e p   49606                              ( at time 2.4800018E+01 )

 nodal point  x-rot      y-rot       z-rot       x-rot vel   y-rot vel   z-rot vel   x-rot acc   y-rot acc   z-rot acc
    22626 -2.19256E-01 2.96462E-04 1.23036E-03-2.69613E-02-9.68472E-06 3.60503E-04-4.38861E-04 2.02163E-04 8.99321E-05



 n o d a l   p r i n t   o u t   f o r   t i m e  s t e p   49806                              ( at time 2.4900008E+01 )

 nodal point  x-disp     y-disp      z-disp      x-vel       y-vel       z-vel      x-accl      y-accl      z-accl      x-coor      y-coor      z-coor
    22626 -4.37614E-02 3.16295E+01 2.14781E+01 6.41336E-03 1.41504E+00 1.11311E+00-1.55475E-03-7.71417E-02 1.07350E-01 4.61561E+00 3.43863E+00-2.35036E+01



 n o d a l   p r i n t   o u t   f o r   t i m e  s t e p   49806                              ( at time 2.4900008E+01 )

 nodal point  x-rot      y-rot       z-rot       x-rot vel   y-rot vel   z-rot vel   x-rot acc   y-rot acc   z-rot acc
    22626 -2.21954E-01 2.95069E-04 1.26742E-03-2.69789E-02-2.15414E-05 3.79848E-04-1.76561E-04-1.18580E-04 1.93472E-04



 n o d a l   p r i n t   o u t   f o r   t i m e  s t e p   50006                              ( at time 2.4999998E+01 )

 nodal point  x-disp     y-disp      z-disp      x-vel       y-vel       z-vel      x-accl      y-accl      z-accl      x-coor      y-coor      z-coor
    22626 -4.30894E-02 3.17706E+01 2.15900E+01 6.79286E-03 1.40823E+00 1.12469E+00 3.79533E-03-6.81165E-02 1.15735E-01 4.61629E+00 3.57974E+00-2.33918E+01



 n o d a l   p r i n t   o u t   f o r   t i m e  s t e p   50006                              ( at time 2.4999998E+01 )

 nodal point  x-rot      y-rot       z-rot       x-rot vel   y-rot vel   z-rot vel   x-rot acc   y-rot acc   z-rot acc
    22626 -2.24651E-01 2.92099E-04 1.30479E-03-2.69801E-02-3.58793E-05 3.67174E-04-1.16985E-05-1.43392E-04-1.26746E-04
