 LSTC 50th% Full_FE H-III Dummy (Beta Version, February 17, 2019)        
                    ls-dyna smp s R16 R16.0_619_d222963 date 03/18/2025

{BEGIN LEGEND}
 Entity #        Title
        1     Upper_Neck_Force_INJURY                                              
{END LEGEND}



 line#1  section#     time        x-force     y-force     z-force    magnitude
 line#2  resultant  moments       x-moment    y-moment    z-moment   magnitude
 line#3  centroids                x           y           z            area  
           1    0.00000E+00     0.0000E+00  0.0000E+00  0.0000E+00  0.0000E+00
ac ID =   33377                 0.0000E+00  0.0000E+00  0.0000E+00  0.0000E+00
                               -3.7437E-01  1.0501E+01 -4.6940E+01  0.0000E+00

           1    1.00490E-01     1.3638E-04 -4.9878E-03  2.5982E-01  2.5987E-01
ac ID =   33377                 4.2550E-01 -1.2521E+00 -2.7103E-02  1.3227E+00
                               -3.7387E-01  1.0590E+01 -4.6886E+01  2.5147E+03

           1    2.00480E-01    -4.4408E-02  6.1346E-04  4.4135E-01  4.4358E-01
ac ID =   33377                 3.0839E-01 -1.5977E+00  2.1287E-02  1.6274E+00
                               -3.7386E-01  1.0591E+01 -4.6888E+01  2.5147E+03

           1    3.00470E-01     1.4895E-02 -3.0416E-03  2.1763E-01  2.1816E-01
ac ID =   33377                 2.2144E-02 -3.3757E-01  6.4993E-02  3.4448E-01
                               -3.7382E-01  1.0591E+01 -4.6889E+01  2.5147E+03

           1    4.00460E-01     2.1207E-03  1.0722E-02  8.9250E-02  8.9916E-02
ac ID =   33377                -4.8919E-01 -9.6252E-01 -1.2071E-04  1.0797E+00
                               -3.7383E-01  1.0592E+01 -4.6890E+01  2.5147E+03

           1    5.00450E-01    -4.0817E-02  4.0823E-03  1.6561E-01  1.7061E-01
ac ID =   33377                -3.9278E-01 -1.5273E+00 -1.1099E-01  1.5809E+00
                               -3.7385E-01  1.0594E+01 -4.6893E+01  2.5147E+03

           1    6.00440E-01    -1.0880E-02  4.0388E-03  3.4727E-01  3.4746E-01
ac ID =   33377                 9.7972E-02 -1.3212E+00 -4.0393E-02  1.3254E+00
                               -3.7385E-01  1.0595E+01 -4.6897E+01  2.5147E+03

           1    7.00430E-01     2.2987E-03 -6.0002E-03  2.9642E-01  2.9649E-01
ac ID =   33377                 1.3931E-01 -5.0701E-01  8.6803E-02  5.3292E-01
                               -3.7389E-01  1.0597E+01 -4.6901E+01  2.5147E+03

           1    8.00420E-01    -3.1198E-02 -1.2908E-03  1.0324E-01  1.0786E-01
ac ID =   33377                 9.1051E-02 -1.0547E+00  4.6417E-02  1.0596E+00
                               -3.7393E-01  1.0599E+01 -4.6904E+01  2.5147E+03

           1    9.00410E-01    -3.9733E-02  6.3457E-04  7.0328E-02  8.0778E-02
ac ID =   33377                 1.0045E-01 -1.0855E+00  2.8376E-03  1.0901E+00
                               -3.7398E-01  1.0601E+01 -4.6909E+01  2.5147E+03

           1    1.00040E+00     1.7146E-02 -3.3628E-03  2.2759E-01  2.2826E-01
ac ID =   33377                 3.6366E-01 -2.6648E-01 -6.7254E-02  4.5583E-01
                               -3.7399E-01  1.0603E+01 -4.6915E+01  2.5147E+03

           1    1.10039E+00     1.0057E-03 -3.6588E-03  2.7408E-01  2.7410E-01
ac ID =   33377                 3.6087E-01 -8.3768E-01 -6.0277E-02  9.1410E-01
                               -3.7399E-01  1.0606E+01 -4.6920E+01  2.5147E+03

           1    1.20038E+00    -3.3376E-02 -2.4269E-04  1.3281E-01  1.3694E-01
ac ID =   33377                -1.4587E-01 -1.1918E+00  1.0828E-02  1.2008E+00
                               -3.7402E-01  1.0609E+01 -4.6926E+01  2.5147E+03

           1    1.30037E+00    -6.6533E-03  4.9868E-03  8.2251E-02  8.2670E-02
ac ID =   33377                -2.9560E-01 -8.1728E-01  8.5733E-03  8.6913E-01
                               -3.7405E-01  1.0611E+01 -4.6932E+01  2.5147E+03

           1    1.40036E+00     9.2701E-03  2.7468E-03  1.8745E-01  1.8770E-01
ac ID =   33377                -2.8343E-01 -7.9184E-01  5.9786E-03  8.4106E-01
                               -3.7407E-01  1.0615E+01 -4.6939E+01  2.5147E+03

           1    1.50035E+00    -2.6324E-02  5.4000E-04  3.3639E-01  3.3742E-01
ac ID =   33377                -5.5648E-03 -1.5410E+00 -3.1050E-02  1.5413E+00
                               -3.7410E-01  1.0618E+01 -4.6947E+01  2.5147E+03

           1    1.60034E+00    -1.7212E-02 -2.6814E-03  2.2472E-01  2.2540E-01
ac ID =   33377                 3.1936E-03 -1.2657E+00 -1.4064E-02  1.2658E+00
                               -3.7418E-01  1.0622E+01 -4.6954E+01  2.5147E+03

           1    1.70033E+00     3.8802E-03  7.3421E-04  6.7694E-02  6.7809E-02
ac ID =   33377                -4.9262E-02 -5.2193E-01  6.6869E-02  5.2849E-01
                               -3.7426E-01  1.0625E+01 -4.6962E+01  2.5147E+03

           1    1.80032E+00    -2.0494E-02  8.8941E-04  9.4961E-02  9.7151E-02
ac ID =   33377                 9.7568E-02 -1.0545E+00  1.4060E-01  1.0683E+00
                               -3.7432E-01  1.0629E+01 -4.6970E+01  2.5147E+03

           1    1.90031E+00    -5.9774E-03 -3.5267E-03  2.0745E-01  2.0757E-01
ac ID =   33377                 3.0390E-01 -7.2977E-01 -7.2491E-02  7.9384E-01
                               -3.7437E-01  1.0634E+01 -4.6980E+01  2.5147E+03

           1    2.00030E+00     3.5347E-03 -3.9055E-03  1.6215E-01  1.6223E-01
ac ID =   33377                 2.1592E-01 -2.7233E-01 -1.6006E-01  3.8263E-01
                               -3.7443E-01  1.0638E+01 -4.6988E+01  2.5147E+03

           1    2.10029E+00    -2.1543E-02  2.5418E-03  1.1592E-02  2.4596E-02
ac ID =   33377                -8.0179E-02 -5.1593E-01  1.5792E-02  5.2236E-01
                               -3.7450E-01  1.0642E+01 -4.6997E+01  2.5147E+03

           1    2.20028E+00    -1.1815E-02  4.2648E-03  2.3379E-02  2.6540E-02
ac ID =   33377                -2.0000E-01 -5.2572E-01  2.0727E-02  5.6286E-01
                               -3.7456E-01  1.0646E+01 -4.7007E+01  2.5147E+03

           1    2.30027E+00     6.1081E-03  2.9341E-03  1.6890E-01  1.6903E-01
ac ID =   33377                -1.1437E-01 -6.1310E-01 -4.9237E-02  6.2561E-01
                               -3.7462E-01  1.0651E+01 -4.7017E+01  2.5147E+03

           1    2.40026E+00    -1.1491E-02 -1.5537E-03  1.9347E-01  1.9382E-01
ac ID =   33377                -1.4362E-01 -9.5219E-01  8.2060E-02  9.6645E-01
                               -3.7471E-01  1.0656E+01 -4.7027E+01  2.5147E+03

           1    2.50025E+00    -1.6658E-02  1.5844E-03  7.9987E-03  1.8547E-02
ac ID =   33377                -1.9591E-01 -6.8721E-01  1.2966E-01  7.2625E-01
                               -3.7482E-01  1.0660E+01 -4.7036E+01  2.5147E+03

           1    2.60024E+00    -4.0462E-03  5.1131E-03 -5.3357E-02  5.3753E-02
ac ID =   33377                -1.4874E-01 -3.2353E-02  3.2547E-02  1.5566E-01
                               -3.7494E-01  1.0665E+01 -4.7046E+01  2.5147E+03

           1    2.70023E+00    -4.6281E-03 -1.6111E-03  3.1719E-02  3.2095E-02
ac ID =   33377                 7.2298E-02  7.1301E-02  3.7987E-02  1.0841E-01
                               -3.7505E-01  1.0670E+01 -4.7057E+01  2.5147E+03

           1    2.80022E+00    -2.1170E-03 -5.0316E-03  7.4016E-02  7.4217E-02
ac ID =   33377                 3.7065E-01  9.9288E-02  1.5446E-02  3.8403E-01
                               -3.7517E-01  1.0676E+01 -4.7068E+01  2.5147E+03

           1    2.90021E+00     7.7524E-03 -3.0810E-03 -2.2244E-03  8.6337E-03
ac ID =   33377                 1.8433E-01  4.9944E-01 -7.3676E-02  5.3744E-01
                               -3.7528E-01  1.0680E+01 -4.7078E+01  2.5147E+03

           1    3.00020E+00    -2.8403E-03  1.9299E-03 -7.1764E-02  7.1846E-02
ac ID =   33377                 2.7526E-03  3.4293E-01 -1.0009E-01  3.5725E-01
                               -3.7539E-01  1.0685E+01 -4.7088E+01  2.5147E+03

           1    3.10019E+00     2.6241E-04  1.3547E-03  1.1227E-02  1.1312E-02
ac ID =   33377                 4.8363E-02 -4.0130E-02 -1.8961E-02  6.5643E-02
                               -3.7548E-01  1.0691E+01 -4.7099E+01  2.5147E+03

           1    3.20018E+00     4.7155E-03  2.5938E-04  8.8880E-02  8.9006E-02
ac ID =   33377                 1.5058E-02 -1.6134E-01  7.0750E-02  1.7681E-01
                               -3.7557E-01  1.0696E+01 -4.7110E+01  2.5147E+03

           1    3.30017E+00     2.3961E-03  3.5395E-04  2.2723E-02  2.2851E-02
ac ID =   33377                -1.7708E-01 -1.4329E-01  9.2801E-02  2.4597E-01
                               -3.7568E-01  1.0701E+01 -4.7121E+01  2.5147E+03

           1    3.40016E+00    -2.0089E-03  3.4211E-03 -9.3444E-02  9.3529E-02
ac ID =   33377                -2.8479E-01  1.6774E-01  9.0186E-02  3.4260E-01
                               -3.7581E-01  1.0706E+01 -4.7132E+01  2.5147E+03

           1    3.50015E+00    -4.7670E-03  3.5923E-03 -1.0665E-01  1.0681E-01
ac ID =   33377                -1.1329E-01  4.0366E-01  6.5004E-02  4.2427E-01
                               -3.7595E-01  1.0711E+01 -4.7143E+01  2.5147E+03

           1    3.60014E+00     6.0631E-03 -4.5696E-03 -2.7126E-02  2.8168E-02
ac ID =   33377                 1.8219E-01  8.6191E-01 -7.6059E-02  8.8424E-01
                               -3.7607E-01  1.0716E+01 -4.7154E+01  2.5147E+03

           1    3.70013E+00     6.9556E-03 -5.3214E-03 -3.6850E-02  3.7877E-02
ac ID =   33377                 3.3017E-01  9.7618E-01 -1.8583E-01  1.0471E+00
                               -3.7620E-01  1.0721E+01 -4.7165E+01  2.5147E+03

           1    3.80012E+00     8.3108E-03 -3.4539E-03 -1.2091E-01  1.2124E-01
ac ID =   33377                 2.7169E-01  1.2051E+00 -7.8726E-02  1.2378E+00
                               -3.7632E-01  1.0726E+01 -4.7176E+01  2.5147E+03

           1    3.90011E+00     4.1356E-03 -7.9694E-04 -1.6891E-01  1.6896E-01
ac ID =   33377                 1.8835E-01  1.1637E+00 -1.8843E-02  1.1790E+00
                               -3.7643E-01  1.0731E+01 -4.7187E+01  2.5147E+03

           1    4.00010E+00     3.3800E-05 -2.2362E-03 -1.0550E-01  1.0553E-01
ac ID =   33377                 3.4238E-02  7.3749E-01  2.6664E-02  7.3877E-01
                               -3.7651E-01  1.0735E+01 -4.7198E+01  2.5147E+03

           1    4.10009E+00     3.8614E-03 -4.3853E-04 -8.4368E-02  8.4457E-02
ac ID =   33377                -3.2505E-02  5.9299E-01  3.6087E-02  5.9498E-01
                               -3.7660E-01  1.0740E+01 -4.7208E+01  2.5147E+03

           1    4.20008E+00     4.8268E-03  2.6952E-03 -1.5125E-01  1.5135E-01
ac ID =   33377                -2.2014E-01  7.2645E-01  8.0765E-02  7.6336E-01
                               -3.7670E-01  1.0744E+01 -4.7219E+01  2.5147E+03

           1    4.30007E+00     2.8356E-02  5.8348E-03 -2.5714E-01  2.5877E-01
ac ID =   33377                -3.5085E-01  1.3528E+00  1.0491E-02  1.3976E+00
                               -3.7682E-01  1.0749E+01 -4.7229E+01  2.5147E+03

           1    4.40006E+00     4.7533E-02  6.8798E-03 -2.4361E-01  2.4830E-01
ac ID =   33377                -2.3243E-01  1.9837E+00 -9.4396E-02  1.9995E+00
                               -3.7695E-01  1.0754E+01 -4.7240E+01  2.5147E+03

           1    4.50005E+00     6.2026E-02  1.2257E-04 -2.0341E-01  2.1266E-01
ac ID =   33377                 9.0837E-02  2.1785E+00 -1.5595E-01  2.1859E+00
                               -3.7708E-01  1.0760E+01 -4.7251E+01  2.5147E+03

           1    4.60004E+00     7.7763E-02  3.0685E-04 -2.8389E-01  2.9434E-01
ac ID =   33377                 8.2615E-02  2.7570E+00 -2.3600E-01  2.7683E+00
                               -3.7723E-01  1.0766E+01 -4.7262E+01  2.5147E+03

           1    4.70003E+00     1.0164E-01  7.2601E-03 -3.9398E-01  4.0694E-01
ac ID =   33377                -6.8009E-02  3.1176E+00 -2.1198E-01  3.1255E+00
                               -3.7736E-01  1.0775E+01 -4.7273E+01  2.5147E+03

           1    4.80002E+00     8.2937E-02 -5.6592E-04 -4.1167E-01  4.1994E-01
ac ID =   33377                 8.3203E-02  2.8492E+00  3.2807E-02  2.8506E+00
                               -3.7747E-01  1.0785E+01 -4.7285E+01  2.5147E+03

           1    4.90001E+00     1.1572E-01  2.1786E-03 -3.9469E-01  4.1131E-01
ac ID =   33377                 1.4020E-01  3.5000E+00 -2.5626E-01  3.5121E+00
                               -3.7755E-01  1.0797E+01 -4.7298E+01  2.5147E+03

           1    5.00000E+00     1.2428E-01  1.2227E-02 -3.8367E-01  4.0348E-01
ac ID =   33377                -4.4322E-01  3.4051E+00 -2.4448E-02  3.4339E+00
                               -3.7752E-01  1.0812E+01 -4.7311E+01  2.5147E+03

           1    5.10049E+00     1.2224E-01 -7.0598E-03 -4.6843E-01  4.8417E-01
ac ID =   33377                 4.7515E-02  3.3746E+00  1.5257E-01  3.3784E+00
                               -3.7747E-01  1.0828E+01 -4.7325E+01  2.5147E+03

           1    5.20048E+00     1.1672E-01 -4.3945E-04 -4.7213E-01  4.8634E-01
ac ID =   33377                 1.8758E-02  3.8168E+00  1.1234E-02  3.8168E+00
                               -3.7748E-01  1.0847E+01 -4.7339E+01  2.5147E+03

           1    5.30047E+00     1.0383E-01  4.7588E-03 -4.5437E-01  4.6611E-01
ac ID =   33377                -4.0349E-01  3.4063E+00  2.6166E-01  3.4401E+00
                               -3.7751E-01  1.0868E+01 -4.7353E+01  2.5147E+03

           1    5.40046E+00     1.5789E-01 -1.9657E-03 -4.7750E-01  5.0293E-01
ac ID =   33377                 1.3440E-01  4.7766E+00  2.3664E-01  4.7843E+00
                               -3.7757E-01  1.0891E+01 -4.7366E+01  2.5147E+03

           1    5.50045E+00     1.4236E-01 -4.6294E-03 -5.6835E-01  5.8592E-01
ac ID =   33377                 6.2086E-02  4.3549E+00 -1.3792E-01  4.3575E+00
                               -3.7772E-01  1.0917E+01 -4.7380E+01  2.5147E+03

           1    5.60044E+00     1.7181E-01  3.0451E-04 -6.3479E-01  6.5763E-01
ac ID =   33377                -3.4544E-01  5.2394E+00 -8.7463E-02  5.2515E+00
                               -3.7786E-01  1.0945E+01 -4.7393E+01  2.5147E+03

           1    5.70043E+00     1.9608E-01 -2.4810E-03 -6.6427E-01  6.9261E-01
ac ID =   33377                -2.2708E-01  5.3194E+00  1.8406E-02  5.3243E+00
                               -3.7806E-01  1.0975E+01 -4.7407E+01  2.5147E+03

           1    5.80042E+00     1.8713E-01  3.9555E-03 -6.4906E-01  6.7551E-01
ac ID =   33377                 1.8600E-01  5.8601E+00  4.1468E-02  5.8632E+00
                               -3.7832E-01  1.1009E+01 -4.7421E+01  2.5147E+03

           1    5.90041E+00     1.8755E-01 -7.7399E-03 -6.5891E-01  6.8512E-01
ac ID =   33377                 1.6937E-01  5.7978E+00  5.0005E-01  5.8218E+00
                               -3.7860E-01  1.1045E+01 -4.7434E+01  2.5147E+03

           1    6.00040E+00     1.8876E-01  1.2840E-02 -7.0993E-01  7.3471E-01
ac ID =   33377                -3.1456E-01  6.3684E+00  2.3504E-01  6.3805E+00
                               -3.7903E-01  1.1085E+01 -4.7448E+01  2.5147E+03

           1    6.10039E+00     2.3936E-01 -7.6830E-03 -8.2522E-01  8.5927E-01
ac ID =   33377                -2.8956E-01  7.0480E+00  5.5725E-02  7.0542E+00
                               -3.7939E-01  1.1127E+01 -4.7461E+01  2.5147E+03

           1    6.20038E+00     2.1466E-01 -1.0306E-02 -8.4020E-01  8.6725E-01
ac ID =   33377                 3.4503E-01  7.1456E+00 -4.6019E-01  7.1687E+00
                               -3.7997E-01  1.1173E+01 -4.7475E+01  2.5147E+03

           1    6.30037E+00     2.3276E-01  2.8897E-02 -7.9873E-01  8.3245E-01
ac ID =   33377                -9.3733E-01  7.2446E+00  7.5221E-01  7.3436E+00
                               -3.8042E-01  1.1223E+01 -4.7488E+01  2.5147E+03

           1    6.40036E+00     2.6493E-01 -1.0117E-02 -9.2939E-01  9.6646E-01
ac ID =   33377                -6.0205E-02  8.7583E+00  8.2042E-02  8.7588E+00
                               -3.8093E-01  1.1276E+01 -4.7502E+01  2.5147E+03

           1    6.50035E+00     2.6612E-01  2.1660E-03 -1.0770E+00  1.1094E+00
ac ID =   33377                -5.5867E-02  8.7682E+00 -5.6545E-01  8.7866E+00
                               -3.8152E-01  1.1332E+01 -4.7515E+01  2.5147E+03

           1    6.60034E+00     2.7025E-01  1.1629E-02 -1.0854E+00  1.1186E+00
ac ID =   33377                -4.1638E-01  8.9783E+00 -8.1433E-01  9.0247E+00
                               -3.8194E-01  1.1393E+01 -4.7529E+01  2.5147E+03

           1    6.70033E+00     2.7618E-01  2.0171E-02 -1.0490E+00  1.0849E+00
ac ID =   33377                -1.9622E-01  1.0130E+01  2.0182E-01  1.0134E+01
                               -3.8238E-01  1.1457E+01 -4.7542E+01  2.5147E+03

           1    6.80032E+00     3.2834E-01 -2.9257E-02 -1.1864E+00  1.2313E+00
ac ID =   33377                 9.6102E-01  1.0477E+01  5.6489E-01  1.0537E+01
                               -3.8280E-01  1.1525E+01 -4.7555E+01  2.5147E+03

           1    6.90031E+00     2.9578E-01  3.3164E-02 -1.3161E+00  1.3493E+00
ac ID =   33377                -4.6178E-01  1.1855E+01  4.2447E-01  1.1872E+01
                               -3.8319E-01  1.1597E+01 -4.7568E+01  2.5147E+03

           1    7.00030E+00     3.3337E-01  7.0163E-03 -1.2968E+00  1.3389E+00
ac ID =   33377                -2.3071E-02  1.1874E+01  6.3733E-02  1.1875E+01
                               -3.8346E-01  1.1673E+01 -4.7580E+01  2.5147E+03

           1    7.10029E+00     3.4084E-01 -2.2460E-02 -1.3740E+00  1.4159E+00
ac ID =   33377                 2.6761E-01  1.2434E+01 -9.4165E-02  1.2437E+01
                               -3.8379E-01  1.1754E+01 -4.7593E+01  2.5147E+03

           1    7.20028E+00     3.7768E-01 -1.5138E-02 -1.3899E+00  1.4404E+00
ac ID =   33377                 2.8233E-01  1.3039E+01 -6.7090E-01  1.3059E+01
                               -3.8402E-01  1.1839E+01 -4.7605E+01  2.5147E+03

           1    7.30027E+00     3.6482E-01  1.4403E-02 -1.5055E+00  1.5492E+00
ac ID =   33377                -7.8773E-01  1.4470E+01 -5.6696E-01  1.4503E+01
                               -3.8441E-01  1.1928E+01 -4.7617E+01  2.5147E+03

           1    7.40026E+00     3.8195E-01  4.1779E-03 -1.6099E+00  1.6546E+00
ac ID =   33377                 1.8645E-01  1.5350E+01 -6.3643E-01  1.5364E+01
                               -3.8482E-01  1.2021E+01 -4.7629E+01  2.5147E+03

           1    7.50025E+00     4.0503E-01 -1.3779E-02 -1.6729E+00  1.7213E+00
ac ID =   33377                 2.8681E-01  1.6229E+01  5.4029E-02  1.6232E+01
                               -3.8522E-01  1.2119E+01 -4.7641E+01  2.5147E+03

           1    7.60024E+00     4.3450E-01 -7.8015E-03 -1.6947E+00  1.7495E+00
ac ID =   33377                -1.0633E-01  1.8461E+01  1.5156E+00  1.8523E+01
                               -3.8562E-01  1.2221E+01 -4.7652E+01  2.5147E+03

           1    7.70023E+00     4.3577E-01  5.9104E-03 -1.7305E+00  1.7845E+00
ac ID =   33377                -2.2250E-01  1.8007E+01  1.1344E+00  1.8044E+01
                               -3.8610E-01  1.2327E+01 -4.7663E+01  2.5147E+03

           1    7.80022E+00     4.0849E-01 -9.2897E-03 -1.9018E+00  1.9452E+00
ac ID =   33377                 7.5412E-01  1.9760E+01 -3.5989E-01  1.9777E+01
                               -3.8663E-01  1.2437E+01 -4.7674E+01  2.5147E+03

           1    7.90021E+00     5.2712E-01 -8.4162E-03 -1.9441E+00  2.0143E+00
ac ID =   33377                -7.4600E-01  2.1438E+01 -6.1755E-01  2.1460E+01
                               -3.8695E-01  1.2552E+01 -4.7684E+01  2.5147E+03

           1    8.00020E+00     4.7046E-01 -8.0802E-03 -1.9759E+00  2.0311E+00
ac ID =   33377                -1.6669E-01  2.1834E+01 -1.1020E+00  2.1863E+01
                               -3.8746E-01  1.2671E+01 -4.7695E+01  2.5147E+03

           1    8.10019E+00     4.8648E-01 -1.3726E-02 -2.0811E+00  2.1373E+00
ac ID =   33377                 4.3360E-01  2.2956E+01  2.6844E-01  2.2962E+01
                               -3.8790E-01  1.2794E+01 -4.7704E+01  2.5147E+03

           1    8.20018E+00     5.2791E-01  1.7230E-02 -2.2269E+00  2.2887E+00
ac ID =   33377                -2.1647E-01  2.5128E+01  1.1038E+00  2.5153E+01
                               -3.8839E-01  1.2921E+01 -4.7713E+01  2.5147E+03

           1    8.30017E+00     5.3183E-01  1.4621E-02 -2.3445E+00  2.4041E+00
ac ID =   33377                -3.2245E-01  2.6253E+01  5.1770E-01  2.6260E+01
                               -3.8893E-01  1.3051E+01 -4.7721E+01  2.5147E+03

           1    8.40016E+00     5.2722E-01 -1.8004E-02 -2.3096E+00  2.3691E+00
ac ID =   33377                 5.6836E-01  2.6402E+01 -4.6706E-01  2.6412E+01
                               -3.8936E-01  1.3186E+01 -4.7728E+01  2.5147E+03

           1    8.50015E+00     5.8704E-01  5.0504E-03 -2.4310E+00  2.5009E+00
ac ID =   33377                 6.3351E-01  2.9374E+01 -1.5743E+00  2.9423E+01
                               -3.9003E-01  1.3324E+01 -4.7734E+01  2.5147E+03

           1    8.60014E+00     5.7071E-01  4.5352E-04 -2.5322E+00  2.5958E+00
ac ID =   33377                -4.8836E-01  3.0119E+01  4.0408E-01  3.0125E+01
                               -3.9053E-01  1.3466E+01 -4.7739E+01  2.5147E+03

           1    8.70013E+00     5.2789E-01 -3.2101E-02 -2.6118E+00  2.6648E+00
ac ID =   33377                 5.2558E-01  3.0287E+01  3.9571E-01  3.0294E+01
                               -3.9114E-01  1.3612E+01 -4.7742E+01  2.5147E+03

           1    8.80012E+00     6.1827E-01 -8.9499E-03 -2.7018E+00  2.7717E+00
ac ID =   33377                -1.9815E-01  3.2421E+01  2.9427E-01  3.2423E+01
                               -3.9198E-01  1.3761E+01 -4.7745E+01  2.5147E+03

           1    8.90011E+00     6.1676E-01  4.2052E-02 -2.7663E+00  2.8346E+00
ac ID =   33377                -6.3193E-01  3.3333E+01 -3.0287E-01  3.3340E+01
                               -3.9289E-01  1.3914E+01 -4.7745E+01  2.5147E+03

           1    9.00010E+00     6.0312E-01 -1.4849E-02 -2.8174E+00  2.8812E+00
ac ID =   33377                -5.9826E-01  3.4282E+01 -1.6586E-01  3.4288E+01
                               -3.9361E-01  1.4070E+01 -4.7744E+01  2.5147E+03

           1    9.10009E+00     5.8306E-01 -1.1793E-02 -2.9497E+00  3.0068E+00
ac ID =   33377                -2.1506E-01  3.5599E+01  2.8043E-01  3.5600E+01
                               -3.9446E-01  1.4229E+01 -4.7741E+01  2.5147E+03

           1    9.20008E+00     6.8494E-01  6.6764E-03 -3.0503E+00  3.1263E+00
ac ID =   33377                -1.9398E-01  3.7881E+01 -5.7296E-01  3.7886E+01
                               -3.9567E-01  1.4392E+01 -4.7737E+01  2.5147E+03

           1    9.30007E+00     6.3972E-01  4.2897E-02 -3.0866E+00  3.1525E+00
ac ID =   33377                -6.1156E-01  3.8551E+01  8.6731E-01  3.8566E+01
                               -3.9657E-01  1.4558E+01 -4.7730E+01  2.5147E+03

           1    9.40006E+00     6.3577E-01 -3.0039E-02 -3.1355E+00  3.1995E+00
ac ID =   33377                 1.6742E-01  3.9424E+01  2.8635E-01  3.9425E+01
                               -3.9740E-01  1.4727E+01 -4.7722E+01  2.5147E+03

           1    9.50005E+00     6.7177E-01  1.5206E-02 -3.2488E+00  3.3176E+00
ac ID =   33377                -1.9347E-01  4.1361E+01 -3.6801E-01  4.1364E+01
                               -3.9837E-01  1.4899E+01 -4.7710E+01  2.5147E+03

           1    9.60004E+00     6.8319E-01  1.4366E-02 -3.4035E+00  3.4714E+00
ac ID =   33377                -5.4406E-01  4.2534E+01  3.5890E-02  4.2537E+01
                               -3.9918E-01  1.5073E+01 -4.7697E+01  2.5147E+03

           1    9.70003E+00     6.3739E-01  1.1371E-02 -3.4241E+00  3.4829E+00
ac ID =   33377                -9.3294E-01  4.3308E+01  3.8458E-01  4.3320E+01
                               -3.9999E-01  1.5250E+01 -4.7681E+01  2.5147E+03

           1    9.80002E+00     6.6636E-01 -1.8231E-02 -3.4439E+00  3.5078E+00
ac ID =   33377                -1.6955E-01  4.5344E+01  1.1370E-01  4.5344E+01
                               -4.0066E-01  1.5429E+01 -4.7663E+01  2.5147E+03

           1    9.90001E+00     6.8486E-01  2.5558E-02 -3.5740E+00  3.6391E+00
ac ID =   33377                -4.1018E-01  4.7103E+01 -7.7447E-01  4.7111E+01
                               -4.0143E-01  1.5611E+01 -4.7641E+01  2.5147E+03

           1    1.00005E+01     6.6769E-01  8.8249E-03 -3.6842E+00  3.7442E+00
ac ID =   33377                -7.5474E-01  4.7736E+01  6.3025E-01  4.7746E+01
                               -4.0198E-01  1.5795E+01 -4.7616E+01  2.5147E+03

           1    1.01005E+01     7.0058E-01 -1.5987E-02 -3.7597E+00  3.8244E+00
ac ID =   33377                -2.0781E-01  4.9689E+01  7.6406E-01  4.9695E+01
                               -4.0256E-01  1.5980E+01 -4.7588E+01  2.5147E+03

           1    1.02005E+01     6.9953E-01 -1.8010E-02 -3.7692E+00  3.8336E+00
ac ID =   33377                 4.3947E-02  4.9893E+01  8.1426E-01  4.9900E+01
                               -4.0319E-01  1.6167E+01 -4.7557E+01  2.5147E+03

           1    1.03005E+01     6.6879E-01  3.7416E-03 -3.8016E+00  3.8600E+00
ac ID =   33377                -2.4755E-01  5.0424E+01 -4.9969E-01  5.0427E+01
                               -4.0373E-01  1.6355E+01 -4.7523E+01  2.5147E+03

           1    1.04005E+01     6.8618E-01  9.4904E-03 -3.9577E+00  4.0168E+00
ac ID =   33377                -3.0416E-01  5.2340E+01 -2.0371E+00  5.2380E+01
                               -4.0413E-01  1.6545E+01 -4.7485E+01  2.5147E+03

           1    1.05004E+01     7.1409E-01 -2.2460E-02 -3.9335E+00  3.9979E+00
ac ID =   33377                 5.6675E-02  5.3282E+01 -9.8475E-01  5.3292E+01
                               -4.0467E-01  1.6736E+01 -4.7443E+01  2.5147E+03

           1    1.06004E+01     6.9010E-01  7.2330E-03 -4.0216E+00  4.0804E+00
ac ID =   33377                -1.2033E-01  5.4451E+01  1.1587E+00  5.4464E+01
                               -4.0505E-01  1.6928E+01 -4.7397E+01  2.5147E+03

           1    1.07004E+01     6.9111E-01 -7.9783E-03 -4.0680E+00  4.1263E+00
ac ID =   33377                -9.0684E-01  5.6495E+01  1.1688E+00  5.6515E+01
                               -4.0530E-01  1.7122E+01 -4.7349E+01  2.5147E+03

           1    1.08004E+01     7.0737E-01  1.8436E-02 -4.0109E+00  4.0729E+00
ac ID =   33377                 2.5071E-01  5.6695E+01  4.2828E-01  5.6698E+01
                               -4.0588E-01  1.7316E+01 -4.7296E+01  2.5147E+03

           1    1.09004E+01     7.0318E-01 -4.2016E-03 -4.2137E+00  4.2719E+00
ac ID =   33377                -9.0447E-01  5.8464E+01 -9.1903E-01  5.8478E+01
                               -4.0605E-01  1.7511E+01 -4.7239E+01  2.5147E+03

           1    1.10004E+01     7.2072E-01  4.5036E-02 -4.2594E+00  4.3202E+00
ac ID =   33377                -7.9312E-01  5.9622E+01 -1.2537E+00  5.9640E+01
                               -4.0632E-01  1.7707E+01 -4.7178E+01  2.5147E+03

           1    1.11004E+01     7.4749E-01 -1.1146E-02 -4.2097E+00  4.2756E+00
ac ID =   33377                -4.7057E-01  6.1092E+01  1.0610E+00  6.1103E+01
                               -4.0646E-01  1.7904E+01 -4.7114E+01  2.5147E+03

           1    1.12004E+01     6.9753E-01 -9.3309E-03 -4.2645E+00  4.3212E+00
ac ID =   33377                 4.9792E-02  6.1612E+01  5.7444E-01  6.1615E+01
                               -4.0655E-01  1.8101E+01 -4.7045E+01  2.5147E+03

           1    1.13004E+01     7.4483E-01  3.5593E-02 -4.2504E+00  4.3153E+00
ac ID =   33377                -7.2428E-01  6.3734E+01 -6.8104E-01  6.3742E+01
                               -4.0664E-01  1.8299E+01 -4.6972E+01  2.5147E+03

           1    1.14004E+01     7.3678E-01  2.7659E-02 -4.3329E+00  4.3952E+00
ac ID =   33377                -3.6694E-01  6.4918E+01 -5.3922E-01  6.4922E+01
                               -4.0664E-01  1.8497E+01 -4.6894E+01  2.5147E+03

           1    1.15003E+01     7.3826E-01 -2.1253E-02 -4.3398E+00  4.4022E+00
ac ID =   33377                -4.3363E-01  6.5553E+01 -1.5451E-01  6.5555E+01
                               -4.0645E-01  1.8695E+01 -4.6813E+01  2.5147E+03

           1    1.16003E+01     7.2347E-01 -4.0262E-02 -4.2459E+00  4.3073E+00
ac ID =   33377                 1.7411E-01  6.6683E+01  1.0693E+00  6.6692E+01
                               -4.0626E-01  1.8894E+01 -4.6727E+01  2.5147E+03

           1    1.17003E+01     7.2748E-01  3.9230E-02 -4.2846E+00  4.3461E+00
ac ID =   33377                -9.1535E-01  6.7816E+01  1.4806E+00  6.7838E+01
                               -4.0614E-01  1.9092E+01 -4.6637E+01  2.5147E+03

           1    1.18003E+01     6.7581E-01 -2.3657E-03 -4.2655E+00  4.3187E+00
ac ID =   33377                -1.5552E-02  6.7119E+01  6.8180E-01  6.7122E+01
                               -4.0592E-01  1.9290E+01 -4.6541E+01  2.5147E+03

           1    1.19003E+01     6.9137E-01 -3.4522E-02 -4.3109E+00  4.3661E+00
ac ID =   33377                 1.0489E+00  6.8630E+01 -7.2299E-02  6.8638E+01
                               -4.0576E-01  1.9487E+01 -4.6442E+01  2.5147E+03

           1    1.20003E+01     7.8001E-01 -7.8905E-03 -4.2371E+00  4.3083E+00
ac ID =   33377                -4.5701E-02  7.1246E+01 -1.1372E+00  7.1255E+01
                               -4.0554E-01  1.9684E+01 -4.6338E+01  2.5147E+03

           1    1.21003E+01     6.6533E-01  1.1705E-02 -4.1374E+00  4.1905E+00
ac ID =   33377                 2.2104E-01  7.0440E+01 -4.9902E-02  7.0440E+01
                               -4.0551E-01  1.9880E+01 -4.6229E+01  2.5147E+03

           1    1.22003E+01     7.1698E-01  3.1117E-04 -4.1682E+00  4.2294E+00
ac ID =   33377                 5.1234E-01  7.1532E+01  8.4745E-01  7.1539E+01
                               -4.0527E-01  2.0075E+01 -4.6116E+01  2.5147E+03

           1    1.23003E+01     7.5428E-01  1.2058E-03 -4.1695E+00  4.2372E+00
ac ID =   33377                -3.5876E-01  7.3632E+01  1.5846E+00  7.3650E+01
                               -4.0490E-01  2.0269E+01 -4.5998E+01  2.5147E+03

           1    1.24003E+01     7.3966E-01  1.2025E-02 -4.0293E+00  4.0966E+00
ac ID =   33377                 3.1172E-01  7.3918E+01  6.6873E-01  7.3921E+01
                               -4.0466E-01  2.0462E+01 -4.5876E+01  2.5147E+03

           1    1.25002E+01     6.9351E-01 -9.8212E-03 -4.0396E+00  4.0987E+00
ac ID =   33377                -1.1024E+00  7.4162E+01 -3.3307E-01  7.4171E+01
                               -4.0427E-01  2.0655E+01 -4.5750E+01  2.5147E+03

           1    1.26002E+01     7.5922E-01  2.6694E-03 -4.0322E+00  4.1031E+00
ac ID =   33377                -6.5247E-02  7.6079E+01 -4.7611E-01  7.6080E+01
                               -4.0394E-01  2.0846E+01 -4.5620E+01  2.5147E+03

           1    1.27002E+01     7.7164E-01 -1.9041E-04 -3.9925E+00  4.0664E+00
ac ID =   33377                 6.3641E-02  7.7251E+01  2.5840E-01  7.7252E+01
                               -4.0350E-01  2.1036E+01 -4.5485E+01  2.5147E+03

           1    1.28002E+01     7.3227E-01  1.7672E-02 -3.9572E+00  4.0244E+00
ac ID =   33377                 1.4231E-01  7.8521E+01  2.6864E-01  7.8522E+01
                               -4.0296E-01  2.1225E+01 -4.5347E+01  2.5147E+03

           1    1.29002E+01     7.3218E-01 -1.4379E-02 -3.7871E+00  3.8572E+00
ac ID =   33377                 2.7487E-01  7.8933E+01 -5.5410E-02  7.8933E+01
                               -4.0240E-01  2.1414E+01 -4.5205E+01  2.5147E+03

           1    1.30002E+01     7.6676E-01  1.0633E-02 -3.8047E+00  3.8812E+00
ac ID =   33377                -1.9616E-01  7.9818E+01 -1.1480E+00  7.9827E+01
                               -4.0171E-01  2.1601E+01 -4.5059E+01  2.5147E+03

           1    1.31002E+01     7.3281E-01  1.0505E-02 -3.7516E+00  3.8225E+00
ac ID =   33377                -1.0205E-01  7.9065E+01 -4.9738E-01  7.9067E+01
                               -4.0093E-01  2.1787E+01 -4.4909E+01  2.5147E+03

           1    1.32002E+01     7.2753E-01 -1.7992E-02 -3.5995E+00  3.6723E+00
ac ID =   33377                -6.6852E-02  7.9660E+01  5.3099E-01  7.9662E+01
                               -4.0021E-01  2.1971E+01 -4.4756E+01  2.5147E+03

           1    1.33002E+01     7.5173E-01  5.1791E-02 -3.5384E+00  3.6178E+00
ac ID =   33377                -1.3725E+00  8.0703E+01 -8.3222E-02  8.0715E+01
                               -3.9950E-01  2.2155E+01 -4.4599E+01  2.5147E+03

           1    1.34002E+01     7.1867E-01 -6.6211E-03 -3.4851E+00  3.5585E+00
ac ID =   33377                -3.5558E-01  8.0769E+01 -3.0861E-01  8.0771E+01
                               -3.9843E-01  2.2338E+01 -4.4439E+01  2.5147E+03

           1    1.35001E+01     7.4819E-01 -1.1476E-03 -3.4011E+00  3.4825E+00
ac ID =   33377                -3.7592E-02  8.1149E+01 -1.5779E-01  8.1149E+01
                               -3.9771E-01  2.2520E+01 -4.4276E+01  2.5147E+03

           1    1.36001E+01     7.4560E-01 -1.9733E-02 -3.2446E+00  3.3292E+00
ac ID =   33377                -2.3339E-01  8.0671E+01  9.6762E-01  8.0677E+01
                               -3.9695E-01  2.2701E+01 -4.4110E+01  2.5147E+03

           1    1.37001E+01     7.1303E-01  1.4136E-02 -3.1202E+00  3.2006E+00
ac ID =   33377                 8.8912E-02  8.0470E+01  5.5015E-01  8.0472E+01
                               -3.9617E-01  2.2880E+01 -4.3940E+01  2.5147E+03

           1    1.38001E+01     7.3380E-01 -2.4947E-02 -3.1047E+00  3.1903E+00
ac ID =   33377                 6.4311E-01  8.1953E+01 -4.6175E-01  8.1957E+01
                               -3.9522E-01  2.3059E+01 -4.3769E+01  2.5147E+03

           1    1.39001E+01     7.2711E-01  4.0021E-03 -2.9950E+00  3.0820E+00
ac ID =   33377                 2.9453E-02  8.1447E+01 -6.0558E-01  8.1449E+01
                               -3.9451E-01  2.3237E+01 -4.3595E+01  2.5147E+03

           1    1.40001E+01     6.8332E-01  1.3165E-02 -2.8529E+00  2.9336E+00
ac ID =   33377                -1.1082E+00  7.9882E+01 -3.7041E-01  7.9890E+01
                               -3.9372E-01  2.3415E+01 -4.3419E+01  2.5147E+03

           1    1.41001E+01     7.2896E-01 -1.8586E-02 -2.7876E+00  2.8814E+00
ac ID =   33377                -3.7893E-01  8.0550E+01 -9.6554E-02  8.0551E+01
                               -3.9286E-01  2.3591E+01 -4.3240E+01  2.5147E+03

           1    1.42001E+01     7.2515E-01  2.0788E-02 -2.6083E+00  2.7073E+00
ac ID =   33377                -1.0511E-01  8.0656E+01  2.7243E-01  8.0657E+01
                               -3.9234E-01  2.3767E+01 -4.3060E+01  2.5147E+03

           1    1.43001E+01     6.8409E-01  4.5133E-02 -2.5383E+00  2.6293E+00
ac ID =   33377                -1.4984E+00  7.9817E+01  1.1483E+00  7.9839E+01
                               -3.9163E-01  2.3942E+01 -4.2878E+01  2.5147E+03

           1    1.44001E+01     6.8614E-01 -1.3841E-02 -2.4597E+00  2.5536E+00
ac ID =   33377                -6.1887E-01  7.9921E+01 -1.3207E-01  7.9923E+01
                               -3.9087E-01  2.4117E+01 -4.2695E+01  2.5147E+03

           1    1.45000E+01     7.3799E-01 -5.1208E-02 -2.3209E+00  2.4359E+00
ac ID =   33377                 1.0563E+00  8.0037E+01 -1.4666E+00  8.0058E+01
                               -3.9030E-01  2.4291E+01 -4.2510E+01  2.5147E+03

           1    1.46000E+01     6.8980E-01  6.5436E-02 -2.2836E+00  2.3864E+00
ac ID =   33377                -1.1609E+00  7.7945E+01 -4.1510E-01  7.7955E+01
                               -3.8979E-01  2.4465E+01 -4.2324E+01  2.5147E+03

           1    1.47000E+01     6.2578E-01 -1.6474E-02 -2.1160E+00  2.2066E+00
ac ID =   33377                -4.5296E-02  7.6521E+01  6.7593E-01  7.6524E+01
                               -3.8915E-01  2.4638E+01 -4.2137E+01  2.5147E+03

           1    1.48005E+01     6.8505E-01 -3.1132E-03 -1.8905E+00  2.0108E+00
ac ID =   33377                 1.0979E+00  7.6884E+01  3.8715E-01  7.6892E+01
                               -3.8854E-01  2.4811E+01 -4.1948E+01  2.5147E+03

           1    1.49005E+01     6.3995E-01 -2.9794E-02 -1.8237E+00  1.9330E+00
ac ID =   33377                -6.8591E-01  7.5784E+01 -4.9202E-01  7.5788E+01
                               -3.8776E-01  2.4983E+01 -4.1759E+01  2.5147E+03

           1    1.50005E+01     6.3038E-01  4.4058E-02 -1.7539E+00  1.8643E+00
ac ID =   33377                -6.7381E-01  7.6379E+01 -1.0109E+00  7.6388E+01
                               -3.8746E-01  2.5155E+01 -4.1569E+01  2.5147E+03

           1    1.51005E+01     6.4271E-01  6.8866E-03 -1.6480E+00  1.7689E+00
ac ID =   33377                -4.7786E-01  7.6724E+01 -1.6981E-01  7.6725E+01
                               -3.8696E-01  2.5327E+01 -4.1380E+01  2.5147E+03

           1    1.52005E+01     6.7091E-01 -5.3038E-05 -1.5433E+00  1.6828E+00
ac ID =   33377                 1.9147E-01  7.6748E+01  2.6500E-01  7.6749E+01
                               -3.8640E-01  2.5498E+01 -4.1190E+01  2.5147E+03

           1    1.53005E+01     6.5759E-01  2.3823E-02 -1.4028E+00  1.5495E+00
ac ID =   33377                -1.8299E+00  7.5758E+01 -2.2047E-01  7.5780E+01
                               -3.8596E-01  2.5669E+01 -4.1001E+01  2.5147E+03

           1    1.54005E+01     6.4763E-01  4.7216E-03 -1.3588E+00  1.5052E+00
ac ID =   33377                -6.9373E-02  7.5489E+01 -8.4384E-01  7.5494E+01
                               -3.8560E-01  2.5841E+01 -4.0812E+01  2.5147E+03

           1    1.55004E+01     6.7362E-01 -3.4661E-02 -1.2595E+00  1.4287E+00
ac ID =   33377                 5.3687E-01  7.5869E+01 -1.0629E+00  7.5879E+01
                               -3.8508E-01  2.6012E+01 -4.0624E+01  2.5147E+03

           1    1.56004E+01     6.1506E-01  3.7531E-02 -1.0691E+00  1.2340E+00
ac ID =   33377                -8.5372E-01  7.4031E+01  1.7466E-01  7.4036E+01
                               -3.8455E-01  2.6184E+01 -4.0436E+01  2.5147E+03

           1    1.57004E+01     6.7317E-01  2.0777E-02 -1.0326E+00  1.2328E+00
ac ID =   33377                -4.2983E-01  7.4504E+01  1.6677E-02  7.4505E+01
                               -3.8383E-01  2.6356E+01 -4.0249E+01  2.5147E+03

           1    1.58004E+01     6.9899E-01 -8.8996E-02 -9.3372E-01  1.1698E+00
ac ID =   33377                 1.3127E+00  7.3434E+01 -1.0739E+00  7.3454E+01
                               -3.8322E-01  2.6528E+01 -4.0064E+01  2.5147E+03

           1    1.59004E+01     6.2845E-01  7.1691E-02 -7.7439E-01  9.9989E-01
ac ID =   33377                -8.8083E-01  7.2070E+01 -9.1200E-01  7.2081E+01
                               -3.8291E-01  2.6701E+01 -3.9879E+01  2.5147E+03

           1    1.60004E+01     6.1727E-01  1.6953E-03 -6.9370E-01  9.2857E-01
ac ID =   33377                -1.0663E+00  7.1979E+01 -4.3507E-01  7.1988E+01
                               -3.8223E-01  2.6874E+01 -3.9696E+01  2.5147E+03

           1    1.61004E+01     6.5501E-01 -2.2737E-02 -5.3572E-01  8.4649E-01
ac ID =   33377                 6.8417E-01  7.1533E+01  9.5429E-01  7.1542E+01
                               -3.8170E-01  2.7047E+01 -3.9514E+01  2.5147E+03

           1    1.62004E+01     6.3691E-01 -3.2787E-02 -5.1751E-01  8.2131E-01
ac ID =   33377                 3.8039E-01  7.0782E+01  1.3428E+00  7.0796E+01
                               -3.8127E-01  2.7221E+01 -3.9334E+01  2.5147E+03

           1    1.63004E+01     6.1993E-01  6.3040E-02 -3.8741E-01  7.3374E-01
ac ID =   33377                -1.1780E+00  7.0524E+01 -9.3715E-01  7.0540E+01
                               -3.8110E-01  2.7395E+01 -3.9156E+01  2.5147E+03

           1    1.64004E+01     6.2418E-01 -2.3798E-02 -2.6882E-01  6.8002E-01
ac ID =   33377                 6.6611E-01  6.9924E+01 -1.0657E+00  6.9936E+01
                               -3.8067E-01  2.7569E+01 -3.8979E+01  2.5147E+03

           1    1.65003E+01     6.2694E-01 -5.6324E-02 -2.4230E-01  6.7449E-01
ac ID =   33377                 1.1807E+00  7.0206E+01  2.8792E-01  7.0216E+01
                               -3.8031E-01  2.7744E+01 -3.8804E+01  2.5147E+03

           1    1.66003E+01     6.6638E-01  3.4308E-02 -7.1480E-02  6.7108E-01
ac ID =   33377                -4.9272E-02  7.0572E+01 -4.1265E-01  7.0573E+01
                               -3.8032E-01  2.7919E+01 -3.8632E+01  2.5147E+03

           1    1.67003E+01     5.8366E-01  1.1484E-02 -7.1046E-04  5.8378E-01
ac ID =   33377                -4.6353E-01  6.8913E+01  1.5729E-01  6.8914E+01
                               -3.8011E-01  2.8094E+01 -3.8461E+01  2.5147E+03

           1    1.68003E+01     6.5394E-01 -1.8572E-02  5.4237E-02  6.5645E-01
ac ID =   33377                 6.3850E-01  7.0267E+01 -1.2318E+00  7.0280E+01
                               -3.8014E-01  2.8270E+01 -3.8294E+01  2.5147E+03

           1    1.69003E+01     5.9227E-01 -1.1931E-03  1.6493E-01  6.1481E-01
ac ID =   33377                -2.9979E-01  6.8718E+01 -4.4092E-03  6.8719E+01
                               -3.7995E-01  2.8446E+01 -3.8129E+01  2.5147E+03

           1    1.70003E+01     6.3457E-01 -2.4972E-03  1.7512E-01  6.5829E-01
ac ID =   33377                -5.5943E-01  6.9133E+01  8.9507E-01  6.9141E+01
                               -3.7994E-01  2.8622E+01 -3.7967E+01  2.5147E+03

           1    1.71003E+01     6.0473E-01  8.2623E-03  2.8927E-01  6.7040E-01
ac ID =   33377                 5.6794E-01  6.7629E+01  3.0033E-02  6.7632E+01
                               -3.8020E-01  2.8798E+01 -3.7807E+01  2.5147E+03

           1    1.72003E+01     6.6188E-01 -1.7113E-02  3.1193E-01  7.3190E-01
ac ID =   33377                -1.6526E-01  6.9283E+01 -2.3623E-01  6.9284E+01
                               -3.8005E-01  2.8975E+01 -3.7651E+01  2.5147E+03

           1    1.73003E+01     6.1484E-01 -2.3370E-02  3.7105E-01  7.1850E-01
ac ID =   33377                 7.1190E-01  6.8347E+01 -6.7768E-01  6.8354E+01
                               -3.8018E-01  2.9152E+01 -3.7497E+01  2.5147E+03

           1    1.74003E+01     6.3599E-01  2.9573E-02  4.8603E-01  8.0099E-01
ac ID =   33377                -4.2083E-01  6.7940E+01  3.4902E-01  6.7942E+01
                               -3.8034E-01  2.9329E+01 -3.7348E+01  2.5147E+03

           1    1.75002E+01     6.2120E-01 -3.0234E-02  5.4684E-01  8.2815E-01
ac ID =   33377                 1.0084E+00  6.6508E+01 -5.4584E-01  6.6518E+01
                               -3.8045E-01  2.9506E+01 -3.7201E+01  2.5147E+03

           1    1.76002E+01     5.8024E-01  3.0015E-02  6.1097E-01  8.4313E-01
ac ID =   33377                -4.9569E-01  6.5484E+01 -1.2141E-01  6.5486E+01
                               -3.8049E-01  2.9684E+01 -3.7057E+01  2.5147E+03

           1    1.77002E+01     5.9707E-01 -1.4129E-02  6.0276E-01  8.4853E-01
ac ID =   33377                -3.5600E-01  6.4092E+01 -9.7459E-02  6.4093E+01
                               -3.8060E-01  2.9860E+01 -3.6916E+01  2.5147E+03

           1    1.78002E+01     6.1330E-01 -1.2632E-02  6.4175E-01  8.8777E-01
ac ID =   33377                 4.0229E-01  6.4805E+01  2.3170E-01  6.4807E+01
                               -3.8086E-01  3.0038E+01 -3.6780E+01  2.5147E+03

           1    1.79002E+01     5.9013E-01  1.6147E-03  7.9983E-01  9.9397E-01
ac ID =   33377                -7.1161E-01  6.4560E+01  9.6765E-01  6.4571E+01
                               -3.8098E-01  3.0215E+01 -3.6646E+01  2.5147E+03

           1    1.80002E+01     5.7576E-01  1.5322E-02  8.0828E-01  9.9250E-01
ac ID =   33377                 6.7675E-02  6.3533E+01 -6.5212E-01  6.3536E+01
                               -3.8135E-01  3.0392E+01 -3.6516E+01  2.5147E+03

           1    1.81002E+01     6.4071E-01 -3.8557E-02  7.7755E-01  1.0083E+00
ac ID =   33377                 5.2712E-01  6.3974E+01 -1.2619E+00  6.3989E+01
                               -3.8167E-01  3.0569E+01 -3.6390E+01  2.5147E+03

           1    1.82002E+01     5.8577E-01  1.2732E-02  8.4846E-01  1.0311E+00
ac ID =   33377                 1.9576E-01  6.2929E+01 -1.4660E-01  6.2930E+01
                               -3.8205E-01  3.0746E+01 -3.6267E+01  2.5147E+03

           1    1.83002E+01     5.4604E-01 -1.5789E-02  9.2647E-01  1.0755E+00
ac ID =   33377                 7.4474E-01  6.1252E+01  3.4215E-01  6.1258E+01
                               -3.8247E-01  3.0923E+01 -3.6148E+01  2.5147E+03

           1    1.84002E+01     5.3887E-01  1.9951E-02  9.6555E-01  1.1059E+00
ac ID =   33377                -2.7659E-01  5.9837E+01  8.9897E-01  5.9844E+01
                               -3.8290E-01  3.1099E+01 -3.6032E+01  2.5147E+03

           1    1.85001E+01     5.8126E-01 -5.0820E-02  9.4402E-01  1.1098E+00
ac ID =   33377                 8.7590E-01  5.9862E+01 -4.7140E-01  5.9870E+01
                               -3.8334E-01  3.1275E+01 -3.5920E+01  2.5147E+03

           1    1.86001E+01     5.0461E-01  5.2909E-02  9.6505E-01  1.0903E+00
ac ID =   33377                -8.9199E-01  5.7553E+01 -1.4859E+00  5.7579E+01
                               -3.8412E-01  3.1451E+01 -3.5811E+01  2.5147E+03

           1    1.87001E+01     4.9516E-01 -1.0526E-02  1.0150E+00  1.1294E+00
ac ID =   33377                -8.2141E-01  5.6033E+01  4.8081E-02  5.6039E+01
                               -3.8448E-01  3.1626E+01 -3.5706E+01  2.5147E+03

           1    1.88001E+01     5.3072E-01 -3.5352E-02  1.0886E+00  1.2116E+00
ac ID =   33377                 9.8363E-01  5.6740E+01 -3.1522E-01  5.6750E+01
                               -3.8531E-01  3.1801E+01 -3.5606E+01  2.5147E+03

           1    1.89001E+01     5.3238E-01  4.7858E-02  1.0592E+00  1.1865E+00
ac ID =   33377                -8.7293E-01  5.5111E+01  5.3784E-02  5.5118E+01
                               -3.8609E-01  3.1976E+01 -3.5508E+01  2.5147E+03

           1    1.90001E+01     4.3458E-01 -2.1597E-02  1.0258E+00  1.1142E+00
ac ID =   33377                -9.5011E-02  5.3488E+01 -1.6307E-01  5.3489E+01
                               -3.8678E-01  3.2150E+01 -3.5414E+01  2.5147E+03

           1    1.91001E+01     5.0929E-01 -3.8559E-02  1.0119E+00  1.1335E+00
ac ID =   33377                 1.6370E+00  5.1914E+01 -1.0795E+00  5.1951E+01
                               -3.8776E-01  3.2324E+01 -3.5324E+01  2.5147E+03

           1    1.92001E+01     4.7960E-01  2.2989E-02  1.1086E+00  1.2081E+00
ac ID =   33377                -6.0134E-01  5.0347E+01 -7.7796E-02  5.0351E+01
                               -3.8868E-01  3.2498E+01 -3.5237E+01  2.5147E+03

           1    1.93001E+01     4.6118E-01 -9.5880E-03  1.0751E+00  1.1699E+00
ac ID =   33377                 5.0196E-01  5.0347E+01 -2.4832E-01  5.0350E+01
                               -3.8958E-01  3.2671E+01 -3.5154E+01  2.5147E+03

           1    1.94001E+01     4.7971E-01 -3.8201E-02  1.0290E+00  1.1360E+00
ac ID =   33377                 1.4480E-03  5.0355E+01  3.7204E-02  5.0355E+01
                               -3.9055E-01  3.2844E+01 -3.5075E+01  2.5147E+03

           1    1.95000E+01     4.5786E-01  4.3565E-02  9.5491E-01  1.0599E+00
ac ID =   33377                -1.6670E+00  4.9927E+01 -8.6070E-02  4.9955E+01
                               -3.9182E-01  3.3016E+01 -3.4999E+01  2.5147E+03

           1    1.96000E+01     4.2098E-01  2.8713E-03  1.0168E+00  1.1005E+00
ac ID =   33377                -1.2561E+00  4.9128E+01 -3.5750E-01  4.9146E+01
                               -3.9302E-01  3.3189E+01 -3.4927E+01  2.5147E+03

           1    1.97005E+01     4.3464E-01  8.6178E-03  1.0695E+00  1.1545E+00
ac ID =   33377                -1.7877E-01  4.7931E+01  1.3058E-01  4.7931E+01
                               -3.9423E-01  3.3361E+01 -3.4857E+01  2.5147E+03

           1    1.98005E+01     4.5808E-01 -2.8695E-02  9.9534E-01  1.0961E+00
ac ID =   33377                 4.4810E-01  4.7417E+01 -4.1786E-01  4.7421E+01
                               -3.9562E-01  3.3532E+01 -3.4792E+01  2.5147E+03

           1    1.99005E+01     4.0923E-01  3.0782E-02  9.5923E-01  1.0433E+00
ac ID =   33377                -2.5236E-01  4.5330E+01 -7.7661E-01  4.5338E+01
                               -3.9719E-01  3.3702E+01 -3.4729E+01  2.5147E+03

           1    2.00005E+01     4.2580E-01 -1.8779E-02  9.9537E-01  1.0828E+00
ac ID =   33377                 9.1011E-01  4.3723E+01 -3.7819E-01  4.3734E+01
                               -3.9858E-01  3.3872E+01 -3.4670E+01  2.5147E+03

           1    2.01005E+01     4.0834E-01 -4.2392E-02  1.0461E+00  1.1238E+00
ac ID =   33377                 1.7536E+00  4.2739E+01  3.4082E-01  4.2776E+01
                               -3.9995E-01  3.4041E+01 -3.4614E+01  2.5147E+03

           1    2.02005E+01     3.8461E-01  2.0400E-02  9.9657E-01  1.0684E+00
ac ID =   33377                 1.5057E-01  4.1282E+01  2.2749E-01  4.1283E+01
                               -4.0149E-01  3.4210E+01 -3.4561E+01  2.5147E+03

           1    2.03005E+01     3.8736E-01  1.0321E-02  9.3891E-01  1.0157E+00
ac ID =   33377                -4.1336E-01  4.0951E+01  1.5515E-01  4.0953E+01
                               -4.0301E-01  3.4378E+01 -3.4511E+01  2.5147E+03

           1    2.04005E+01     4.1464E-01 -2.5109E-02  9.2952E-01  1.0181E+00
ac ID =   33377                 1.1560E-01  4.0279E+01 -1.9426E-01  4.0280E+01
                               -4.0441E-01  3.4545E+01 -3.4463E+01  2.5147E+03

           1    2.05004E+01     3.3763E-01  7.1646E-03  9.7369E-01  1.0306E+00
ac ID =   33377                -7.4409E-01  3.8678E+01 -3.9764E-01  3.8687E+01
                               -4.0608E-01  3.4711E+01 -3.4419E+01  2.5147E+03

           1    2.06004E+01     3.6398E-01  2.2727E-02  9.3716E-01  1.0056E+00
ac ID =   33377                 2.7043E-02  3.8000E+01 -6.6375E-01  3.8006E+01
                               -4.0779E-01  3.4877E+01 -3.4377E+01  2.5147E+03

           1    2.07004E+01     3.6811E-01 -1.9032E-02  8.8875E-01  9.6215E-01
ac ID =   33377                 7.4766E-02  3.7004E+01 -8.8083E-02  3.7005E+01
                               -4.0926E-01  3.5041E+01 -3.4338E+01  2.5147E+03

           1    2.08004E+01     3.5817E-01 -4.3566E-02  8.1194E-01  8.8850E-01
ac ID =   33377                 2.5302E+00  3.6524E+01 -1.7982E-01  3.6612E+01
                               -4.1085E-01  3.5205E+01 -3.4302E+01  2.5147E+03

           1    2.09004E+01     3.4367E-01 -1.2257E-02  8.0653E-01  8.7678E-01
ac ID =   33377                 7.3064E-01  3.5715E+01  5.4539E-02  3.5722E+01
                               -4.1247E-01  3.5367E+01 -3.4268E+01  2.5147E+03

           1    2.10004E+01     3.5112E-01  1.9479E-02  8.3008E-01  9.0150E-01
ac ID =   33377                 6.2581E-01  3.4826E+01  5.4519E-02  3.4831E+01
                               -4.1405E-01  3.5528E+01 -3.4236E+01  2.5147E+03

           1    2.11004E+01     3.4051E-01 -2.2755E-02  7.8754E-01  8.5830E-01
ac ID =   33377                 1.0806E+00  3.3921E+01  3.9409E-01  3.3941E+01
                               -4.1536E-01  3.5688E+01 -3.4207E+01  2.5147E+03

           1    2.12004E+01     3.2651E-01 -2.6463E-02  6.8391E-01  7.5831E-01
ac ID =   33377                 7.0316E-01  3.3538E+01 -2.3371E-01  3.3546E+01
                               -4.1676E-01  3.5847E+01 -3.4180E+01  2.5147E+03

           1    2.13004E+01     3.4853E-01  4.7667E-02  6.6945E-01  7.5624E-01
ac ID =   33377                -1.2540E+00  3.2719E+01 -2.4415E-01  3.2744E+01
                               -4.1838E-01  3.6005E+01 -3.4154E+01  2.5147E+03

           1    2.14004E+01     2.9312E-01 -1.4346E-02  7.1397E-01  7.7193E-01
ac ID =   33377                 9.1599E-02  3.0752E+01 -4.7722E-01  3.0756E+01
                               -4.1981E-01  3.6161E+01 -3.4132E+01  2.5147E+03

           1    2.15003E+01     3.0039E-01 -6.9318E-03  6.4092E-01  7.0786E-01
ac ID =   33377                 5.3370E-01  2.9604E+01  1.1477E-01  2.9609E+01
                               -4.2138E-01  3.6316E+01 -3.4110E+01  2.5147E+03

           1    2.16003E+01     3.2684E-01  1.1955E-02  6.1086E-01  6.9291E-01
ac ID =   33377                 7.1202E-01  2.9248E+01 -3.0875E-02  2.9257E+01
                               -4.2304E-01  3.6469E+01 -3.4091E+01  2.5147E+03

           1    2.17003E+01     2.7392E-01 -6.9538E-03  5.4829E-01  6.1295E-01
ac ID =   33377                 8.5134E-01  2.7168E+01  4.4134E-03  2.7181E+01
                               -4.2455E-01  3.6621E+01 -3.4074E+01  2.5147E+03

           1    2.18003E+01     2.8531E-01 -3.9339E-02  5.2466E-01  5.9852E-01
ac ID =   33377                 1.5620E+00  2.6860E+01 -3.3970E-01  2.6908E+01
                               -4.2614E-01  3.6772E+01 -3.4058E+01  2.5147E+03

           1    2.19003E+01     3.3004E-01  5.6316E-04  5.2655E-01  6.2143E-01
ac ID =   33377                 8.9625E-01  2.6237E+01 -8.2625E-01  2.6265E+01
                               -4.2786E-01  3.6921E+01 -3.4044E+01  2.5147E+03

           1    2.20003E+01     2.7861E-01  3.5733E-02  4.7026E-01  5.4777E-01
ac ID =   33377                -2.6627E-01  2.4802E+01 -2.0072E-01  2.4805E+01
                               -4.2944E-01  3.7070E+01 -3.4032E+01  2.5147E+03

           1    2.21003E+01     2.9632E-01  4.7057E-04  3.7056E-01  4.7447E-01
ac ID =   33377                -1.5048E-01  2.3980E+01  4.5054E-01  2.3985E+01
                               -4.3092E-01  3.7216E+01 -3.4021E+01  2.5147E+03

           1    2.22003E+01     3.0595E-01 -2.3410E-02  3.6650E-01  4.7799E-01
ac ID =   33377                 2.0546E-01  2.3296E+01 -2.1934E-01  2.3298E+01
                               -4.3266E-01  3.7362E+01 -3.4012E+01  2.5147E+03

           1    2.23003E+01     2.7220E-01  4.4081E-02  3.4529E-01  4.4189E-01
ac ID =   33377                -8.1885E-01  2.1623E+01 -5.2800E-01  2.1645E+01
                               -4.3447E-01  3.7507E+01 -3.4004E+01  2.5147E+03

           1    2.24003E+01     2.6742E-01 -3.6583E-03  3.0106E-01  4.0270E-01
ac ID =   33377                 3.3877E-01  2.0312E+01 -3.4073E-01  2.0317E+01
                               -4.3614E-01  3.7650E+01 -3.3998E+01  2.5147E+03

           1    2.25002E+01     2.8137E-01 -3.0881E-02  2.2565E-01  3.6200E-01
ac ID =   33377                 1.8265E+00  1.9718E+01 -5.8466E-02  1.9803E+01
                               -4.3790E-01  3.7792E+01 -3.3992E+01  2.5147E+03

           1    2.26002E+01     2.3959E-01  8.4052E-03  1.8320E-01  3.0172E-01
ac ID =   33377                 9.3295E-01  1.8079E+01  2.6556E-01  1.8105E+01
                               -4.3971E-01  3.7933E+01 -3.3988E+01  2.5147E+03

           1    2.27002E+01     2.6195E-01  3.5643E-03  1.6983E-01  3.1221E-01
ac ID =   33377                 8.8375E-01  1.7462E+01 -1.4126E-01  1.7485E+01
                               -4.4126E-01  3.8073E+01 -3.3984E+01  2.5147E+03

           1    2.28002E+01     2.9004E-01 -1.9665E-02  1.5133E-01  3.2774E-01
ac ID =   33377                 1.3531E+00  1.7288E+01 -9.0125E-04  1.7341E+01
                               -4.4280E-01  3.8211E+01 -3.3981E+01  2.5147E+03

           1    2.29002E+01     2.5356E-01 -1.9935E-02  9.0013E-02  2.6980E-01
ac ID =   33377                 1.2761E+00  1.6532E+01  2.6705E-01  1.6583E+01
                               -4.4436E-01  3.8348E+01 -3.3979E+01  2.5147E+03

           1    2.30002E+01     2.4301E-01  5.0200E-02  2.1284E-02  2.4905E-01
ac ID =   33377                -5.4875E-01  1.5245E+01  1.6443E-01  1.5256E+01
                               -4.4590E-01  3.8484E+01 -3.3976E+01  2.5147E+03

           1    2.31002E+01     2.6827E-01 -2.0839E-03  6.6967E-03  2.6836E-01
ac ID =   33377                 2.1870E-01  1.4497E+01 -5.2685E-01  1.4509E+01
                               -4.4728E-01  3.8619E+01 -3.3974E+01  2.5147E+03

           1    2.32002E+01     2.6350E-01 -2.9879E-02  9.4232E-03  2.6536E-01
ac ID =   33377                 1.6032E+00  1.3691E+01 -7.6582E-01  1.3806E+01
                               -4.4872E-01  3.8752E+01 -3.3973E+01  2.5147E+03

           1    2.33002E+01     2.1882E-01  1.4841E-03 -4.6555E-02  2.2372E-01
ac ID =   33377                 8.5281E-01  1.1908E+01 -2.8848E-01  1.1942E+01
                               -4.5022E-01  3.8884E+01 -3.3971E+01  2.5147E+03

           1    2.34002E+01     2.3730E-01  4.6797E-03 -1.1464E-01  2.6358E-01
ac ID =   33377                 1.5478E+00  1.1393E+01  1.9727E-01  1.1499E+01
                               -4.5172E-01  3.9015E+01 -3.3968E+01  2.5147E+03

           1    2.35001E+01     2.4718E-01 -3.6721E-02 -1.5420E-01  2.9364E-01
ac ID =   33377                 2.4516E+00  1.0973E+01  2.4281E-01  1.1247E+01
                               -4.5302E-01  3.9145E+01 -3.3966E+01  2.5147E+03

           1    2.36001E+01     2.2034E-01 -3.4771E-02 -1.5601E-01  2.7221E-01
ac ID =   33377                 2.3848E+00  9.3333E+00 -2.5979E-01  9.6367E+00
                               -4.5437E-01  3.9274E+01 -3.3964E+01  2.5147E+03

           1    2.37001E+01     2.2452E-01  6.4194E-03 -1.9585E-01  2.9800E-01
ac ID =   33377                 1.0300E+00  8.4433E+00 -2.8462E-01  8.5107E+00
                               -4.5569E-01  3.9401E+01 -3.3962E+01  2.5147E+03

           1    2.38001E+01     2.5186E-01 -1.8740E-02 -2.5103E-01  3.5609E-01
ac ID =   33377                 1.5778E+00  8.2968E+00 -2.1711E-01  8.4483E+00
                               -4.5685E-01  3.9527E+01 -3.3959E+01  2.5147E+03

           1    2.39001E+01     2.1359E-01 -1.4907E-02 -3.2495E-01  3.8915E-01
ac ID =   33377                 1.1330E+00  6.3773E+00 -3.0560E-01  6.4844E+00
                               -4.5807E-01  3.9653E+01 -3.3956E+01  2.5147E+03

           1    2.40001E+01     2.0874E-01  7.5174E-03 -3.0712E-01  3.7142E-01
ac ID =   33377                 3.2990E-01  4.7701E+00 -3.7838E-01  4.7964E+00
                               -4.5926E-01  3.9777E+01 -3.3953E+01  2.5147E+03

           1    2.41001E+01     2.1890E-01  3.4880E-03 -3.3192E-01  3.9762E-01
ac ID =   33377                 1.0282E+00  4.2962E+00  9.3555E-02  4.4185E+00
                               -4.6042E-01  3.9899E+01 -3.3949E+01  2.5147E+03

           1    2.42001E+01     2.0032E-01 -2.9150E-02 -3.8201E-01  4.3233E-01
ac ID =   33377                 1.8870E+00  3.2538E+00  3.5450E-01  3.7780E+00
                               -4.6155E-01  4.0021E+01 -3.3945E+01  2.5147E+03

           1    2.43001E+01     1.9945E-01 -3.7397E-03 -4.1062E-01  4.5651E-01
ac ID =   33377                 1.6761E+00  2.5926E+00  4.8893E-01  3.1257E+00
                               -4.6263E-01  4.0142E+01 -3.3940E+01  2.5147E+03

           1    2.44001E+01     1.9889E-01 -6.5171E-03 -4.3165E-01  4.7531E-01
ac ID =   33377                 1.7413E+00  1.9611E+00  1.5267E-01  2.6270E+00
                               -4.6361E-01  4.0261E+01 -3.3935E+01  2.5147E+03

           1    2.45005E+01     2.2529E-01 -1.8679E-02 -4.3856E-01  4.9339E-01
ac ID =   33377                 2.1865E+00  1.4462E+00 -4.5452E-01  2.6606E+00
                               -4.6448E-01  4.0380E+01 -3.3929E+01  2.5147E+03

           1    2.46005E+01     1.7747E-01 -1.2096E-02 -4.5918E-01  4.9243E-01
ac ID =   33377                 1.5605E+00 -1.4799E-01 -7.3823E-01  1.7326E+00
                               -4.6528E-01  4.0498E+01 -3.3922E+01  2.5147E+03

           1    2.47005E+01     1.8441E-01  1.0105E-02 -5.0067E-01  5.3365E-01
ac ID =   33377                 6.7359E-01 -6.5519E-01 -8.4121E-01  1.2612E+00
                               -4.6605E-01  4.0614E+01 -3.3914E+01  2.5147E+03

           1    2.48005E+01     2.1571E-01 -8.2021E-03 -5.1718E-01  5.6042E-01
ac ID =   33377                 8.1913E-01 -1.3231E+00 -1.9095E-01  1.5678E+00
                               -4.6675E-01  4.0729E+01 -3.3905E+01  2.5147E+03

           1    2.49005E+01     1.8331E-01 -3.7704E-03 -5.3248E-01  5.6317E-01
ac ID =   33377                 7.1942E-01 -2.3781E+00 -2.2840E-01  2.4950E+00
                               -4.6745E-01  4.0843E+01 -3.3895E+01  2.5147E+03

