 LSTC 50th% Full_FE H-III Dummy (Beta Version, February 17, 2019)        
                    ls-dyna smp s R16 R16.0_619_d222963 date 03/18/2025

{BEGIN LEGEND}
 Entity #        Title
    22626                                                                                     
{END LEGEND}




 n o d a l   p r i n t   o u t   f o r   t i m e  s t e p       1                              ( at time 0.0000000E+00 )

 nodal point  x-disp     y-disp      z-disp      x-vel       y-vel       z-vel      x-accl      y-accl      z-accl      x-coor      y-coor      z-coor
    22626  0.00000E+00 0.00000E+00 0.00000E+00 0.00000E+00 0.00000E+00 0.00000E+00 0.00000E+00 0.00000E+00 0.00000E+00 4.65938E+00-2.81908E+01-4.49817E+01



 n o d a l   p r i n t   o u t   f o r   t i m e  s t e p       1                              ( at time 0.0000000E+00 )

 nodal point  x-rot      y-rot       z-rot       x-rot vel   y-rot vel   z-rot vel   x-rot acc   y-rot acc   z-rot acc
    22626  0.00000E+00 0.00000E+00 0.00000E+00 0.00000E+00 0.00000E+00 0.00000E+00 0.00000E+00 0.00000E+00 0.00000E+00



 n o d a l   p r i n t   o u t   f o r   t i m e  s t e p     201                              ( at time 9.9989993E-02 )

 nodal point  x-disp     y-disp      z-disp      x-vel       y-vel       z-vel      x-accl      y-accl      z-accl      x-coor      y-coor      z-coor
    22626  2.73585E-07 1.73664E-06-5.34276E-05 4.19765E-05 2.55585E-04-1.46815E-03 4.19807E-04 2.55610E-03-1.46830E-02 4.65938E+00-2.81908E+01-4.49818E+01



 n o d a l   p r i n t   o u t   f o r   t i m e  s t e p     201                              ( at time 9.9989993E-02 )

 nodal point  x-rot      y-rot       z-rot       x-rot vel   y-rot vel   z-rot vel   x-rot acc   y-rot acc   z-rot acc
    22626 -5.98899E-08-8.38532E-09-5.45973E-09-5.86836E-06-9.70030E-07-9.27185E-07-5.86894E-05-9.70127E-06-9.27278E-06



 n o d a l   p r i n t   o u t   f o r   t i m e  s t e p     401                              ( at time 1.9997999E-01 )

 nodal point  x-disp     y-disp      z-disp      x-vel       y-vel       z-vel      x-accl      y-accl      z-accl      x-coor      y-coor      z-coor
    22626  1.73079E-05 3.61742E-04-6.67589E-04 3.01100E-05 7.81107E-03-1.21552E-02-1.18676E-04 7.55624E-02-1.06881E-01 4.65939E+00-2.81905E+01-4.49824E+01



 n o d a l   p r i n t   o u t   f o r   t i m e  s t e p     401                              ( at time 1.9997999E-01 )

 nodal point  x-rot      y-rot       z-rot       x-rot vel   y-rot vel   z-rot vel   x-rot acc   y-rot acc   z-rot acc
    22626 -2.82004E-06-3.37124E-07-3.34535E-07-3.94592E-05-1.75672E-06-2.28895E-06-3.35942E-04-7.86767E-06-1.36190E-05



 n o d a l   p r i n t   o u t   f o r   t i m e  s t e p     601                              ( at time 2.9996998E-01 )

 nodal point  x-disp     y-disp      z-disp      x-vel       y-vel       z-vel      x-accl      y-accl      z-accl      x-coor      y-coor      z-coor
    22626  2.73869E-05 1.24010E-03-2.33843E-03 4.23730E-04 8.45080E-03-1.92541E-02 3.93660E-03 6.39795E-03-7.09957E-02 4.65940E+00-2.81896E+01-4.49841E+01



 n o d a l   p r i n t   o u t   f o r   t i m e  s t e p     601                              ( at time 2.9996998E-01 )

 nodal point  x-rot      y-rot       z-rot       x-rot vel   y-rot vel   z-rot vel   x-rot acc   y-rot acc   z-rot acc
    22626 -5.38395E-06-3.90914E-07-6.42581E-07-1.54090E-05-5.49536E-06-6.65297E-06 2.40526E-04-3.73902E-05-4.36445E-05



 n o d a l   p r i n t   o u t   f o r   t i m e  s t e p     801                              ( at time 3.9995997E-01 )

 nodal point  x-disp     y-disp      z-disp      x-vel       y-vel       z-vel      x-accl      y-accl      z-accl      x-coor      y-coor      z-coor
    22626  2.60373E-05 2.16242E-03-4.28287E-03-3.15135E-04 1.07400E-02-2.10855E-02-7.38940E-03 2.28947E-02-1.83158E-02 4.65940E+00-2.81887E+01-4.49860E+01



 n o d a l   p r i n t   o u t   f o r   t i m e  s t e p     801                              ( at time 3.9995997E-01 )

 nodal point  x-rot      y-rot       z-rot       x-rot vel   y-rot vel   z-rot vel   x-rot acc   y-rot acc   z-rot acc
    22626 -7.61692E-06-1.25016E-06-9.81237E-07-4.48787E-05-6.19210E-06-1.44314E-06-2.94727E-04-6.96805E-06 5.21035E-05



 n o d a l   p r i n t   o u t   f o r   t i m e  s t e p    1001                              ( at time 4.9994997E-01 )

 nodal point  x-disp     y-disp      z-disp      x-vel       y-vel       z-vel      x-accl      y-accl      z-accl      x-coor      y-coor      z-coor
    22626  3.67695E-06 3.43654E-03-6.74478E-03-2.39855E-04 1.41516E-02-2.87087E-02 7.52878E-04 3.41186E-02-7.62404E-02 4.65938E+00-2.81874E+01-4.49885E+01



 n o d a l   p r i n t   o u t   f o r   t i m e  s t e p    1001                              ( at time 4.9994997E-01 )

 nodal point  x-rot      y-rot       z-rot       x-rot vel   y-rot vel   z-rot vel   x-rot acc   y-rot acc   z-rot acc
    22626 -1.35613E-05-1.16556E-06-9.49314E-07-8.42100E-05 3.24144E-06 4.09418E-06-3.93352E-04 9.43448E-05 5.53787E-05



 n o d a l   p r i n t   o u t   f o r   t i m e  s t e p    1201                              ( at time 5.9993996E-01 )

 nodal point  x-disp     y-disp      z-disp      x-vel       y-vel       z-vel      x-accl      y-accl      z-accl      x-coor      y-coor      z-coor
    22626 -8.67506E-07 5.01223E-03-9.71615E-03 4.44081E-05 1.67015E-02-3.09900E-02 2.84292E-03 2.55020E-02-2.28144E-02 4.65937E+00-2.81858E+01-4.49914E+01



 n o d a l   p r i n t   o u t   f o r   t i m e  s t e p    1201                              ( at time 5.9993996E-01 )

 nodal point  x-rot      y-rot       z-rot       x-rot vel   y-rot vel   z-rot vel   x-rot acc   y-rot acc   z-rot acc
    22626 -2.02862E-05-8.86898E-07-9.57835E-07-5.90157E-05 3.91628E-06-2.01482E-06 2.51968E-04 6.74907E-06-6.10961E-05



 n o d a l   p r i n t   o u t   f o r   t i m e  s t e p    1401                              ( at time 6.9992995E-01 )

 nodal point  x-disp     y-disp      z-disp      x-vel       y-vel       z-vel      x-accl      y-accl      z-accl      x-coor      y-coor      z-coor
    22626 -5.09989E-05 6.85041E-03-1.31710E-02-4.92359E-04 1.96593E-02-3.89650E-02-5.36820E-03 2.95808E-02-7.97582E-02 4.65932E+00-2.81840E+01-4.49949E+01



 n o d a l   p r i n t   o u t   f o r   t i m e  s t e p    1401                              ( at time 6.9992995E-01 )

 nodal point  x-rot      y-rot       z-rot       x-rot vel   y-rot vel   z-rot vel   x-rot acc   y-rot acc   z-rot acc
    22626 -2.62095E-05-9.00560E-07-6.32168E-07-7.08441E-05 3.31365E-07 3.88762E-06-1.18296E-04-3.58528E-05 5.90303E-05



 n o d a l   p r i n t   o u t   f o r   t i m e  s t e p    1601                              ( at time 7.9991994E-01 )

 nodal point  x-disp     y-disp      z-disp      x-vel       y-vel       z-vel      x-accl      y-accl      z-accl      x-coor      y-coor      z-coor
    22626 -8.02742E-05 8.98680E-03-1.74643E-02-4.96100E-04 2.21649E-02-4.51199E-02-3.74155E-05 2.50585E-02-6.15554E-02 4.65929E+00-2.81818E+01-4.49992E+01



 n o d a l   p r i n t   o u t   f o r   t i m e  s t e p    1601                              ( at time 7.9991994E-01 )

 nodal point  x-rot      y-rot       z-rot       x-rot vel   y-rot vel   z-rot vel   x-rot acc   y-rot acc   z-rot acc
    22626 -3.43993E-05-8.77411E-07-5.14682E-07-9.19565E-05-4.81670E-06 1.54183E-06-2.11146E-04-5.14858E-05-2.34603E-05



 n o d a l   p r i n t   o u t   f o r   t i m e  s t e p    1801                              ( at time 8.9990994E-01 )

 nodal point  x-disp     y-disp      z-disp      x-vel       y-vel       z-vel      x-accl      y-accl      z-accl      x-coor      y-coor      z-coor
    22626 -1.16851E-04 1.12542E-02-2.19906E-02-2.89171E-04 2.40456E-02-4.55876E-02 2.06950E-03 1.88092E-02-4.67750E-03 4.65926E+00-2.81796E+01-4.50037E+01



 n o d a l   p r i n t   o u t   f o r   t i m e  s t e p    1801                              ( at time 8.9990994E-01 )

 nodal point  x-rot      y-rot       z-rot       x-rot vel   y-rot vel   z-rot vel   x-rot acc   y-rot acc   z-rot acc
    22626 -4.28182E-05-9.58318E-07-5.01839E-07-8.24418E-05 1.88765E-06-7.62429E-07 9.51570E-05 6.70502E-05-2.30449E-05



 n o d a l   p r i n t   o u t   f o r   t i m e  s t e p    2001                              ( at time 9.9989993E-01 )

 nodal point  x-disp     y-disp      z-disp      x-vel       y-vel       z-vel      x-accl      y-accl      z-accl      x-coor      y-coor      z-coor
    22626 -1.52017E-04 1.37913E-02-2.67304E-02-3.30623E-05 2.65014E-02-5.00332E-02 2.56134E-03 2.45606E-02-4.44608E-02 4.65922E+00-2.81770E+01-4.50084E+01



 n o d a l   p r i n t   o u t   f o r   t i m e  s t e p    2001                              ( at time 9.9989993E-01 )

 nodal point  x-rot      y-rot       z-rot       x-rot vel   y-rot vel   z-rot vel   x-rot acc   y-rot acc   z-rot acc
    22626 -5.18502E-05-9.07994E-07-4.37943E-07-1.06141E-04 1.18571E-06-3.10003E-06-2.37016E-04-7.02005E-06-2.33783E-05



 n o d a l   p r i n t   o u t   f o r   t i m e  s t e p    2201                              ( at time 1.0998899E+00 )

 nodal point  x-disp     y-disp      z-disp      x-vel       y-vel       z-vel      x-accl      y-accl      z-accl      x-coor      y-coor      z-coor
    22626 -1.59774E-04 1.65322E-02-3.20558E-02-3.45761E-04 2.88851E-02-5.60789E-02-3.12730E-03 2.38386E-02-6.04624E-02 4.65922E+00-2.81743E+01-4.50138E+01



 n o d a l   p r i n t   o u t   f o r   t i m e  s t e p    2201                              ( at time 1.0998899E+00 )

 nodal point  x-rot      y-rot       z-rot       x-rot vel   y-rot vel   z-rot vel   x-rot acc   y-rot acc   z-rot acc
    22626 -6.29454E-05-1.00449E-06-7.49461E-07-1.03607E-04-7.55862E-06-2.06892E-06 2.53447E-05-8.74522E-05 1.03121E-05



 n o d a l   p r i n t   o u t   f o r   t i m e  s t e p    2401                              ( at time 1.1998799E+00 )

 nodal point  x-disp     y-disp      z-disp      x-vel       y-vel       z-vel      x-accl      y-accl      z-accl      x-coor      y-coor      z-coor
    22626 -1.89824E-04 1.94752E-02-3.79327E-02-1.97007E-04 3.02248E-02-6.12072E-02 1.48768E-03 1.33985E-02-5.12886E-02 4.65919E+00-2.81714E+01-4.50197E+01



 n o d a l   p r i n t   o u t   f o r   t i m e  s t e p    2401                              ( at time 1.1998799E+00 )

 nodal point  x-rot      y-rot       z-rot       x-rot vel   y-rot vel   z-rot vel   x-rot acc   y-rot acc   z-rot acc
    22626 -7.29518E-05-1.61473E-06-9.90331E-07-1.01182E-04-7.19736E-06-2.97688E-06 2.42504E-05 3.61298E-06-9.08050E-06



 n o d a l   p r i n t   o u t   f o r   t i m e  s t e p    2601                              ( at time 1.2998699E+00 )

 nodal point  x-disp     y-disp      z-disp      x-vel       y-vel       z-vel      x-accl      y-accl      z-accl      x-coor      y-coor      z-coor
    22626 -2.23816E-04 2.26249E-02-4.42079E-02-2.46359E-04 3.26006E-02-6.40511E-02-4.93562E-04 2.37609E-02-2.84422E-02 4.65915E+00-2.81682E+01-4.50259E+01



 n o d a l   p r i n t   o u t   f o r   t i m e  s t e p    2601                              ( at time 1.2998699E+00 )

 nodal point  x-rot      y-rot       z-rot       x-rot vel   y-rot vel   z-rot vel   x-rot acc   y-rot acc   z-rot acc
    22626 -8.39947E-05-2.17069E-06-1.24627E-06-1.29271E-04 2.34454E-08-1.46211E-06-2.80917E-04 7.22153E-05 1.51492E-05



 n o d a l   p r i n t   o u t   f o r   t i m e  s t e p    2801                              ( at time 1.3998599E+00 )

 nodal point  x-disp     y-disp      z-disp      x-vel       y-vel       z-vel      x-accl      y-accl      z-accl      x-coor      y-coor      z-coor
    22626 -2.51449E-04 2.59924E-02-5.07122E-02-4.49844E-04 3.45152E-02-6.66754E-02-2.03506E-03 1.91476E-02-2.62451E-02 4.65912E+00-2.81648E+01-4.50324E+01



 n o d a l   p r i n t   o u t   f o r   t i m e  s t e p    2801                              ( at time 1.3998599E+00 )

 nodal point  x-rot      y-rot       z-rot       x-rot vel   y-rot vel   z-rot vel   x-rot acc   y-rot acc   z-rot acc
    22626 -9.73976E-05-2.01190E-06-1.34575E-06-1.36954E-04-2.05035E-07 1.70914E-06-7.68347E-05-2.28504E-06 3.17157E-05



 n o d a l   p r i n t   o u t   f o r   t i m e  s t e p    3001                              ( at time 1.4998499E+00 )

 nodal point  x-disp     y-disp      z-disp      x-vel       y-vel       z-vel      x-accl      y-accl      z-accl      x-coor      y-coor      z-coor
    22626 -2.96311E-04 2.95912E-02-5.77243E-02-4.47787E-04 3.72831E-02-7.39885E-02 2.05726E-05 2.76821E-02-7.31386E-02 4.65908E+00-2.81612E+01-4.50394E+01



 n o d a l   p r i n t   o u t   f o r   t i m e  s t e p    3001                              ( at time 1.4998499E+00 )

 nodal point  x-rot      y-rot       z-rot       x-rot vel   y-rot vel   z-rot vel   x-rot acc   y-rot acc   z-rot acc
    22626 -1.10707E-04-2.03165E-06-1.27123E-06-1.28768E-04-9.96787E-07-1.67191E-06 8.18662E-05-7.91831E-06-3.38139E-05



 n o d a l   p r i n t   o u t   f o r   t i m e  s t e p    3201                              ( at time 1.5998399E+00 )

 nodal point  x-disp     y-disp      z-disp      x-vel       y-vel       z-vel      x-accl      y-accl      z-accl      x-coor      y-coor      z-coor
    22626 -3.60029E-04 3.34892E-02-6.54466E-02-5.85822E-04 4.05423E-02-7.97053E-02-1.38049E-03 3.25944E-02-5.71731E-02 4.65902E+00-2.81573E+01-4.50472E+01



 n o d a l   p r i n t   o u t   f o r   t i m e  s t e p    3201                              ( at time 1.5998399E+00 )

 nodal point  x-rot      y-rot       z-rot       x-rot vel   y-rot vel   z-rot vel   x-rot acc   y-rot acc   z-rot acc
    22626 -1.23310E-04-2.14801E-06-1.09881E-06-1.34742E-04-2.94600E-06 3.15156E-06-5.97510E-05-1.94941E-05 4.82396E-05



 n o d a l   p r i n t   o u t   f o r   t i m e  s t e p    3401                              ( at time 1.6998299E+00 )

 nodal point  x-disp     y-disp      z-disp      x-vel       y-vel       z-vel      x-accl      y-accl      z-accl      x-coor      y-coor      z-coor
    22626 -4.21678E-04 3.76418E-02-7.35826E-02-7.24804E-04 4.22388E-02-8.25958E-02-1.38996E-03 1.69669E-02-2.89086E-02 4.65895E+00-2.81532E+01-4.50553E+01



 n o d a l   p r i n t   o u t   f o r   t i m e  s t e p    3401                              ( at time 1.6998299E+00 )

 nodal point  x-rot      y-rot       z-rot       x-rot vel   y-rot vel   z-rot vel   x-rot acc   y-rot acc   z-rot acc
    22626 -1.37609E-04-2.15188E-06-9.09535E-07-1.47696E-04 1.59696E-06 3.85344E-06-1.29550E-04 4.54341E-05 7.01951E-06



 n o d a l   p r i n t   o u t   f o r   t i m e  s t e p    3601                              ( at time 1.7998199E+00 )

 nodal point  x-disp     y-disp      z-disp      x-vel       y-vel       z-vel      x-accl      y-accl      z-accl      x-coor      y-coor      z-coor
    22626 -4.84837E-04 4.19004E-02-8.19602E-02-5.11159E-04 4.32866E-02-8.48724E-02 2.13667E-03 1.04795E-02-2.27681E-02 4.65889E+00-2.81489E+01-4.50637E+01



 n o d a l   p r i n t   o u t   f o r   t i m e  s t e p    3601                              ( at time 1.7998199E+00 )

 nodal point  x-rot      y-rot       z-rot       x-rot vel   y-rot vel   z-rot vel   x-rot acc   y-rot acc   z-rot acc
    22626 -1.52821E-04-2.06326E-06-7.78066E-07-1.49592E-04 1.51554E-06-1.46844E-06-1.89580E-05-8.14294E-07-5.32242E-05



 n o d a l   p r i n t   o u t   f o r   t i m e  s t e p    3801                              ( at time 1.8998099E+00 )

 nodal point  x-disp     y-disp      z-disp      x-vel       y-vel       z-vel      x-accl      y-accl      z-accl      x-coor      y-coor      z-coor
    22626 -5.44098E-04 4.63778E-02-9.06362E-02-5.24523E-04 4.60830E-02-8.88726E-02-1.33656E-04 2.79669E-02-4.00059E-02 4.65883E+00-2.81445E+01-4.50724E+01



 n o d a l   p r i n t   o u t   f o r   t i m e  s t e p    3801                              ( at time 1.8998099E+00 )

 nodal point  x-rot      y-rot       z-rot       x-rot vel   y-rot vel   z-rot vel   x-rot acc   y-rot acc   z-rot acc
    22626 -1.67673E-04-1.85279E-06-6.48834E-07-1.49701E-04-1.49056E-06-4.21270E-07-1.09441E-06-3.00639E-05 1.04727E-05



 n o d a l   p r i n t   o u t   f o r   t i m e  s t e p    4001                              ( at time 1.9997999E+00 )

 nodal point  x-disp     y-disp      z-disp      x-vel       y-vel       z-vel      x-accl      y-accl      z-accl      x-coor      y-coor      z-coor
    22626 -5.94962E-04 5.10276E-02-9.97459E-02-5.43736E-04 4.71675E-02-9.31178E-02-1.92146E-04 1.08452E-02-4.24562E-02 4.65878E+00-2.81398E+01-4.50815E+01



 n o d a l   p r i n t   o u t   f o r   t i m e  s t e p    4001                              ( at time 1.9997999E+00 )

 nodal point  x-rot      y-rot       z-rot       x-rot vel   y-rot vel   z-rot vel   x-rot acc   y-rot acc   z-rot acc
    22626 -1.82762E-04-2.08722E-06-6.98111E-07-1.56182E-04-4.67656E-06-2.51004E-07-6.48133E-05-3.18632E-05 1.70283E-06



 n o d a l   p r i n t   o u t   f o r   t i m e  s t e p    4201                              ( at time 2.0997899E+00 )

 nodal point  x-disp     y-disp      z-disp      x-vel       y-vel       z-vel      x-accl      y-accl      z-accl      x-coor      y-coor      z-coor
    22626 -6.49082E-04 5.57841E-02-1.09163E-01-5.58825E-04 4.81920E-02-9.52986E-02-1.50913E-04 1.02464E-02-2.18104E-02 4.65873E+00-2.81350E+01-4.50909E+01



 n o d a l   p r i n t   o u t   f o r   t i m e  s t e p    4201                              ( at time 2.0997899E+00 )

 nodal point  x-rot      y-rot       z-rot       x-rot vel   y-rot vel   z-rot vel   x-rot acc   y-rot acc   z-rot acc
    22626 -1.97941E-04-2.47732E-06-8.61485E-07-1.49862E-04-1.55123E-06 2.06827E-06 6.32053E-05 3.12564E-05 2.31951E-05



 n o d a l   p r i n t   o u t   f o r   t i m e  s t e p    4401                              ( at time 2.1997798E+00 )

 nodal point  x-disp     y-disp      z-disp      x-vel       y-vel       z-vel      x-accl      y-accl      z-accl      x-coor      y-coor      z-coor
    22626 -7.07739E-04 6.06678E-02-1.18762E-01-4.98043E-04 4.91609E-02-9.67344E-02 6.07882E-04 9.69024E-03-1.43595E-02 4.65867E+00-2.81302E+01-4.51005E+01



 n o d a l   p r i n t   o u t   f o r   t i m e  s t e p    4401                              ( at time 2.1997798E+00 )

 nodal point  x-rot      y-rot       z-rot       x-rot vel   y-rot vel   z-rot vel   x-rot acc   y-rot acc   z-rot acc
    22626 -2.13312E-04-2.58477E-06-8.59820E-07-1.59286E-04-1.60938E-06-1.03373E-06-9.42482E-05-5.81507E-07-3.10231E-05



 n o d a l   p r i n t   o u t   f o r   t i m e  s t e p    4601                              ( at time 2.2997698E+00 )

 nodal point  x-disp     y-disp      z-disp      x-vel       y-vel       z-vel      x-accl      y-accl      z-accl      x-coor      y-coor      z-coor
    22626 -7.62830E-04 6.56150E-02-1.28511E-01-6.43855E-04 5.01843E-02-9.87428E-02-1.45826E-03 1.02352E-02-2.00858E-02 4.65861E+00-2.81252E+01-4.51102E+01



 n o d a l   p r i n t   o u t   f o r   t i m e  s t e p    4601                              ( at time 2.2997698E+00 )

 nodal point  x-rot      y-rot       z-rot       x-rot vel   y-rot vel   z-rot vel   x-rot acc   y-rot acc   z-rot acc
    22626 -2.29828E-04-2.51708E-06-8.68062E-07-1.61432E-04 8.43509E-07-9.31538E-07-2.14602E-05 2.45313E-05 1.02198E-06



 n o d a l   p r i n t   o u t   f o r   t i m e  s t e p    4801                              ( at time 2.3997598E+00 )

 nodal point  x-disp     y-disp      z-disp      x-vel       y-vel       z-vel      x-accl      y-accl      z-accl      x-coor      y-coor      z-coor
    22626 -8.37341E-04 7.07399E-02-1.38610E-01-7.69601E-04 5.20297E-02-1.03268E-01-1.25759E-03 1.84559E-02-4.52616E-02 4.65854E+00-2.81201E+01-4.51203E+01



 n o d a l   p r i n t   o u t   f o r   t i m e  s t e p    4801                              ( at time 2.3997598E+00 )

 nodal point  x-rot      y-rot       z-rot       x-rot vel   y-rot vel   z-rot vel   x-rot acc   y-rot acc   z-rot acc
    22626 -2.45579E-04-2.50841E-06-5.95559E-07-1.55566E-04-1.66902E-08 4.23431E-06 5.86574E-05-8.60286E-06 5.16637E-05



 n o d a l   p r i n t   o u t   f o r   t i m e  s t e p    5001                              ( at time 2.4997498E+00 )

 nodal point  x-disp     y-disp      z-disp      x-vel       y-vel       z-vel      x-accl      y-accl      z-accl      x-coor      y-coor      z-coor
    22626 -9.18481E-04 7.60411E-02-1.49108E-01-9.25065E-04 5.34333E-02-1.05958E-01-1.55479E-03 1.40368E-02-2.68955E-02 4.65846E+00-2.81148E+01-4.51308E+01



 n o d a l   p r i n t   o u t   f o r   t i m e  s t e p    5001                              ( at time 2.4997498E+00 )

 nodal point  x-rot      y-rot       z-rot       x-rot vel   y-rot vel   z-rot vel   x-rot acc   y-rot acc   z-rot acc
    22626 -2.61147E-04-2.38652E-06-3.33583E-07-1.54795E-04 1.71302E-06 4.36891E-06 7.71662E-06 1.72988E-05 1.34613E-06



 n o d a l   p r i n t   o u t   f o r   t i m e  s t e p    5201                              ( at time 2.5997398E+00 )

 nodal point  x-disp     y-disp      z-disp      x-vel       y-vel       z-vel      x-accl      y-accl      z-accl      x-coor      y-coor      z-coor
    22626 -1.00922E-03 8.13932E-02-1.59712E-01-9.90904E-04 5.34937E-02-1.06028E-01-6.58456E-04 6.04638E-04-7.00649E-04 4.65837E+00-2.81094E+01-4.51414E+01



 n o d a l   p r i n t   o u t   f o r   t i m e  s t e p    5201                              ( at time 2.5997398E+00 )

 nodal point  x-rot      y-rot       z-rot       x-rot vel   y-rot vel   z-rot vel   x-rot acc   y-rot acc   z-rot acc
    22626 -2.76654E-04-2.05722E-06 5.84272E-08-1.51530E-04 5.14896E-06 4.90881E-06 3.26526E-05 3.43629E-05 5.39953E-06



 n o d a l   p r i n t   o u t   f o r   t i m e  s t e p    5401                              ( at time 2.6997298E+00 )

 nodal point  x-disp     y-disp      z-disp      x-vel       y-vel       z-vel      x-accl      y-accl      z-accl      x-coor      y-coor      z-coor
    22626 -1.10741E-03 8.67294E-02-1.70316E-01-8.12413E-04 5.35711E-02-1.06231E-01 1.78509E-03 7.74043E-04-2.03533E-03 4.65827E+00-2.81041E+01-4.51520E+01



 n o d a l   p r i n t   o u t   f o r   t i m e  s t e p    5401                              ( at time 2.6997298E+00 )

 nodal point  x-rot      y-rot       z-rot       x-rot vel   y-rot vel   z-rot vel   x-rot acc   y-rot acc   z-rot acc
    22626 -2.92363E-04-1.61793E-06 5.84357E-07-1.63000E-04 5.40389E-06 3.59448E-06-1.14708E-04 2.54952E-06-1.31446E-05



 n o d a l   p r i n t   o u t   f o r   t i m e  s t e p    5601                              ( at time 2.7997198E+00 )

 nodal point  x-disp     y-disp      z-disp      x-vel       y-vel       z-vel      x-accl      y-accl      z-accl      x-coor      y-coor      z-coor
    22626 -1.19433E-03 9.21228E-02-1.80984E-01-8.82734E-04 5.42828E-02-1.07483E-01-7.03287E-04 7.11722E-03-1.25172E-02 4.65818E+00-2.80987E+01-4.51627E+01



 n o d a l   p r i n t   o u t   f o r   t i m e  s t e p    5601                              ( at time 2.7997198E+00 )

 nodal point  x-rot      y-rot       z-rot       x-rot vel   y-rot vel   z-rot vel   x-rot acc   y-rot acc   z-rot acc
    22626 -3.07847E-04-1.10557E-06 1.00037E-06-1.44475E-04 3.14735E-06 4.37456E-06 1.85262E-04-2.25676E-05 7.80153E-06



 n o d a l   p r i n t   o u t   f o r   t i m e  s t e p    5801                              ( at time 2.8997098E+00 )

 nodal point  x-disp     y-disp      z-disp      x-vel       y-vel       z-vel      x-accl      y-accl      z-accl      x-coor      y-coor      z-coor
    22626 -1.27547E-03 9.75437E-02-1.91834E-01-7.36666E-04 5.41969E-02-1.09469E-01 1.46083E-03-8.59437E-04-1.98620E-02 4.65810E+00-2.80933E+01-4.51736E+01



 n o d a l   p r i n t   o u t   f o r   t i m e  s t e p    5801                              ( at time 2.8997098E+00 )

 nodal point  x-rot      y-rot       z-rot       x-rot vel   y-rot vel   z-rot vel   x-rot acc   y-rot acc   z-rot acc
    22626 -3.21794E-04-9.10053E-07 1.29932E-06-1.39901E-04 5.22293E-07 3.60786E-06 4.57490E-05-2.62532E-05-7.66773E-06



 n o d a l   p r i n t   o u t   f o r   t i m e  s t e p    6001                              ( at time 2.9996998E+00 )

 nodal point  x-disp     y-disp      z-disp      x-vel       y-vel       z-vel      x-accl      y-accl      z-accl      x-coor      y-coor      z-coor
    22626 -1.35901E-03 1.02935E-01-2.02797E-01-7.27800E-04 5.35828E-02-1.09338E-01 8.86695E-05-6.14115E-03 1.30666E-03 4.65802E+00-2.80879E+01-4.51845E+01



 n o d a l   p r i n t   o u t   f o r   t i m e  s t e p    6001                              ( at time 2.9996998E+00 )

 nodal point  x-rot      y-rot       z-rot       x-rot vel   y-rot vel   z-rot vel   x-rot acc   y-rot acc   z-rot acc
    22626 -3.36567E-04-8.71376E-07 1.48269E-06-1.50123E-04 4.79152E-07 2.48669E-06-1.02227E-04-4.31456E-07-1.12128E-05



 n o d a l   p r i n t   o u t   f o r   t i m e  s t e p    6201                              ( at time 3.0996898E+00 )

 nodal point  x-disp     y-disp      z-disp      x-vel       y-vel       z-vel      x-accl      y-accl      z-accl      x-coor      y-coor      z-coor
    22626 -1.42778E-03 1.08284E-01-2.13685E-01-7.47708E-04 5.36017E-02-1.08919E-01-1.99098E-04 1.88705E-04 4.18981E-03 4.65795E+00-2.80825E+01-4.51954E+01



 n o d a l   p r i n t   o u t   f o r   t i m e  s t e p    6201                              ( at time 3.0996898E+00 )

 nodal point  x-rot      y-rot       z-rot       x-rot vel   y-rot vel   z-rot vel   x-rot acc   y-rot acc   z-rot acc
    22626 -3.51601E-04-7.96325E-07 1.74131E-06-1.49270E-04 1.09793E-07 4.55595E-06 8.52756E-06-3.69396E-06 2.06947E-05



 n o d a l   p r i n t   o u t   f o r   t i m e  s t e p    6401                              ( at time 3.1996798E+00 )

 nodal point  x-disp     y-disp      z-disp      x-vel       y-vel       z-vel      x-accl      y-accl      z-accl      x-coor      y-coor      z-coor
    22626 -1.49340E-03 1.13662E-01-2.24667E-01-6.48431E-04 5.40010E-02-1.10857E-01 9.92868E-04 3.99342E-03-1.93776E-02 4.65788E+00-2.80772E+01-4.52064E+01



 n o d a l   p r i n t   o u t   f o r   t i m e  s t e p    6401                              ( at time 3.1996798E+00 )

 nodal point  x-rot      y-rot       z-rot       x-rot vel   y-rot vel   z-rot vel   x-rot acc   y-rot acc   z-rot acc
    22626 -3.66438E-04-6.71088E-07 1.88997E-06-1.42015E-04 1.44194E-06 1.23326E-06 7.25521E-05 1.33228E-05-3.32302E-05



 n o d a l   p r i n t   o u t   f o r   t i m e  s t e p    6601                              ( at time 3.2996698E+00 )

 nodal point  x-disp     y-disp      z-disp      x-vel       y-vel       z-vel      x-accl      y-accl      z-accl      x-coor      y-coor      z-coor
    22626 -1.57151E-03 1.19084E-01-2.35858E-01-8.25094E-04 5.43026E-02-1.12738E-01-1.76681E-03 3.01682E-03-1.88160E-02 4.65780E+00-2.80717E+01-4.52176E+01



 n o d a l   p r i n t   o u t   f o r   t i m e  s t e p    6601                              ( at time 3.2996698E+00 )

 nodal point  x-rot      y-rot       z-rot       x-rot vel   y-rot vel   z-rot vel   x-rot acc   y-rot acc   z-rot acc
    22626 -3.80578E-04-4.99524E-07 2.14792E-06-1.38099E-04 2.43334E-06 2.64765E-06 3.91674E-05 9.91500E-06 1.41453E-05



 n o d a l   p r i n t   o u t   f o r   t i m e  s t e p    6801                              ( at time 3.3996598E+00 )

 nodal point  x-disp     y-disp      z-disp      x-vel       y-vel       z-vel      x-accl      y-accl      z-accl      x-coor      y-coor      z-coor
    22626 -1.65886E-03 1.24512E-01-2.47152E-01-9.65091E-04 5.40585E-02-1.13025E-01-1.40011E-03-2.44109E-03-2.86518E-03 4.65772E+00-2.80663E+01-4.52289E+01



 n o d a l   p r i n t   o u t   f o r   t i m e  s t e p    6801                              ( at time 3.3996598E+00 )

 nodal point  x-rot      y-rot       z-rot       x-rot vel   y-rot vel   z-rot vel   x-rot acc   y-rot acc   z-rot acc
    22626 -3.94297E-04-3.50359E-07 2.49876E-06-1.36907E-04 3.57776E-06 6.21838E-06 1.19195E-05 1.14453E-05 3.57108E-05



 n o d a l   p r i n t   o u t   f o r   t i m e  s t e p    7001                              ( at time 3.4996498E+00 )

 nodal point  x-disp     y-disp      z-disp      x-vel       y-vel       z-vel      x-accl      y-accl      z-accl      x-coor      y-coor      z-coor
    22626 -1.75213E-03 1.29865E-01-2.58390E-01-9.61569E-04 5.30930E-02-1.11676E-01 3.52180E-05-9.65667E-03 1.34868E-02 4.65762E+00-2.80610E+01-4.52401E+01



 n o d a l   p r i n t   o u t   f o r   t i m e  s t e p    7001                              ( at time 3.4996498E+00 )

 nodal point  x-rot      y-rot       z-rot       x-rot vel   y-rot vel   z-rot vel   x-rot acc   y-rot acc   z-rot acc
    22626 -4.08216E-04-1.15975E-08 2.95039E-06-1.37227E-04 4.62317E-06 4.28008E-06-3.19854E-06 1.04552E-05-1.93849E-05



 n o d a l   p r i n t   o u t   f o r   t i m e  s t e p    7201                              ( at time 3.5996397E+00 )

 nodal point  x-disp     y-disp      z-disp      x-vel       y-vel       z-vel      x-accl      y-accl      z-accl      x-coor      y-coor      z-coor
    22626 -1.84432E-03 1.35131E-01-2.69486E-01-8.06064E-04 5.20860E-02-1.10689E-01 1.55521E-03-1.00712E-02 9.86884E-03 4.65753E+00-2.80557E+01-4.52512E+01



 n o d a l   p r i n t   o u t   f o r   t i m e  s t e p    7201                              ( at time 3.5996397E+00 )

 nodal point  x-rot      y-rot       z-rot       x-rot vel   y-rot vel   z-rot vel   x-rot acc   y-rot acc   z-rot acc
    22626 -4.21601E-04 6.23701E-07 3.50709E-06-1.34533E-04 6.08056E-06 3.31372E-06 2.69457E-05 1.45754E-05-9.66459E-06



 n o d a l   p r i n t   o u t   f o r   t i m e  s t e p    7401                              ( at time 3.6996297E+00 )

 nodal point  x-disp     y-disp      z-disp      x-vel       y-vel       z-vel      x-accl      y-accl      z-accl      x-coor      y-coor      z-coor
    22626 -1.92889E-03 1.40293E-01-2.80552E-01-8.03558E-04 5.11585E-02-1.10735E-01 2.50585E-05-9.27555E-03-4.51401E-04 4.65745E+00-2.80505E+01-4.52623E+01



 n o d a l   p r i n t   o u t   f o r   t i m e  s t e p    7401                              ( at time 3.6996297E+00 )

 nodal point  x-rot      y-rot       z-rot       x-rot vel   y-rot vel   z-rot vel   x-rot acc   y-rot acc   z-rot acc
    22626 -4.34677E-04 1.11301E-06 3.92181E-06-1.26821E-04 2.74162E-06 3.52287E-06 7.71288E-05-3.33926E-05 2.09172E-06



 n o d a l   p r i n t   o u t   f o r   t i m e  s t e p    7601                              ( at time 3.7996197E+00 )

 nodal point  x-disp     y-disp      z-disp      x-vel       y-vel       z-vel      x-accl      y-accl      z-accl      x-coor      y-coor      z-coor
    22626 -2.01026E-03 1.45340E-01-2.91590E-01-8.23957E-04 4.97453E-02-1.09856E-01-2.04005E-04-1.41335E-02 8.79019E-03 4.65736E+00-2.80455E+01-4.52733E+01



 n o d a l   p r i n t   o u t   f o r   t i m e  s t e p    7601                              ( at time 3.7996197E+00 )

 nodal point  x-rot      y-rot       z-rot       x-rot vel   y-rot vel   z-rot vel   x-rot acc   y-rot acc   z-rot acc
    22626 -4.46938E-04 1.22784E-06 4.21036E-06-1.24498E-04-7.62888E-08 1.53993E-06 2.32322E-05-2.81820E-05-1.98314E-05



 n o d a l   p r i n t   o u t   f o r   t i m e  s t e p    7801                              ( at time 3.8996097E+00 )

 nodal point  x-disp     y-disp      z-disp      x-vel       y-vel       z-vel      x-accl      y-accl      z-accl      x-coor      y-coor      z-coor
    22626 -2.07903E-03 1.50228E-01-3.02483E-01-5.77809E-04 4.79380E-02-1.07839E-01 2.46172E-03-1.80748E-02 2.01735E-02 4.65730E+00-2.80406E+01-4.52842E+01



 n o d a l   p r i n t   o u t   f o r   t i m e  s t e p    7801                              ( at time 3.8996097E+00 )

 nodal point  x-rot      y-rot       z-rot       x-rot vel   y-rot vel   z-rot vel   x-rot acc   y-rot acc   z-rot acc
    22626 -4.59409E-04 1.19145E-06 4.33845E-06-1.30654E-04 5.28096E-07 7.86683E-07-6.15687E-05 6.04444E-06-7.53319E-06



 n o d a l   p r i n t   o u t   f o r   t i m e  s t e p    8001                              ( at time 3.9995997E+00 )

 nodal point  x-disp     y-disp      z-disp      x-vel       y-vel       z-vel      x-accl      y-accl      z-accl      x-coor      y-coor      z-coor
    22626 -2.12798E-03 1.54925E-01-3.13124E-01-4.86916E-04 4.62386E-02-1.05160E-01 9.09029E-04-1.69960E-02 2.67849E-02 4.65725E+00-2.80359E+01-4.52948E+01



 n o d a l   p r i n t   o u t   f o r   t i m e  s t e p    8001                              ( at time 3.9995997E+00 )

 nodal point  x-rot      y-rot       z-rot       x-rot vel   y-rot vel   z-rot vel   x-rot acc   y-rot acc   z-rot acc
    22626 -4.72163E-04 1.09839E-06 4.25439E-06-1.22032E-04-1.02549E-06 2.08242E-07 8.62268E-05-1.55375E-05-5.78500E-06



 n o d a l   p r i n t   o u t   f o r   t i m e  s t e p    8201                              ( at time 4.0995897E+00 )

 nodal point  x-disp     y-disp      z-disp      x-vel       y-vel       z-vel      x-accl      y-accl      z-accl      x-coor      y-coor      z-coor
    22626 -2.18047E-03 1.59472E-01-3.23577E-01-4.64836E-04 4.46417E-02-1.04095E-01 2.20819E-04-1.59703E-02 1.06565E-02 4.65719E+00-2.80314E+01-4.53053E+01



 n o d a l   p r i n t   o u t   f o r   t i m e  s t e p    8201                              ( at time 4.0995897E+00 )

 nodal point  x-rot      y-rot       z-rot       x-rot vel   y-rot vel   z-rot vel   x-rot acc   y-rot acc   z-rot acc
    22626 -4.83495E-04 9.06297E-07 4.12349E-06-1.08347E-04-2.73957E-06-1.35976E-06 1.36866E-04-1.71425E-05-1.56815E-05



 n o d a l   p r i n t   o u t   f o r   t i m e  s t e p    8401                              ( at time 4.1995797E+00 )

 nodal point  x-disp     y-disp      z-disp      x-vel       y-vel       z-vel      x-accl      y-accl      z-accl      x-coor      y-coor      z-coor
    22626 -2.23381E-03 1.63892E-01-3.33926E-01-6.69722E-04 4.36521E-02-1.02674E-01-2.04906E-03-9.89705E-03 1.42092E-02 4.65714E+00-2.80269E+01-4.53156E+01



 n o d a l   p r i n t   o u t   f o r   t i m e  s t e p    8401                              ( at time 4.1995797E+00 )

 nodal point  x-rot      y-rot       z-rot       x-rot vel   y-rot vel   z-rot vel   x-rot acc   y-rot acc   z-rot acc
    22626 -4.94364E-04 6.44518E-07 3.84597E-06-1.06443E-04-1.24790E-06-2.06941E-06 1.90372E-05 1.49182E-05-7.09722E-06



 n o d a l   p r i n t   o u t   f o r   t i m e  s t e p    8601                              ( at time 4.2995697E+00 )

 nodal point  x-disp     y-disp      z-disp      x-vel       y-vel       z-vel      x-accl      y-accl      z-accl      x-coor      y-coor      z-coor
    22626 -2.30089E-03 1.68190E-01-3.44077E-01-6.14284E-04 4.22362E-02-1.00082E-01 5.54435E-04-1.41603E-02 2.59270E-02 4.65707E+00-2.80226E+01-4.53258E+01



 n o d a l   p r i n t   o u t   f o r   t i m e  s t e p    8601                              ( at time 4.2995697E+00 )

 nodal point  x-rot      y-rot       z-rot       x-rot vel   y-rot vel   z-rot vel   x-rot acc   y-rot acc   z-rot acc
    22626 -5.04810E-04 5.00411E-07 3.76424E-06-1.01412E-04-5.74715E-07-7.77542E-07 5.03208E-05 6.73253E-06 1.29199E-05



 n o d a l   p r i n t   o u t   f o r   t i m e  s t e p    8801                              ( at time 4.3995597E+00 )

 nodal point  x-disp     y-disp      z-disp      x-vel       y-vel       z-vel      x-accl      y-accl      z-accl      x-coor      y-coor      z-coor
    22626 -2.35642E-03 1.72306E-01-3.53895E-01-4.12033E-04 4.01713E-02-9.64023E-02 2.02271E-03-2.06510E-02 3.67960E-02 4.65702E+00-2.80185E+01-4.53356E+01



 n o d a l   p r i n t   o u t   f o r   t i m e  s t e p    8801                              ( at time 4.3995597E+00 )

 nodal point  x-rot      y-rot       z-rot       x-rot vel   y-rot vel   z-rot vel   x-rot acc   y-rot acc   z-rot acc
    22626 -5.14829E-04 5.80830E-07 3.67775E-06-1.01648E-04 2.01864E-06 1.28560E-06-2.36005E-06 2.59361E-05 2.06335E-05



 n o d a l   p r i n t   o u t   f o r   t i m e  s t e p    9001                              ( at time 4.4995497E+00 )

 nodal point  x-disp     y-disp      z-disp      x-vel       y-vel       z-vel      x-accl      y-accl      z-accl      x-coor      y-coor      z-coor
    22626 -2.39360E-03 1.76277E-01-3.63390E-01-3.54069E-04 3.94644E-02-9.40621E-02 5.79700E-04-7.06931E-03 2.34045E-02 4.65698E+00-2.80146E+01-4.53451E+01



 n o d a l   p r i n t   o u t   f o r   t i m e  s t e p    9001                              ( at time 4.4995497E+00 )

 nodal point  x-rot      y-rot       z-rot       x-rot vel   y-rot vel   z-rot vel   x-rot acc   y-rot acc   z-rot acc
    22626 -5.25432E-04 8.29771E-07 3.93577E-06-1.06158E-04 1.20660E-06 2.06355E-06-4.51028E-05-8.12112E-06 7.78031E-06



 n o d a l   p r i n t   o u t   f o r   t i m e  s t e p    9201                              ( at time 4.5995397E+00 )

 nodal point  x-disp     y-disp      z-disp      x-vel       y-vel       z-vel      x-accl      y-accl      z-accl      x-coor      y-coor      z-coor
    22626 -2.42347E-03 1.80214E-01-3.72721E-01-3.39724E-04 3.92065E-02-9.27597E-02 1.43460E-04-2.57965E-03 1.30252E-02 4.65695E+00-2.80106E+01-4.53544E+01



 n o d a l   p r i n t   o u t   f o r   t i m e  s t e p    9201                              ( at time 4.5995397E+00 )

 nodal point  x-rot      y-rot       z-rot       x-rot vel   y-rot vel   z-rot vel   x-rot acc   y-rot acc   z-rot acc
    22626 -5.35353E-04 8.74960E-07 3.93679E-06-9.16655E-05-1.60512E-06-1.99685E-06 1.44934E-04-2.81201E-05-4.06081E-05



 n o d a l   p r i n t   o u t   f o r   t i m e  s t e p    9401                              ( at time 4.6995297E+00 )

 nodal point  x-disp     y-disp      z-disp      x-vel       y-vel       z-vel      x-accl      y-accl      z-accl      x-coor      y-coor      z-coor
    22626 -2.44982E-03 1.84140E-01-3.81896E-01-1.13291E-04 3.95131E-02-9.05396E-02 2.26456E-03 3.06604E-03 2.22037E-02 4.65693E+00-2.80067E+01-4.53636E+01



 n o d a l   p r i n t   o u t   f o r   t i m e  s t e p    9401                              ( at time 4.6995297E+00 )

 nodal point  x-rot      y-rot       z-rot       x-rot vel   y-rot vel   z-rot vel   x-rot acc   y-rot acc   z-rot acc
    22626 -5.44547E-04 6.64153E-07 3.70690E-06-9.51667E-05-1.86590E-06-1.99479E-06-3.50146E-05-2.60799E-06 2.05908E-08



 n o d a l   p r i n t   o u t   f o r   t i m e  s t e p    9601                              ( at time 4.7995197E+00 )

 nodal point  x-disp     y-disp      z-disp      x-vel       y-vel       z-vel      x-accl      y-accl      z-accl      x-coor      y-coor      z-coor
    22626 -2.45278E-03 1.88134E-01-3.90817E-01 4.52735E-06 4.05706E-02-8.74259E-02 1.17831E-03 1.05766E-02 3.11405E-02 4.65692E+00-2.80027E+01-4.53725E+01



 n o d a l   p r i n t   o u t   f o r   t i m e  s t e p    9601                              ( at time 4.7995197E+00 )

 nodal point  x-rot      y-rot       z-rot       x-rot vel   y-rot vel   z-rot vel   x-rot acc   y-rot acc   z-rot acc
    22626 -5.55002E-04 2.52867E-07 3.37940E-06-1.09464E-04-4.39873E-06-5.93818E-06-1.42986E-04-2.53309E-05-3.94379E-05



 n o d a l   p r i n t   o u t   f o r   t i m e  s t e p    9801                              ( at time 4.8995097E+00 )

 nodal point  x-disp     y-disp      z-disp      x-vel       y-vel       z-vel      x-accl      y-accl      z-accl      x-coor      y-coor      z-coor
    22626 -2.44494E-03 1.92293E-01-3.99407E-01 7.53578E-05 4.28197E-02-8.44378E-02 7.08376E-04 2.24930E-02 2.98836E-02 4.65693E+00-2.79985E+01-4.53811E+01



 n o d a l   p r i n t   o u t   f o r   t i m e  s t e p    9801                              ( at time 4.8995097E+00 )

 nodal point  x-rot      y-rot       z-rot       x-rot vel   y-rot vel   z-rot vel   x-rot acc   y-rot acc   z-rot acc
    22626 -5.66439E-04-3.66511E-07 2.62917E-06-1.12718E-04-7.23614E-06-8.59209E-06-3.25449E-05-2.83770E-05-2.65418E-05



 n o d a l   p r i n t   o u t   f o r   t i m e  s t e p   10001                              ( at time 4.9994997E+00 )

 nodal point  x-disp     y-disp      z-disp      x-vel       y-vel       z-vel      x-accl      y-accl      z-accl      x-coor      y-coor      z-coor
    22626 -2.40997E-03 1.96733E-01-4.07791E-01 5.80956E-04 4.65971E-02-8.32250E-02 5.05647E-03 3.77776E-02 1.21293E-02 4.65697E+00-2.79941E+01-4.53895E+01



 n o d a l   p r i n t   o u t   f o r   t i m e  s t e p   10001                              ( at time 4.9994997E+00 )

 nodal point  x-rot      y-rot       z-rot       x-rot vel   y-rot vel   z-rot vel   x-rot acc   y-rot acc   z-rot acc
    22626 -5.78455E-04-1.01798E-06 2.08834E-06-1.30645E-04-4.00177E-06-2.75433E-06-1.79288E-04 3.23468E-05 5.83832E-05



 n o d a l   p r i n t   o u t   f o r   t i m e  s t e p   10202                              ( at time 5.0999896E+00 )

 nodal point  x-disp     y-disp      z-disp      x-vel       y-vel       z-vel      x-accl      y-accl      z-accl      x-coor      y-coor      z-coor
    22626 -2.35300E-03 2.01682E-01-4.16065E-01 5.83921E-04 5.22123E-02-8.12091E-02 2.95065E-05 5.58785E-02 2.00602E-02 4.65702E+00-2.79891E+01-4.53978E+01



 n o d a l   p r i n t   o u t   f o r   t i m e  s t e p   10202                              ( at time 5.0999896E+00 )

 nodal point  x-rot      y-rot       z-rot       x-rot vel   y-rot vel   z-rot vel   x-rot acc   y-rot acc   z-rot acc
    22626 -5.93993E-04-1.43672E-06 1.94269E-06-1.79808E-04-2.47368E-06 1.21090E-06-4.89231E-04 1.52064E-05 3.94592E-05



 n o d a l   p r i n t   o u t   f o r   t i m e  s t e p   10402                              ( at time 5.1999796E+00 )

 nodal point  x-disp     y-disp      z-disp      x-vel       y-vel       z-vel      x-accl      y-accl      z-accl      x-coor      y-coor      z-coor
    22626 -2.32071E-03 2.07220E-01-4.24024E-01 3.33875E-04 5.87989E-02-7.79531E-02-2.50070E-03 6.58719E-02 3.25637E-02 4.65705E+00-2.79836E+01-4.54057E+01



 n o d a l   p r i n t   o u t   f o r   t i m e  s t e p   10402                              ( at time 5.1999796E+00 )

 nodal point  x-rot      y-rot       z-rot       x-rot vel   y-rot vel   z-rot vel   x-rot acc   y-rot acc   z-rot acc
    22626 -6.14637E-04-1.88829E-06 2.15496E-06-2.40456E-04-6.35635E-06-1.42448E-06-6.06542E-04-3.88304E-05-2.63564E-05



 n o d a l   p r i n t   o u t   f o r   t i m e  s t e p   10602                              ( at time 5.2999696E+00 )

 nodal point  x-disp     y-disp      z-disp      x-vel       y-vel       z-vel      x-accl      y-accl      z-accl      x-coor      y-coor      z-coor
    22626 -2.28192E-03 2.13542E-01-4.31648E-01 4.93567E-04 6.78232E-02-7.50352E-02 1.59709E-03 9.02525E-02 2.91820E-02 4.65709E+00-2.79773E+01-4.54134E+01



 n o d a l   p r i n t   o u t   f o r   t i m e  s t e p   10602                              ( at time 5.2999696E+00 )

 nodal point  x-rot      y-rot       z-rot       x-rot vel   y-rot vel   z-rot vel   x-rot acc   y-rot acc   z-rot acc
    22626 -6.42052E-04-2.16213E-06 2.06889E-06-3.06815E-04 2.06891E-06 6.38669E-06-6.63658E-04 8.42611E-05 7.81196E-05



 n o d a l   p r i n t   o u t   f o r   t i m e  s t e p   10802                              ( at time 5.3999596E+00 )

 nodal point  x-disp     y-disp      z-disp      x-vel       y-vel       z-vel      x-accl      y-accl      z-accl      x-coor      y-coor      z-coor
    22626 -2.21072E-03 2.20874E-01-4.39040E-01 8.46587E-04 7.89156E-02-7.28672E-02 3.53055E-03 1.10935E-01 2.16817E-02 4.65716E+00-2.79700E+01-4.54208E+01



 n o d a l   p r i n t   o u t   f o r   t i m e  s t e p   10802                              ( at time 5.3999596E+00 )

 nodal point  x-rot      y-rot       z-rot       x-rot vel   y-rot vel   z-rot vel   x-rot acc   y-rot acc   z-rot acc
    22626 -6.77151E-04-1.79894E-06 3.00712E-06-3.91699E-04 1.42430E-06 1.08268E-05-8.48930E-04-6.44677E-06 4.44057E-05



 n o d a l   p r i n t   o u t   f o r   t i m e  s t e p   11002                              ( at time 5.4999496E+00 )

 nodal point  x-disp     y-disp      z-disp      x-vel       y-vel       z-vel      x-accl      y-accl      z-accl      x-coor      y-coor      z-coor
    22626 -2.13590E-03 2.29389E-01-4.46250E-01 7.69982E-04 9.17961E-02-7.10111E-02-7.66125E-04 1.28818E-01 1.85632E-02 4.65724E+00-2.79614E+01-4.54280E+01



 n o d a l   p r i n t   o u t   f o r   t i m e  s t e p   11002                              ( at time 5.4999496E+00 )

 nodal point  x-rot      y-rot       z-rot       x-rot vel   y-rot vel   z-rot vel   x-rot acc   y-rot acc   z-rot acc
    22626 -7.21220E-04-2.01302E-06 3.99309E-06-4.98523E-04-2.49387E-06 7.50490E-06-1.06834E-03-3.91857E-05-3.32224E-05



 n o d a l   p r i n t   o u t   f o r   t i m e  s t e p   11202                              ( at time 5.5999396E+00 )

 nodal point  x-disp     y-disp      z-disp      x-vel       y-vel       z-vel      x-accl      y-accl      z-accl      x-coor      y-coor      z-coor
    22626 -2.04931E-03 2.39255E-01-4.53192E-01 8.65152E-04 1.06435E-01-6.77165E-02 9.51789E-04 1.46405E-01 3.29493E-02 4.65733E+00-2.79516E+01-4.54349E+01



 n o d a l   p r i n t   o u t   f o r   t i m e  s t e p   11202                              ( at time 5.5999396E+00 )

 nodal point  x-rot      y-rot       z-rot       x-rot vel   y-rot vel   z-rot vel   x-rot acc   y-rot acc   z-rot acc
    22626 -7.76778E-04-2.17607E-06 4.63156E-06-6.27112E-04-6.01494E-07 7.03103E-06-1.28602E-03 1.89257E-05-4.73917E-06



 n o d a l   p r i n t   o u t   f o r   t i m e  s t e p   11402                              ( at time 5.6999296E+00 )

 nodal point  x-disp     y-disp      z-disp      x-vel       y-vel       z-vel      x-accl      y-accl      z-accl      x-coor      y-coor      z-coor
    22626 -1.95630E-03 2.50672E-01-4.59820E-01 9.18019E-04 1.22347E-01-6.51576E-02 5.28727E-04 1.59133E-01 2.55910E-02 4.65742E+00-2.79402E+01-4.54415E+01



 n o d a l   p r i n t   o u t   f o r   t i m e  s t e p   11402                              ( at time 5.6999296E+00 )

 nodal point  x-rot      y-rot       z-rot       x-rot vel   y-rot vel   z-rot vel   x-rot acc   y-rot acc   z-rot acc
    22626 -8.44575E-04-2.56897E-06 4.99430E-06-7.40671E-04-5.85539E-06-7.59875E-07-1.13570E-03-5.25440E-05-7.79166E-05



 n o d a l   p r i n t   o u t   f o r   t i m e  s t e p   11602                              ( at time 5.7999195E+00 )

 nodal point  x-disp     y-disp      z-disp      x-vel       y-vel       z-vel      x-accl      y-accl      z-accl      x-coor      y-coor      z-coor
    22626 -1.85042E-03 2.63775E-01-4.66202E-01 1.34035E-03 1.40100E-01-6.25759E-02 4.22369E-03 1.77549E-01 2.58195E-02 4.65752E+00-2.79271E+01-4.54479E+01



 n o d a l   p r i n t   o u t   f o r   t i m e  s t e p   11602                              ( at time 5.7999195E+00 )

 nodal point  x-rot      y-rot       z-rot       x-rot vel   y-rot vel   z-rot vel   x-rot acc   y-rot acc   z-rot acc
    22626 -9.23541E-04-3.23015E-06 4.57776E-06-8.58629E-04-9.42493E-06-8.28930E-06-1.17971E-03-3.56989E-05-7.53019E-05



 n o d a l   p r i n t   o u t   f o r   t i m e  s t e p   11802                              ( at time 5.8999095E+00 )

 nodal point  x-disp     y-disp      z-disp      x-vel       y-vel       z-vel      x-accl      y-accl      z-accl      x-coor      y-coor      z-coor
    22626 -1.70332E-03 2.78812E-01-4.72443E-01 1.33590E-03 1.60889E-01-6.18928E-02-4.44961E-05 2.07907E-01 6.83202E-03 4.65767E+00-2.79120E+01-4.54542E+01



 n o d a l   p r i n t   o u t   f o r   t i m e  s t e p   11802                              ( at time 5.8999095E+00 )

 nodal point  x-rot      y-rot       z-rot       x-rot vel   y-rot vel   z-rot vel   x-rot acc   y-rot acc   z-rot acc
    22626 -1.01658E-03-3.92610E-06 4.17426E-06-1.02145E-03-7.39864E-06-4.42675E-06-1.62840E-03 2.02649E-05 3.86294E-05



 n o d a l   p r i n t   o u t   f o r   t i m e  s t e p   12002                              ( at time 5.9998995E+00 )

 nodal point  x-disp     y-disp      z-disp      x-vel       y-vel       z-vel      x-accl      y-accl      z-accl      x-coor      y-coor      z-coor
    22626 -1.58065E-03 2.95943E-01-4.78603E-01 1.09451E-03 1.82107E-01-6.07735E-02-2.41409E-03 2.12210E-01 1.11943E-02 4.65779E+00-2.78949E+01-4.54603E+01



 n o d a l   p r i n t   o u t   f o r   t i m e  s t e p   12002                              ( at time 5.9998995E+00 )

 nodal point  x-rot      y-rot       z-rot       x-rot vel   y-rot vel   z-rot vel   x-rot acc   y-rot acc   z-rot acc
    22626 -1.12556E-03-4.92745E-06 3.50632E-06-1.16834E-03-7.96469E-06-4.83443E-06-1.46901E-03-5.66106E-06-4.07719E-06



 n o d a l   p r i n t   o u t   f o r   t i m e  s t e p   12202                              ( at time 6.0998895E+00 )

 nodal point  x-disp     y-disp      z-disp      x-vel       y-vel       z-vel      x-accl      y-accl      z-accl      x-coor      y-coor      z-coor
    22626 -1.43271E-03 3.15265E-01-4.84624E-01 1.77129E-03 2.04520E-01-5.92994E-02 6.76839E-03 2.24150E-01 1.47421E-02 4.65794E+00-2.78756E+01-4.54663E+01



 n o d a l   p r i n t   o u t   f o r   t i m e  s t e p   12202                              ( at time 6.0998895E+00 )

 nodal point  x-rot      y-rot       z-rot       x-rot vel   y-rot vel   z-rot vel   x-rot acc   y-rot acc   z-rot acc
    22626 -1.24981E-03-5.22738E-06 3.40975E-06-1.32931E-03 2.50107E-06 4.07387E-06-1.60990E-03 1.04668E-04 8.90916E-05



 n o d a l   p r i n t   o u t   f o r   t i m e  s t e p   12402                              ( at time 6.1998795E+00 )

 nodal point  x-disp     y-disp      z-disp      x-vel       y-vel       z-vel      x-accl      y-accl      z-accl      x-coor      y-coor      z-coor
    22626 -1.26955E-03 3.36957E-01-4.90519E-01 1.83013E-03 2.29900E-01-5.91209E-02 5.88473E-04 2.53825E-01 1.78508E-03 4.65811E+00-2.78539E+01-4.54722E+01



 n o d a l   p r i n t   o u t   f o r   t i m e  s t e p   12402                              ( at time 6.1998795E+00 )

 nodal point  x-rot      y-rot       z-rot       x-rot vel   y-rot vel   z-rot vel   x-rot acc   y-rot acc   z-rot acc
    22626 -1.39069E-03-5.39408E-06 3.21992E-06-1.50772E-03-5.90982E-06 1.34554E-06-1.78423E-03-8.41174E-05-2.72861E-05



 n o d a l   p r i n t   o u t   f o r   t i m e  s t e p   12602                              ( at time 6.2998695E+00 )

 nodal point  x-disp     y-disp      z-disp      x-vel       y-vel       z-vel      x-accl      y-accl      z-accl      x-coor      y-coor      z-coor
    22626 -1.09772E-03 3.61185E-01-4.96428E-01 1.76328E-03 2.54877E-01-5.93343E-02-6.68499E-04 2.49796E-01-2.13380E-03 4.65828E+00-2.78296E+01-4.54781E+01



 n o d a l   p r i n t   o u t   f o r   t i m e  s t e p   12602                              ( at time 6.2998695E+00 )

 nodal point  x-rot      y-rot       z-rot       x-rot vel   y-rot vel   z-rot vel   x-rot acc   y-rot acc   z-rot acc
    22626 -1.54870E-03-5.19224E-06 3.43783E-06-1.67389E-03 4.43502E-06 6.26704E-06-1.66193E-03 1.03459E-04 4.92200E-05



 n o d a l   p r i n t   o u t   f o r   t i m e  s t e p   12802                              ( at time 6.3998595E+00 )

 nodal point  x-disp     y-disp      z-disp      x-vel       y-vel       z-vel      x-accl      y-accl      z-accl      x-coor      y-coor      z-coor
    22626 -8.73776E-04 3.88101E-01-5.02383E-01 2.89458E-03 2.83600E-01-5.97202E-02 1.13141E-02 2.87252E-01-3.85916E-03 4.65850E+00-2.78027E+01-4.54841E+01



 n o d a l   p r i n t   o u t   f o r   t i m e  s t e p   12802                              ( at time 6.3998595E+00 )

 nodal point  x-rot      y-rot       z-rot       x-rot vel   y-rot vel   z-rot vel   x-rot acc   y-rot acc   z-rot acc
    22626 -1.72507E-03-4.64796E-06 4.59424E-06-1.87003E-03 8.44796E-06 1.29594E-05-1.96155E-03 4.01334E-05 6.69307E-05



 n o d a l   p r i n t   o u t   f o r   t i m e  s t e p   13002                              ( at time 6.4998495E+00 )

 nodal point  x-disp     y-disp      z-disp      x-vel       y-vel       z-vel      x-accl      y-accl      z-accl      x-coor      y-coor      z-coor
    22626 -5.95516E-04 4.17817E-01-5.08284E-01 2.31788E-03 3.11102E-01-5.80592E-02-5.76754E-03 2.75051E-01 1.66108E-02 4.65878E+00-2.77730E+01-4.54900E+01



 n o d a l   p r i n t   o u t   f o r   t i m e  s t e p   13002                              ( at time 6.4998495E+00 )

 nodal point  x-rot      y-rot       z-rot       x-rot vel   y-rot vel   z-rot vel   x-rot acc   y-rot acc   z-rot acc
    22626 -1.92129E-03-3.72010E-06 5.83986E-06-2.06527E-03 1.27037E-05 5.74348E-06-1.95260E-03 4.25621E-05-7.21668E-05



 n o d a l   p r i n t   o u t   f o r   t i m e  s t e p   13202                              ( at time 6.5998395E+00 )

 nodal point  x-disp     y-disp      z-disp      x-vel       y-vel       z-vel      x-accl      y-accl      z-accl      x-coor      y-coor      z-coor
    22626 -3.27484E-04 4.50420E-01-5.14053E-01 2.84528E-03 3.41106E-01-5.75984E-02 5.27445E-03 3.00070E-01 4.60911E-03 4.65905E+00-2.77404E+01-4.54958E+01



 n o d a l   p r i n t   o u t   f o r   t i m e  s t e p   13202                              ( at time 6.5998395E+00 )

 nodal point  x-rot      y-rot       z-rot       x-rot vel   y-rot vel   z-rot vel   x-rot acc   y-rot acc   z-rot acc
    22626 -2.13731E-03-2.80106E-06 7.01049E-06-2.26042E-03 1.24368E-05 1.17684E-05-1.95171E-03-2.66951E-06 6.02549E-05



 n o d a l   p r i n t   o u t   f o r   t i m e  s t e p   13402                              ( at time 6.6998295E+00 )

 nodal point  x-disp     y-disp      z-disp      x-vel       y-vel       z-vel      x-accl      y-accl      z-accl      x-coor      y-coor      z-coor
    22626 -1.23739E-05 4.86058E-01-5.19841E-01 3.33676E-03 3.71777E-01-5.81365E-02 4.91535E-03 3.06741E-01-5.38165E-03 4.65936E+00-2.77048E+01-4.55016E+01



 n o d a l   p r i n t   o u t   f o r   t i m e  s t e p   13402                              ( at time 6.6998295E+00 )

 nodal point  x-rot      y-rot       z-rot       x-rot vel   y-rot vel   z-rot vel   x-rot acc   y-rot acc   z-rot acc
    22626 -2.37322E-03-1.39181E-06 8.33759E-06-2.46502E-03 1.51345E-05 1.19266E-05-2.04623E-03 2.69795E-05 1.58188E-06



 n o d a l   p r i n t   o u t   f o r   t i m e  s t e p   13602                              ( at time 6.7998195E+00 )

 nodal point  x-disp     y-disp      z-disp      x-vel       y-vel       z-vel      x-accl      y-accl      z-accl      x-coor      y-coor      z-coor
    22626  3.10338E-04 5.24849E-01-5.25713E-01 3.01247E-03 4.03696E-01-5.94199E-02-3.24328E-03 3.19222E-01-1.28356E-02 4.65969E+00-2.76660E+01-4.55074E+01



 n o d a l   p r i n t   o u t   f o r   t i m e  s t e p   13602                              ( at time 6.7998195E+00 )

 nodal point  x-rot      y-rot       z-rot       x-rot vel   y-rot vel   z-rot vel   x-rot acc   y-rot acc   z-rot acc
    22626 -2.63031E-03 1.65896E-08 9.50934E-06-2.68226E-03 6.81454E-06 1.02910E-05-2.17261E-03-8.32079E-05-1.63570E-05



 n o d a l   p r i n t   o u t   f o r   t i m e  s t e p   13802                              ( at time 6.8998095E+00 )

 nodal point  x-disp     y-disp      z-disp      x-vel       y-vel       z-vel      x-accl      y-accl      z-accl      x-coor      y-coor      z-coor
    22626  6.25794E-04 5.66885E-01-5.31666E-01 3.08240E-03 4.37335E-01-5.91244E-02 6.99396E-04 3.36424E-01 2.95580E-03 4.66000E+00-2.76239E+01-4.55134E+01



 n o d a l   p r i n t   o u t   f o r   t i m e  s t e p   13802                              ( at time 6.8998095E+00 )

 nodal point  x-rot      y-rot       z-rot       x-rot vel   y-rot vel   z-rot vel   x-rot acc   y-rot acc   z-rot acc
    22626 -2.90976E-03 9.26488E-07 1.10614E-05-2.90238E-03 1.13939E-05 2.20082E-05-2.20144E-03 4.57983E-05 1.17183E-04



 n o d a l   p r i n t   o u t   f o r   t i m e  s t e p   14002                              ( at time 6.9997995E+00 )

 nodal point  x-disp     y-disp      z-disp      x-vel       y-vel       z-vel      x-accl      y-accl      z-accl      x-coor      y-coor      z-coor
    22626  9.41503E-04 6.12295E-01-5.37571E-01 3.30885E-03 4.70639E-01-5.91769E-02 2.26476E-03 3.33078E-01-5.24835E-04 4.66032E+00-2.75785E+01-4.55193E+01



 n o d a l   p r i n t   o u t   f o r   t i m e  s t e p   14002                              ( at time 6.9997995E+00 )

 nodal point  x-rot      y-rot       z-rot       x-rot vel   y-rot vel   z-rot vel   x-rot acc   y-rot acc   z-rot acc
    22626 -3.21118E-03 2.58317E-06 1.21823E-05-3.11951E-03 2.18231E-05 1.29764E-05-2.17146E-03 1.04302E-04-9.03263E-05



 n o d a l   p r i n t   o u t   f o r   t i m e  s t e p   14202                              ( at time 7.0997895E+00 )

 nodal point  x-disp     y-disp      z-disp      x-vel       y-vel       z-vel      x-accl      y-accl      z-accl      x-coor      y-coor      z-coor
    22626  1.24689E-03 6.61099E-01-5.43511E-01 3.17185E-03 5.05777E-01-5.96031E-02-1.37014E-03 3.51407E-01-4.26285E-03 4.66062E+00-2.75297E+01-4.55252E+01



 n o d a l   p r i n t   o u t   f o r   t i m e  s t e p   14202                              ( at time 7.0997895E+00 )

 nodal point  x-rot      y-rot       z-rot       x-rot vel   y-rot vel   z-rot vel   x-rot acc   y-rot acc   z-rot acc
    22626 -3.53462E-03 4.24479E-06 1.32723E-05-3.35076E-03 1.41344E-05 1.30799E-05-2.31271E-03-7.68944E-05 1.03460E-06



 n o d a l   p r i n t   o u t   f o r   t i m e  s t e p   14402                              ( at time 7.1997794E+00 )

 nodal point  x-disp     y-disp      z-disp      x-vel       y-vel       z-vel      x-accl      y-accl      z-accl      x-coor      y-coor      z-coor
    22626  1.54985E-03 7.13440E-01-5.49478E-01 2.56705E-03 5.40803E-01-5.98572E-02-6.04867E-03 3.50299E-01-2.54146E-03 4.66092E+00-2.74774E+01-4.55312E+01



 n o d a l   p r i n t   o u t   f o r   t i m e  s t e p   14402                              ( at time 7.1997794E+00 )

 nodal point  x-rot      y-rot       z-rot       x-rot vel   y-rot vel   z-rot vel   x-rot acc   y-rot acc   z-rot acc
    22626 -3.88079E-03 5.73751E-06 1.42454E-05-3.57539E-03 1.64948E-05 1.04776E-05-2.24659E-03 2.36071E-05-2.60260E-05



 n o d a l   p r i n t   o u t   f o r   t i m e  s t e p   14602                              ( at time 7.2997694E+00 )

 nodal point  x-disp     y-disp      z-disp      x-vel       y-vel       z-vel      x-accl      y-accl      z-accl      x-coor      y-coor      z-coor
    22626  1.84639E-03 7.69269E-01-5.55412E-01 3.48882E-03 5.75747E-01-5.83589E-02 9.21867E-03 3.49470E-01 1.49847E-02 4.66122E+00-2.74216E+01-4.55371E+01



 n o d a l   p r i n t   o u t   f o r   t i m e  s t e p   14602                              ( at time 7.2997694E+00 )

 nodal point  x-rot      y-rot       z-rot       x-rot vel   y-rot vel   z-rot vel   x-rot acc   y-rot acc   z-rot acc
    22626 -4.24991E-03 7.45105E-06 1.52965E-05-3.81422E-03 2.07566E-05 1.15658E-05-2.38847E-03 4.26220E-05 1.08840E-05



 n o d a l   p r i n t   o u t   f o r   t i m e  s t e p   14802                              ( at time 7.3997594E+00 )

 nodal point  x-disp     y-disp      z-disp      x-vel       y-vel       z-vel      x-accl      y-accl      z-accl      x-coor      y-coor      z-coor
    22626  2.16342E-03 8.28582E-01-5.61113E-01 2.97357E-03 6.11135E-01-5.57502E-02-5.15298E-03 3.53916E-01 2.60898E-02 4.66154E+00-2.73622E+01-4.55428E+01



 n o d a l   p r i n t   o u t   f o r   t i m e  s t e p   14802                              ( at time 7.3997594E+00 )

 nodal point  x-rot      y-rot       z-rot       x-rot vel   y-rot vel   z-rot vel   x-rot acc   y-rot acc   z-rot acc
    22626 -4.64253E-03 8.89860E-06 1.62720E-05-4.03576E-03 1.55095E-05 1.22226E-06-2.21567E-03-5.24767E-05-1.03446E-04



 n o d a l   p r i n t   o u t   f o r   t i m e  s t e p   15002                              ( at time 7.4997494E+00 )

 nodal point  x-disp     y-disp      z-disp      x-vel       y-vel       z-vel      x-accl      y-accl      z-accl      x-coor      y-coor      z-coor
    22626  2.43247E-03 8.91482E-01-5.66623E-01 2.63076E-03 6.47084E-01-5.35789E-02-3.42845E-03 3.59531E-01 2.17149E-02 4.66181E+00-2.72993E+01-4.55483E+01



 n o d a l   p r i n t   o u t   f o r   t i m e  s t e p   15002                              ( at time 7.4997494E+00 )

 nodal point  x-rot      y-rot       z-rot       x-rot vel   y-rot vel   z-rot vel   x-rot acc   y-rot acc   z-rot acc
    22626 -5.05790E-03 9.97420E-06 1.50908E-05-4.26620E-03 5.13595E-06-1.19144E-05-2.30459E-03-1.03745E-04-1.31379E-04



 n o d a l   p r i n t   o u t   f o r   t i m e  s t e p   15202                              ( at time 7.5997394E+00 )

 nodal point  x-disp     y-disp      z-disp      x-vel       y-vel       z-vel      x-accl      y-accl      z-accl      x-coor      y-coor      z-coor
    22626  2.69972E-03 9.57958E-01-5.71889E-01 2.73685E-03 6.83079E-01-5.13216E-02 1.06101E-03 3.59985E-01 2.25755E-02 4.66207E+00-2.72329E+01-4.55536E+01



 n o d a l   p r i n t   o u t   f o r   t i m e  s t e p   15202                              ( at time 7.5997394E+00 )

 nodal point  x-rot      y-rot       z-rot       x-rot vel   y-rot vel   z-rot vel   x-rot acc   y-rot acc   z-rot acc
    22626 -5.49694E-03 1.07876E-05 1.40595E-05-4.50887E-03 1.13636E-06-1.72898E-05-2.42693E-03-3.99999E-05-5.37591E-05



 n o d a l   p r i n t   o u t   f o r   t i m e  s t e p   15402                              ( at time 7.6997294E+00 )

 nodal point  x-disp     y-disp      z-disp      x-vel       y-vel       z-vel      x-accl      y-accl      z-accl      x-coor      y-coor      z-coor
    22626  2.99957E-03 1.02805E+00-5.76961E-01 2.80707E-03 7.18757E-01-4.95478E-02 7.02218E-04 3.56819E-01 1.77401E-02 4.66237E+00-2.71628E+01-4.55587E+01



 n o d a l   p r i n t   o u t   f o r   t i m e  s t e p   15402                              ( at time 7.6997294E+00 )

 nodal point  x-rot      y-rot       z-rot       x-rot vel   y-rot vel   z-rot vel   x-rot acc   y-rot acc   z-rot acc
    22626 -5.96014E-03 1.08956E-05 1.19313E-05-4.75017E-03-3.77455E-06-2.88565E-05-2.41329E-03-4.91140E-05-1.15679E-04



 n o d a l   p r i n t   o u t   f o r   t i m e  s t e p   15602                              ( at time 7.7997194E+00 )

 nodal point  x-disp     y-disp      z-disp      x-vel       y-vel       z-vel      x-accl      y-accl      z-accl      x-coor      y-coor      z-coor
    22626  3.23763E-03 1.10182E+00-5.81767E-01 2.15476E-03 7.56215E-01-4.59159E-02-6.52368E-03 3.74619E-01 3.63226E-02 4.66261E+00-2.70890E+01-4.55635E+01



 n o d a l   p r i n t   o u t   f o r   t i m e  s t e p   15602                              ( at time 7.7997194E+00 )

 nodal point  x-rot      y-rot       z-rot       x-rot vel   y-rot vel   z-rot vel   x-rot acc   y-rot acc   z-rot acc
    22626 -6.44752E-03 1.13260E-05 9.02498E-06-4.99505E-03 4.21242E-06-2.67381E-05-2.44905E-03 7.98777E-05 2.11859E-05



 n o d a l   p r i n t   o u t   f o r   t i m e  s t e p   15802                              ( at time 7.8997094E+00 )

 nodal point  x-disp     y-disp      z-disp      x-vel       y-vel       z-vel      x-accl      y-accl      z-accl      x-coor      y-coor      z-coor
    22626  3.44338E-03 1.17921E+00-5.86102E-01 2.60727E-03 7.91788E-01-4.14053E-02 4.52549E-03 3.55766E-01 4.51099E-02 4.66282E+00-2.70116E+01-4.55678E+01



 n o d a l   p r i n t   o u t   f o r   t i m e  s t e p   15802                              ( at time 7.8997094E+00 )

 nodal point  x-rot      y-rot       z-rot       x-rot vel   y-rot vel   z-rot vel   x-rot acc   y-rot acc   z-rot acc
    22626 -6.95853E-03 1.09951E-05 5.58907E-06-5.22786E-03-3.69895E-06-3.80932E-05-2.32837E-03-7.91216E-05-1.13562E-04



 n o d a l   p r i n t   o u t   f o r   t i m e  s t e p   16002                              ( at time 7.9996994E+00 )

 nodal point  x-disp     y-disp      z-disp      x-vel       y-vel       z-vel      x-accl      y-accl      z-accl      x-coor      y-coor      z-coor
    22626  3.67046E-03 1.26031E+00-5.90083E-01 1.89278E-03 8.29790E-01-3.83741E-02-7.14555E-03 3.80056E-01 3.03150E-02 4.66305E+00-2.69305E+01-4.55718E+01



 n o d a l   p r i n t   o u t   f o r   t i m e  s t e p   16002                              ( at time 7.9996994E+00 )

 nodal point  x-rot      y-rot       z-rot       x-rot vel   y-rot vel   z-rot vel   x-rot acc   y-rot acc   z-rot acc
    22626 -7.49316E-03 1.16368E-05 2.09720E-06-5.47066E-03 9.60805E-06-3.64521E-05-2.42824E-03 1.33083E-04 1.64126E-05



 n o d a l   p r i n t   o u t   f o r   t i m e  s t e p   16202                              ( at time 8.0996894E+00 )

 nodal point  x-disp     y-disp      z-disp      x-vel       y-vel       z-vel      x-accl      y-accl      z-accl      x-coor      y-coor      z-coor
    22626  3.88207E-03 1.34507E+00-5.93624E-01 1.71247E-03 8.65458E-01-3.22095E-02-1.80327E-03 3.56712E-01 6.16525E-02 4.66326E+00-2.68458E+01-4.55753E+01



 n o d a l   p r i n t   o u t   f o r   t i m e  s t e p   16202                              ( at time 8.0996894E+00 )

 nodal point  x-rot      y-rot       z-rot       x-rot vel   y-rot vel   z-rot vel   x-rot acc   y-rot acc   z-rot acc
    22626 -8.05227E-03 1.23837E-05-1.78876E-06-5.70953E-03 5.39365E-06-4.23804E-05-2.38890E-03-4.21483E-05-5.92895E-05



 n o d a l   p r i n t   o u t   f o r   t i m e  s t e p   16402                              ( at time 8.1996794E+00 )

 nodal point  x-disp     y-disp      z-disp      x-vel       y-vel       z-vel      x-accl      y-accl      z-accl      x-coor      y-coor      z-coor
    22626  4.05578E-03 1.43342E+00-5.96549E-01 2.23651E-03 9.01258E-01-2.61982E-02 5.24095E-03 3.58032E-01 6.01187E-02 4.66343E+00-2.67574E+01-4.55783E+01



 n o d a l   p r i n t   o u t   f o r   t i m e  s t e p   16402                              ( at time 8.1996794E+00 )

 nodal point  x-rot      y-rot       z-rot       x-rot vel   y-rot vel   z-rot vel   x-rot acc   y-rot acc   z-rot acc
    22626 -8.63530E-03 1.27516E-05-5.70195E-06-5.94773E-03 5.50721E-06-4.39264E-05-2.38222E-03 1.13570E-06-1.54608E-05



 n o d a l   p r i n t   o u t   f o r   t i m e  s t e p   16602                              ( at time 8.2996694E+00 )

 nodal point  x-disp     y-disp      z-disp      x-vel       y-vel       z-vel      x-accl      y-accl      z-accl      x-coor      y-coor      z-coor
    22626  4.28762E-03 1.52530E+00-5.98782E-01 2.43849E-03 9.36648E-01-1.86248E-02 2.01999E-03 3.53937E-01 7.57419E-02 4.66366E+00-2.66655E+01-4.55805E+01



 n o d a l   p r i n t   o u t   f o r   t i m e  s t e p   16602                              ( at time 8.2996694E+00 )

 nodal point  x-rot      y-rot       z-rot       x-rot vel   y-rot vel   z-rot vel   x-rot acc   y-rot acc   z-rot acc
    22626 -9.24151E-03 1.33045E-05-9.63462E-06-6.17805E-03 1.26792E-05-4.23474E-05-2.30344E-03 7.17269E-05 1.57912E-05



 n o d a l   p r i n t   o u t   f o r   t i m e  s t e p   16802                              ( at time 8.3996594E+00 )

 nodal point  x-disp     y-disp      z-disp      x-vel       y-vel       z-vel      x-accl      y-accl      z-accl      x-coor      y-coor      z-coor
    22626  4.53999E-03 1.62073E+00-6.00255E-01 2.43423E-03 9.71411E-01-1.07587E-02-4.26822E-05 3.47673E-01 7.86689E-02 4.66392E+00-2.65701E+01-4.55820E+01



 n o d a l   p r i n t   o u t   f o r   t i m e  s t e p   16802                              ( at time 8.3996594E+00 )

 nodal point  x-rot      y-rot       z-rot       x-rot vel   y-rot vel   z-rot vel   x-rot acc   y-rot acc   z-rot acc
    22626 -9.87050E-03 1.46245E-05-1.40359E-05-6.39549E-03 7.66208E-06-3.96276E-05-2.17460E-03-5.01759E-05 2.72006E-05



 n o d a l   p r i n t   o u t   f o r   t i m e  s t e p   17002                              ( at time 8.4996494E+00 )

 nodal point  x-disp     y-disp      z-disp      x-vel       y-vel       z-vel      x-accl      y-accl      z-accl      x-coor      y-coor      z-coor
    22626  4.80497E-03 1.71962E+00-6.00925E-01 2.73468E-03 1.00645E+00-2.40070E-03 3.00481E-03 3.50464E-01 8.35887E-02 4.66418E+00-2.64712E+01-4.55826E+01



 n o d a l   p r i n t   o u t   f o r   t i m e  s t e p   17002                              ( at time 8.4996494E+00 )

 nodal point  x-rot      y-rot       z-rot       x-rot vel   y-rot vel   z-rot vel   x-rot acc   y-rot acc   z-rot acc
    22626 -1.05218E-02 1.55874E-05-1.80710E-05-6.62518E-03 8.57020E-06-4.07867E-05-2.29719E-03 9.08205E-06-1.15919E-05



 n o d a l   p r i n t   o u t   f o r   t i m e  s t e p   17202                              ( at time 8.5996394E+00 )

 nodal point  x-disp     y-disp      z-disp      x-vel       y-vel       z-vel      x-accl      y-accl      z-accl      x-coor      y-coor      z-coor
    22626  5.11605E-03 1.82195E+00-6.00736E-01 3.33390E-03 1.03990E+00 6.35284E-03 5.99288E-03 3.34512E-01 8.75442E-02 4.66449E+00-2.63689E+01-4.55825E+01



 n o d a l   p r i n t   o u t   f o r   t i m e  s t e p   17202                              ( at time 8.5996394E+00 )

 nodal point  x-rot      y-rot       z-rot       x-rot vel   y-rot vel   z-rot vel   x-rot acc   y-rot acc   z-rot acc
    22626 -1.11957E-02 1.69767E-05-2.21399E-05-6.83924E-03 1.32578E-05-3.25421E-05-2.14075E-03 4.68810E-05 8.24543E-05



 n o d a l   p r i n t   o u t   f o r   t i m e  s t e p   17402                              ( at time 8.6996293E+00 )

 nodal point  x-disp     y-disp      z-disp      x-vel       y-vel       z-vel      x-accl      y-accl      z-accl      x-coor      y-coor      z-coor
    22626  5.44934E-03 1.92764E+00-5.99575E-01 3.55464E-03 1.07329E+00 1.70007E-02 2.20755E-03 3.33904E-01 1.06488E-01 4.66482E+00-2.62632E+01-4.55813E+01



 n o d a l   p r i n t   o u t   f o r   t i m e  s t e p   17402                              ( at time 8.6996293E+00 )

 nodal point  x-rot      y-rot       z-rot       x-rot vel   y-rot vel   z-rot vel   x-rot acc   y-rot acc   z-rot acc
    22626 -1.18895E-02 1.86638E-05-2.55441E-05-7.03364E-03 2.32957E-05-3.13310E-05-1.94422E-03 1.00388E-04 1.21116E-05



 n o d a l   p r i n t   o u t   f o r   t i m e  s t e p   17602                              ( at time 8.7996193E+00 )

 nodal point  x-disp     y-disp      z-disp      x-vel       y-vel       z-vel      x-accl      y-accl      z-accl      x-coor      y-coor      z-coor
    22626  5.80343E-03 2.03664E+00-5.97336E-01 3.77709E-03 1.10657E+00 2.74446E-02 2.22478E-03 3.32796E-01 1.04449E-01 4.66518E+00-2.61542E+01-4.55791E+01



 n o d a l   p r i n t   o u t   f o r   t i m e  s t e p   17602                              ( at time 8.7996193E+00 )

 nodal point  x-rot      y-rot       z-rot       x-rot vel   y-rot vel   z-rot vel   x-rot acc   y-rot acc   z-rot acc
    22626 -1.26022E-02 2.08137E-05-2.88146E-05-7.22434E-03 2.73100E-05-3.27262E-05-1.90720E-03 4.01471E-05-1.39532E-05



 n o d a l   p r i n t   o u t   f o r   t i m e  s t e p   17802                              ( at time 8.8996093E+00 )

 nodal point  x-disp     y-disp      z-disp      x-vel       y-vel       z-vel      x-accl      y-accl      z-accl      x-coor      y-coor      z-coor
    22626  6.15541E-03 2.14893E+00-5.94008E-01 3.45636E-03 1.13916E+00 3.86329E-02-3.20765E-03 3.25950E-01 1.11895E-01 4.66553E+00-2.60419E+01-4.55757E+01



 n o d a l   p r i n t   o u t   f o r   t i m e  s t e p   17802                              ( at time 8.8996093E+00 )

 nodal point  x-rot      y-rot       z-rot       x-rot vel   y-rot vel   z-rot vel   x-rot acc   y-rot acc   z-rot acc
    22626 -1.33329E-02 2.38655E-05-3.13673E-05-7.39945E-03 2.59087E-05-2.19422E-05-1.75130E-03-1.40144E-05 1.07851E-04



 n o d a l   p r i n t   o u t   f o r   t i m e  s t e p   18002                              ( at time 8.9995993E+00 )

 nodal point  x-disp     y-disp      z-disp      x-vel       y-vel       z-vel      x-accl      y-accl      z-accl      x-coor      y-coor      z-coor
    22626  6.58652E-03 2.26442E+00-5.89590E-01 4.75040E-03 1.17089E+00 4.98958E-02 1.29417E-02 3.17315E-01 1.12640E-01 4.66596E+00-2.59264E+01-4.55713E+01



 n o d a l   p r i n t   o u t   f o r   t i m e  s t e p   18002                              ( at time 8.9995993E+00 )

 nodal point  x-rot      y-rot       z-rot       x-rot vel   y-rot vel   z-rot vel   x-rot acc   y-rot acc   z-rot acc
    22626 -1.40808E-02 2.66773E-05-3.38119E-05-7.54887E-03 3.11609E-05-1.53526E-05-1.49428E-03 5.25276E-05 6.59029E-05



 n o d a l   p r i n t   o u t   f o r   t i m e  s t e p   18202                              ( at time 9.0995893E+00 )

 nodal point  x-disp     y-disp      z-disp      x-vel       y-vel       z-vel      x-accl      y-accl      z-accl      x-coor      y-coor      z-coor
    22626  7.04020E-03 2.38308E+00-5.83994E-01 4.74640E-03 1.20217E+00 6.24117E-02-3.99578E-05 3.12874E-01 1.25172E-01 4.66642E+00-2.58078E+01-4.55657E+01



 n o d a l   p r i n t   o u t   f o r   t i m e  s t e p   18202                              ( at time 9.0995893E+00 )

 nodal point  x-rot      y-rot       z-rot       x-rot vel   y-rot vel   z-rot vel   x-rot acc   y-rot acc   z-rot acc
    22626 -1.48434E-02 3.06193E-05-3.47997E-05-7.69468E-03 4.36527E-05-7.03016E-06-1.45824E-03 1.24931E-04 8.32331E-05



 n o d a l   p r i n t   o u t   f o r   t i m e  s t e p   18402                              ( at time 9.1995793E+00 )

 nodal point  x-disp     y-disp      z-disp      x-vel       y-vel       z-vel      x-accl      y-accl      z-accl      x-coor      y-coor      z-coor
    22626  7.54848E-03 2.50480E+00-5.77111E-01 5.35151E-03 1.23249E+00 7.50510E-02 6.05167E-03 3.03273E-01 1.26406E-01 4.66692E+00-2.56860E+01-4.55588E+01



 n o d a l   p r i n t   o u t   f o r   t i m e  s t e p   18402                              ( at time 9.1995793E+00 )

 nodal point  x-rot      y-rot       z-rot       x-rot vel   y-rot vel   z-rot vel   x-rot acc   y-rot acc   z-rot acc
    22626 -1.56201E-02 3.47426E-05-3.59745E-05-7.83538E-03 4.16566E-05-1.66814E-05-1.40719E-03-1.99631E-05-9.65225E-05



 n o d a l   p r i n t   o u t   f o r   t i m e  s t e p   18602                              ( at time 9.2995693E+00 )

 nodal point  x-disp     y-disp      z-disp      x-vel       y-vel       z-vel      x-accl      y-accl      z-accl      x-coor      y-coor      z-coor
    22626  8.13970E-03 2.62957E+00-5.68966E-01 6.53718E-03 1.26293E+00 8.78586E-02 1.18579E-02 3.04346E-01 1.28089E-01 4.66751E+00-2.55613E+01-4.55507E+01



 n o d a l   p r i n t   o u t   f o r   t i m e  s t e p   18602                              ( at time 9.2995693E+00 )

 nodal point  x-rot      y-rot       z-rot       x-rot vel   y-rot vel   z-rot vel   x-rot acc   y-rot acc   z-rot acc
    22626 -1.64094E-02 3.95607E-05-3.62036E-05-7.94671E-03 5.58362E-05 4.36944E-06-1.11339E-03 1.41810E-04 2.10530E-04



 n o d a l   p r i n t   o u t   f o r   t i m e  s t e p   18802                              ( at time 9.3995593E+00 )

 nodal point  x-disp     y-disp      z-disp      x-vel       y-vel       z-vel      x-accl      y-accl      z-accl      x-coor      y-coor      z-coor
    22626  8.77336E-03 2.75732E+00-5.59524E-01 6.27983E-03 1.29217E+00 1.01289E-01-2.57373E-03 2.92462E-01 1.34322E-01 4.66815E+00-2.54335E+01-4.55412E+01



 n o d a l   p r i n t   o u t   f o r   t i m e  s t e p   18802                              ( at time 9.3995593E+00 )

 nodal point  x-rot      y-rot       z-rot       x-rot vel   y-rot vel   z-rot vel   x-rot acc   y-rot acc   z-rot acc
    22626 -1.72093E-02 4.44881E-05-3.56287E-05-8.05053E-03 3.98777E-05-4.51774E-06-1.03828E-03-1.59601E-04-8.88807E-05



 n o d a l   p r i n t   o u t   f o r   t i m e  s t e p   19002                              ( at time 9.4995493E+00 )

 nodal point  x-disp     y-disp      z-disp      x-vel       y-vel       z-vel      x-accl      y-accl      z-accl      x-coor      y-coor      z-coor
    22626  9.41975E-03 2.88794E+00-5.48679E-01 6.57073E-03 1.32040E+00 1.16026E-01 2.90928E-03 2.82385E-01 1.47375E-01 4.66879E+00-2.53029E+01-4.55304E+01



 n o d a l   p r i n t   o u t   f o r   t i m e  s t e p   19002                              ( at time 9.4995493E+00 )

 nodal point  x-rot      y-rot       z-rot       x-rot vel   y-rot vel   z-rot vel   x-rot acc   y-rot acc   z-rot acc
    22626 -1.80197E-02 4.92099E-05-3.60509E-05-8.14719E-03 5.03376E-05 6.31827E-06-9.66699E-04 1.04610E-04 1.08371E-04



 n o d a l   p r i n t   o u t   f o r   t i m e  s t e p   19202                              ( at time 9.5995393E+00 )

 nodal point  x-disp     y-disp      z-disp      x-vel       y-vel       z-vel      x-accl      y-accl      z-accl      x-coor      y-coor      z-coor
    22626  1.01116E-02 3.02134E+00-5.36281E-01 7.35135E-03 1.34743E+00 1.31686E-01 7.80693E-03 2.70288E-01 1.56617E-01 4.66949E+00-2.51695E+01-4.55180E+01



 n o d a l   p r i n t   o u t   f o r   t i m e  s t e p   19202                              ( at time 9.5995393E+00 )

 nodal point  x-rot      y-rot       z-rot       x-rot vel   y-rot vel   z-rot vel   x-rot acc   y-rot acc   z-rot acc
    22626 -1.88381E-02 5.50194E-05-3.51377E-05-8.22118E-03 6.57182E-05 1.47965E-05-7.39966E-04 1.53819E-04 8.47905E-05



 n o d a l   p r i n t   o u t   f o r   t i m e  s t e p   19402                              ( at time 9.6995293E+00 )

 nodal point  x-disp     y-disp      z-disp      x-vel       y-vel       z-vel      x-accl      y-accl      z-accl      x-coor      y-coor      z-coor
    22626  1.08419E-02 3.15742E+00-5.22303E-01 7.29810E-03 1.37377E+00 1.48091E-01-5.32528E-04 2.63467E-01 1.64067E-01 4.67022E+00-2.50334E+01-4.55040E+01



 n o d a l   p r i n t   o u t   f o r   t i m e  s t e p   19402                              ( at time 9.6995293E+00 )

 nodal point  x-rot      y-rot       z-rot       x-rot vel   y-rot vel   z-rot vel   x-rot acc   y-rot acc   z-rot acc
    22626 -1.96640E-02 6.16133E-05-3.43246E-05-8.29402E-03 6.53917E-05 9.60749E-06-7.28554E-04-3.26505E-06-5.18957E-05



 n o d a l   p r i n t   o u t   f o r   t i m e  s t e p   19602                              ( at time 9.7995193E+00 )

 nodal point  x-disp     y-disp      z-disp      x-vel       y-vel       z-vel      x-accl      y-accl      z-accl      x-coor      y-coor      z-coor
    22626  1.15731E-02 3.29606E+00-5.06607E-01 7.35917E-03 1.39886E+00 1.65607E-01 6.10716E-04 2.50839E-01 1.75179E-01 4.67095E+00-2.48948E+01-4.54883E+01



 n o d a l   p r i n t   o u t   f o r   t i m e  s t e p   19602                              ( at time 9.7995193E+00 )

 nodal point  x-rot      y-rot       z-rot       x-rot vel   y-rot vel   z-rot vel   x-rot acc   y-rot acc   z-rot acc
    22626 -2.04972E-02 6.82714E-05-3.23127E-05-8.37182E-03 7.67233E-05 2.90509E-05-7.78078E-04 1.13328E-04 1.94454E-04



 n o d a l   p r i n t   o u t   f o r   t i m e  s t e p   19802                              ( at time 9.8995093E+00 )

 nodal point  x-disp     y-disp      z-disp      x-vel       y-vel       z-vel      x-accl      y-accl      z-accl      x-coor      y-coor      z-coor
    22626  1.23886E-02 3.43716E+00-4.89113E-01 8.66277E-03 1.42294E+00 1.84873E-01 1.30373E-02 2.40814E-01 1.92678E-01 4.67176E+00-2.47537E+01-4.54708E+01



 n o d a l   p r i n t   o u t   f o r   t i m e  s t e p   19802                              ( at time 9.8995093E+00 )

 nodal point  x-rot      y-rot       z-rot       x-rot vel   y-rot vel   z-rot vel   x-rot acc   y-rot acc   z-rot acc
    22626 -2.13377E-02 7.71678E-05-2.88140E-05-8.43581E-03 1.00754E-04 4.08580E-05-6.39948E-04 2.40335E-04 1.18082E-04



 n o d a l   p r i n t   o u t   f o r   t i m e  s t e p   20003                              ( at time 9.9999992E+00 )

 nodal point  x-disp     y-disp      z-disp      x-vel       y-vel       z-vel      x-accl      y-accl      z-accl      x-coor      y-coor      z-coor
[...]
    22626 -1.93581E-01-2.13323E-03-8.04034E-03-2.22173E-02 1.68082E-04-5.24402E-04-5.01451E-04 2.86835E-04-3.05385E-06



 n o d a l   p r i n t   o u t   f o r   t i m e  s t e p   45205                              ( at time 2.2599738E+01 )

 nodal point  x-disp     y-disp      z-disp      x-vel       y-vel       z-vel      x-accl      y-accl      z-accl      x-coor      y-coor      z-coor
    22626 -5.64203E-01 2.31071E+01 1.83804E+01-9.91135E-02 1.81259E+00 9.62960E-01-3.89500E-03 1.20174E-02-1.01717E-01 4.09517E+00-5.08372E+00-2.66013E+01



 n o d a l   p r i n t   o u t   f o r   t i m e  s t e p   45205                              ( at time 2.2599738E+01 )

 nodal point  x-rot      y-rot       z-rot       x-rot vel   y-rot vel   z-rot vel   x-rot acc   y-rot acc   z-rot acc
    22626 -1.95806E-01-2.11678E-03-8.09189E-03-2.22848E-02 1.59976E-04-4.95584E-04-6.75289E-04-8.10744E-05 2.88213E-04



 n o d a l   p r i n t   o u t   f o r   t i m e  s t e p   45405                              ( at time 2.2699728E+01 )

 nodal point  x-disp     y-disp      z-disp      x-vel       y-vel       z-vel      x-accl      y-accl      z-accl      x-coor      y-coor      z-coor
    22626 -5.74124E-01 2.32883E+01 1.84762E+01-1.00440E-01 1.81092E+00 9.51651E-01-1.32629E-02-1.67734E-02-1.13108E-01 4.08525E+00-4.90257E+00-2.65056E+01



 n o d a l   p r i n t   o u t   f o r   t i m e  s t e p   45405                              ( at time 2.2699728E+01 )

 nodal point  x-rot      y-rot       z-rot       x-rot vel   y-rot vel   z-rot vel   x-rot acc   y-rot acc   z-rot acc
    22626 -1.98036E-01-2.09985E-03-8.14130E-03-2.23275E-02 1.76325E-04-5.01221E-04-4.26276E-04 1.63512E-04-5.63740E-05



 n o d a l   p r i n t   o u t   f o r   t i m e  s t e p   45605                              ( at time 2.2799718E+01 )

 nodal point  x-disp     y-disp      z-disp      x-vel       y-vel       z-vel      x-accl      y-accl      z-accl      x-coor      y-coor      z-coor
    22626 -5.84115E-01 2.34694E+01 1.85708E+01-9.94956E-02 1.81091E+00 9.43655E-01 9.44157E-03-8.22619E-05-7.99640E-02 4.07526E+00-4.72145E+00-2.64109E+01



 n o d a l   p r i n t   o u t   f o r   t i m e  s t e p   45605                              ( at time 2.2799718E+01 )

 nodal point  x-rot      y-rot       z-rot       x-rot vel   y-rot vel   z-rot vel   x-rot acc   y-rot acc   z-rot acc
    22626 -2.00272E-01-2.08115E-03-8.19197E-03-2.23801E-02 2.00807E-04-4.94501E-04-5.26488E-04 2.44838E-04 6.71987E-05



 n o d a l   p r i n t   o u t   f o r   t i m e  s t e p   45805                              ( at time 2.2899708E+01 )

 nodal point  x-disp     y-disp      z-disp      x-vel       y-vel       z-vel      x-accl      y-accl      z-accl      x-coor      y-coor      z-coor
    22626 -5.94088E-01 2.36505E+01 1.86648E+01-9.96914E-02 1.81029E+00 9.34675E-01-1.95823E-03-6.16499E-03-8.98061E-02 4.06529E+00-4.54035E+00-2.63169E+01



 n o d a l   p r i n t   o u t   f o r   t i m e  s t e p   45805                              ( at time 2.2899708E+01 )

 nodal point  x-rot      y-rot       z-rot       x-rot vel   y-rot vel   z-rot vel   x-rot acc   y-rot acc   z-rot acc
    22626 -2.02512E-01-2.06064E-03-8.23895E-03-2.24222E-02 2.08059E-04-4.61461E-04-4.20576E-04 7.25303E-05 3.30444E-04



 n o d a l   p r i n t   o u t   f o r   t i m e  s t e p   46005                              ( at time 2.2999698E+01 )

 nodal point  x-disp     y-disp      z-disp      x-vel       y-vel       z-vel      x-accl      y-accl      z-accl      x-coor      y-coor      z-coor
    22626 -6.04118E-01 2.38314E+01 1.87578E+01-1.00688E-01 1.80859E+00 9.26573E-01-9.96435E-03-1.70282E-02-8.10262E-02 4.05526E+00-4.35943E+00-2.62239E+01



 n o d a l   p r i n t   o u t   f o r   t i m e  s t e p   46005                              ( at time 2.2999698E+01 )

 nodal point  x-rot      y-rot       z-rot       x-rot vel   y-rot vel   z-rot vel   x-rot acc   y-rot acc   z-rot acc
    22626 -2.04756E-01-2.04038E-03-8.28641E-03-2.24736E-02 2.07788E-04-4.81618E-04-5.14901E-04-2.70472E-06-2.01595E-04



 n o d a l   p r i n t   o u t   f o r   t i m e  s t e p   46205                              ( at time 2.3099688E+01 )

 nodal point  x-disp     y-disp      z-disp      x-vel       y-vel       z-vel      x-accl      y-accl      z-accl      x-coor      y-coor      z-coor
    22626 -6.14215E-01 2.40122E+01 1.88502E+01-1.00632E-01 1.80755E+00 9.21192E-01 5.57589E-04-1.04129E-02-5.38248E-02 4.04516E+00-4.17867E+00-2.61316E+01



 n o d a l   p r i n t   o u t   f o r   t i m e  s t e p   46205                              ( at time 2.3099688E+01 )

 nodal point  x-rot      y-rot       z-rot       x-rot vel   y-rot vel   z-rot vel   x-rot acc   y-rot acc   z-rot acc
    22626 -2.07005E-01-2.01791E-03-8.33312E-03-2.25079E-02 2.37958E-04-4.52581E-04-3.42765E-04 3.01725E-04 2.90408E-04



 n o d a l   p r i n t   o u t   f o r   t i m e  s t e p   46405                              ( at time 2.3199678E+01 )

 nodal point  x-disp     y-disp      z-disp      x-vel       y-vel       z-vel      x-accl      y-accl      z-accl      x-coor      y-coor      z-coor
    22626 -6.24248E-01 2.41928E+01 1.89419E+01-1.00678E-01 1.80499E+00 9.14720E-01-4.63618E-04-2.56085E-02-6.47193E-02 4.03513E+00-3.99807E+00-2.60398E+01



 n o d a l   p r i n t   o u t   f o r   t i m e  s t e p   46405                              ( at time 2.3199678E+01 )

 nodal point  x-rot      y-rot       z-rot       x-rot vel   y-rot vel   z-rot vel   x-rot acc   y-rot acc   z-rot acc
    22626 -2.09257E-01-1.99506E-03-8.37851E-03-2.25354E-02 2.16517E-04-4.49649E-04-2.74449E-04-2.14429E-04 2.93172E-05



 n o d a l   p r i n t   o u t   f o r   t i m e  s t e p   46605                              ( at time 2.3299668E+01 )

 nodal point  x-disp     y-disp      z-disp      x-vel       y-vel       z-vel      x-accl      y-accl      z-accl      x-coor      y-coor      z-coor
    22626 -6.34294E-01 2.43731E+01 1.90331E+01-1.00953E-01 1.80252E+00 9.10320E-01-2.74219E-03-2.47160E-02-4.40026E-02 4.02508E+00-3.81770E+00-2.59486E+01



 n o d a l   p r i n t   o u t   f o r   t i m e  s t e p   46605                              ( at time 2.3299668E+01 )

 nodal point  x-rot      y-rot       z-rot       x-rot vel   y-rot vel   z-rot vel   x-rot acc   y-rot acc   z-rot acc
    22626 -2.11513E-01-1.97217E-03-8.42328E-03-2.25908E-02 2.39327E-04-4.36232E-04-5.54440E-04 2.28132E-04 1.34187E-04



 n o d a l   p r i n t   o u t   f o r   t i m e  s t e p   46805                              ( at time 2.3399658E+01 )

 nodal point  x-disp     y-disp      z-disp      x-vel       y-vel       z-vel      x-accl      y-accl      z-accl      x-coor      y-coor      z-coor
    22626 -6.44393E-01 2.45532E+01 1.91240E+01-1.00272E-01 1.79955E+00 9.06479E-01 6.80718E-03-2.97073E-02-3.84187E-02 4.01498E+00-3.63763E+00-2.58578E+01



 n o d a l   p r i n t   o u t   f o r   t i m e  s t e p   46805                              ( at time 2.3399658E+01 )

 nodal point  x-rot      y-rot       z-rot       x-rot vel   y-rot vel   z-rot vel   x-rot acc   y-rot acc   z-rot acc
    22626 -2.13771E-01-1.94775E-03-8.46768E-03-2.25887E-02 2.42466E-04-4.55392E-04 2.12175E-05 3.13940E-05-1.91615E-04



 n o d a l   p r i n t   o u t   f o r   t i m e  s t e p   47005                              ( at time 2.3499648E+01 )

 nodal point  x-disp     y-disp      z-disp      x-vel       y-vel       z-vel      x-accl      y-accl      z-accl      x-coor      y-coor      z-coor
    22626 -6.54466E-01 2.47331E+01 1.92145E+01-1.01185E-01 1.79728E+00 9.04391E-01-9.12914E-03-2.26781E-02-2.08778E-02 4.00491E+00-3.45775E+00-2.57672E+01



 n o d a l   p r i n t   o u t   f o r   t i m e  s t e p   47005                              ( at time 2.3499648E+01 )

 nodal point  x-rot      y-rot       z-rot       x-rot vel   y-rot vel   z-rot vel   x-rot acc   y-rot acc   z-rot acc
    22626 -2.16031E-01-1.92295E-03-8.51165E-03-2.26090E-02 2.47260E-04-4.30040E-04-2.02972E-04 4.79381E-05 2.53543E-04



 n o d a l   p r i n t   o u t   f o r   t i m e  s t e p   47205                              ( at time 2.3599638E+01 )

 nodal point  x-disp     y-disp      z-disp      x-vel       y-vel       z-vel      x-accl      y-accl      z-accl      x-coor      y-coor      z-coor
    22626 -6.64552E-01 2.49126E+01 1.93048E+01-1.00776E-01 1.79336E+00 9.01954E-01 4.08836E-03-3.91717E-02-2.43804E-02 3.99482E+00-3.27823E+00-2.56769E+01



 n o d a l   p r i n t   o u t   f o r   t i m e  s t e p   47205                              ( at time 2.3599638E+01 )

 nodal point  x-rot      y-rot       z-rot       x-rot vel   y-rot vel   z-rot vel   x-rot acc   y-rot acc   z-rot acc
    22626 -2.18293E-01-1.89765E-03-8.55371E-03-2.26328E-02 2.56505E-04-4.17111E-04-2.37812E-04 9.24635E-05 1.29306E-04



 n o d a l   p r i n t   o u t   f o r   t i m e  s t e p   47405                              ( at time 2.3699628E+01 )

 nodal point  x-disp     y-disp      z-disp      x-vel       y-vel       z-vel      x-accl      y-accl      z-accl      x-coor      y-coor      z-coor
    22626 -6.74605E-01 2.50918E+01 1.93950E+01-1.00744E-01 1.79160E+00 9.02283E-01 3.16828E-04-1.75981E-02 3.29227E-03 3.98477E+00-3.09904E+00-2.55867E+01



 n o d a l   p r i n t   o u t   f o r   t i m e  s t e p   47405                              ( at time 2.3699628E+01 )

 nodal point  x-rot      y-rot       z-rot       x-rot vel   y-rot vel   z-rot vel   x-rot acc   y-rot acc   z-rot acc
    22626 -2.20556E-01-1.87099E-03-8.59594E-03-2.26138E-02 2.81842E-04-4.24175E-04 1.89113E-04 2.53397E-04-7.06531E-05



 n o d a l   p r i n t   o u t   f o r   t i m e  s t e p   47605                              ( at time 2.3799618E+01 )

 nodal point  x-disp     y-disp      z-disp      x-vel       y-vel       z-vel      x-accl      y-accl      z-accl      x-coor      y-coor      z-coor
    22626 -6.84743E-01 2.52708E+01 1.94852E+01-1.00793E-01 1.78757E+00 9.01973E-01-4.87173E-04-4.03187E-02-3.09919E-03 3.97463E+00-2.92007E+00-2.54965E+01



 n o d a l   p r i n t   o u t   f o r   t i m e  s t e p   47605                              ( at time 2.3799618E+01 )

 nodal point  x-rot      y-rot       z-rot       x-rot vel   y-rot vel   z-rot vel   x-rot acc   y-rot acc   z-rot acc
    22626 -2.22818E-01-1.84444E-03-8.63740E-03-2.26188E-02 2.60487E-04-4.07182E-04-4.97940E-05-2.13579E-04 1.69947E-04



 n o d a l   p r i n t   o u t   f o r   t i m e  s t e p   47805                              ( at time 2.3899608E+01 )

 nodal point  x-disp     y-disp      z-disp      x-vel       y-vel       z-vel      x-accl      y-accl      z-accl      x-coor      y-coor      z-coor
    22626 -6.94764E-01 2.54492E+01 1.95754E+01-1.00712E-01 1.78336E+00 9.03008E-01 8.10101E-04-4.20907E-02 1.03567E-02 3.96461E+00-2.74158E+00-2.54063E+01



 n o d a l   p r i n t   o u t   f o r   t i m e  s t e p   47805                              ( at time 2.3899608E+01 )

 nodal point  x-rot      y-rot       z-rot       x-rot vel   y-rot vel   z-rot vel   x-rot acc   y-rot acc   z-rot acc
    22626 -2.25081E-01-1.81762E-03-8.67833E-03-2.26192E-02 2.83155E-04-3.98905E-04-3.74426E-06 2.26698E-04 8.27870E-05



 n o d a l   p r i n t   o u t   f o r   t i m e  s t e p   48005                              ( at time 2.3999598E+01 )

 nodal point  x-disp     y-disp      z-disp      x-vel       y-vel       z-vel      x-accl      y-accl      z-accl      x-coor      y-coor      z-coor
    22626 -7.04801E-01 2.56274E+01 1.96658E+01-1.00303E-01 1.78058E+00 9.06127E-01 4.09037E-03-2.78528E-02 3.11850E-02 3.95457E+00-2.56342E+00-2.53159E+01



 n o d a l   p r i n t   o u t   f o r   t i m e  s t e p   48005                              ( at time 2.3999598E+01 )

 nodal point  x-rot      y-rot       z-rot       x-rot vel   y-rot vel   z-rot vel   x-rot acc   y-rot acc   z-rot acc
    22626 -2.27343E-01-1.78924E-03-8.71786E-03-2.26008E-02 2.74680E-04-3.99151E-04 1.83733E-04-8.47557E-05-2.46217E-06



 n o d a l   p r i n t   o u t   f o r   t i m e  s t e p   48205                              ( at time 2.4099588E+01 )

 nodal point  x-disp     y-disp      z-disp      x-vel       y-vel       z-vel      x-accl      y-accl      z-accl      x-coor      y-coor      z-coor
    22626 -7.14874E-01 2.58052E+01 1.97565E+01-1.00383E-01 1.77586E+00 9.07727E-01-8.00191E-04-4.71981E-02 1.60059E-02 3.94450E+00-2.38564E+00-2.52253E+01



 n o d a l   p r i n t   o u t   f o r   t i m e  s t e p   48205                              ( at time 2.4099588E+01 )

 nodal point  x-rot      y-rot       z-rot       x-rot vel   y-rot vel   z-rot vel   x-rot acc   y-rot acc   z-rot acc
    22626 -2.29603E-01-1.76199E-03-8.75780E-03-2.25949E-02 2.70043E-04-3.99510E-04 5.89581E-05-4.63722E-05-3.59029E-06



 n o d a l   p r i n t   o u t   f o r   t i m e  s t e p   48405                              ( at time 2.4199578E+01 )

 nodal point  x-disp     y-disp      z-disp      x-vel       y-vel       z-vel      x-accl      y-accl      z-accl      x-coor      y-coor      z-coor
    22626 -7.24882E-01 2.59825E+01 1.98474E+01-1.00175E-01 1.77039E+00 9.11907E-01 2.08162E-03-5.46528E-02 4.18054E-02 3.93449E+00-2.20832E+00-2.51343E+01



 n o d a l   p r i n t   o u t   f o r   t i m e  s t e p   48405                              ( at time 2.4199578E+01 )

 nodal point  x-rot      y-rot       z-rot       x-rot vel   y-rot vel   z-rot vel   x-rot acc   y-rot acc   z-rot acc
    22626 -2.31862E-01-1.73403E-03-8.79721E-03-2.25842E-02 2.80117E-04-3.81659E-04 1.07207E-04 1.00753E-04 1.78528E-04



 n o d a l   p r i n t   o u t   f o r   t i m e  s t e p   48605                              ( at time 2.4299568E+01 )

 nodal point  x-disp     y-disp      z-disp      x-vel       y-vel       z-vel      x-accl      y-accl      z-accl      x-coor      y-coor      z-coor
    22626 -7.34868E-01 2.61594E+01 1.99389E+01-9.93017E-02 1.76722E+00 9.16429E-01 8.73184E-03-3.17221E-02 4.52274E-02 3.92451E+00-2.03141E+00-2.50429E+01



 n o d a l   p r i n t   o u t   f o r   t i m e  s t e p   48605                              ( at time 2.4299568E+01 )

 nodal point  x-rot      y-rot       z-rot       x-rot vel   y-rot vel   z-rot vel   x-rot acc   y-rot acc   z-rot acc
    22626 -2.34118E-01-1.70539E-03-8.83564E-03-2.25548E-02 2.85820E-04-3.91082E-04 2.94139E-04 5.70310E-05-9.42361E-05



 n o d a l   p r i n t   o u t   f o r   t i m e  s t e p   48805                              ( at time 2.4399558E+01 )

 nodal point  x-disp     y-disp      z-disp      x-vel       y-vel       z-vel      x-accl      y-accl      z-accl      x-coor      y-coor      z-coor
    22626 -7.44858E-01 2.63359E+01 2.00308E+01-1.00678E-01 1.76166E+00 9.22208E-01-1.37616E-02-5.55828E-02 5.77926E-02 3.91452E+00-1.85495E+00-2.49509E+01



 n o d a l   p r i n t   o u t   f o r   t i m e  s t e p   48805                              ( at time 2.4399558E+01 )

 nodal point  x-rot      y-rot       z-rot       x-rot vel   y-rot vel   z-rot vel   x-rot acc   y-rot acc   z-rot acc
    22626 -2.36370E-01-1.67728E-03-8.87425E-03-2.25115E-02 2.80414E-04-3.85837E-04 4.33328E-04-5.40679E-05 5.24490E-05



 n o d a l   p r i n t   o u t   f o r   t i m e  s t e p   49006                              ( at time 2.4500048E+01 )

 nodal point  x-disp     y-disp      z-disp      x-vel       y-vel       z-vel      x-accl      y-accl      z-accl      x-coor      y-coor      z-coor
    22626 -7.54948E-01 2.65127E+01 2.01238E+01-1.00153E-01 1.75760E+00 9.29022E-01 5.22259E-03-4.03898E-02 6.78027E-02 3.90443E+00-1.67811E+00-2.48579E+01



 n o d a l   p r i n t   o u t   f o r   t i m e  s t e p   49006                              ( at time 2.4500048E+01 )

 nodal point  x-rot      y-rot       z-rot       x-rot vel   y-rot vel   z-rot vel   x-rot acc   y-rot acc   z-rot acc
    22626 -2.38631E-01-1.64863E-03-8.91279E-03-2.24804E-02 2.92012E-04-3.79210E-04 3.09049E-04 1.15419E-04 6.59457E-05



 n o d a l   p r i n t   o u t   f o r   t i m e  s t e p   49206                              ( at time 2.4600038E+01 )

 nodal point  x-disp     y-disp      z-disp      x-vel       y-vel       z-vel      x-accl      y-accl      z-accl      x-coor      y-coor      z-coor
    22626 -7.64897E-01 2.66882E+01 2.02170E+01-9.93644E-02 1.75270E+00 9.36051E-01 7.88604E-03-4.90841E-02 7.02964E-02 3.89448E+00-1.50267E+00-2.47647E+01



 n o d a l   p r i n t   o u t   f o r   t i m e  s t e p   49206                              ( at time 2.4600038E+01 )

 nodal point  x-rot      y-rot       z-rot       x-rot vel   y-rot vel   z-rot vel   x-rot acc   y-rot acc   z-rot acc
    22626 -2.40878E-01-1.61943E-03-8.95071E-03-2.24456E-02 2.95712E-04-3.77489E-04 3.48570E-04 3.70095E-05 1.72153E-05



 n o d a l   p r i n t   o u t   f o r   t i m e  s t e p   49406                              ( at time 2.4700028E+01 )

 nodal point  x-disp     y-disp      z-disp      x-vel       y-vel       z-vel      x-accl      y-accl      z-accl      x-coor      y-coor      z-coor
    22626 -7.74900E-01 2.68631E+01 2.03110E+01-9.95218E-02 1.74694E+00 9.43760E-01-1.57418E-03-5.75952E-02 7.70982E-02 3.88448E+00-1.32770E+00-2.46707E+01



 n o d a l   p r i n t   o u t   f o r   t i m e  s t e p   49406                              ( at time 2.4700028E+01 )

 nodal point  x-rot      y-rot       z-rot       x-rot vel   y-rot vel   z-rot vel   x-rot acc   y-rot acc   z-rot acc
    22626 -2.43119E-01-1.59063E-03-8.98783E-03-2.23915E-02 2.84408E-04-3.71559E-04 5.40711E-04-1.13057E-04 5.93050E-05



 n o d a l   p r i n t   o u t   f o r   t i m e  s t e p   49606                              ( at time 2.4800018E+01 )

 nodal point  x-disp     y-disp      z-disp      x-vel       y-vel       z-vel      x-accl      y-accl      z-accl      x-coor      y-coor      z-coor
    22626 -7.84831E-01 2.70375E+01 2.04058E+01-9.95219E-02 1.74164E+00 9.52291E-01-1.19220E-06-5.29874E-02 8.53181E-02 3.87454E+00-1.15333E+00-2.45759E+01



 n o d a l   p r i n t   o u t   f o r   t i m e  s t e p   49606                              ( at time 2.4800018E+01 )

 nodal point  x-rot      y-rot       z-rot       x-rot vel   y-rot vel   z-rot vel   x-rot acc   y-rot acc   z-rot acc
    22626 -2.45356E-01-1.56221E-03-9.02575E-03-2.23547E-02 2.81610E-04-3.80439E-04 3.68111E-04-2.79876E-05-8.88106E-05



 n o d a l   p r i n t   o u t   f o r   t i m e  s t e p   49806                              ( at time 2.4900008E+01 )

 nodal point  x-disp     y-disp      z-disp      x-vel       y-vel       z-vel      x-accl      y-accl      z-accl      x-coor      y-coor      z-coor
    22626 -7.94761E-01 2.72114E+01 2.05015E+01-9.86946E-02 1.73635E+00 9.61602E-01 8.27404E-03-5.28728E-02 9.31265E-02 3.86461E+00-9.79464E-01-2.44802E+01



 n o d a l   p r i n t   o u t   f o r   t i m e  s t e p   49806                              ( at time 2.4900008E+01 )

 nodal point  x-rot      y-rot       z-rot       x-rot vel   y-rot vel   z-rot vel   x-rot acc   y-rot acc   z-rot acc
    22626 -2.47588E-01-1.53370E-03-9.06310E-03-2.23001E-02 2.83575E-04-3.68214E-04 5.45517E-04 1.96574E-05 1.22269E-04



 n o d a l   p r i n t   o u t   f o r   t i m e  s t e p   50006                              ( at time 2.4999998E+01 )

 nodal point  x-disp     y-disp      z-disp      x-vel       y-vel       z-vel      x-accl      y-accl      z-accl      x-coor      y-coor      z-coor
    22626 -8.04634E-01 2.73847E+01 2.05981E+01-9.86580E-02 1.73074E+00 9.70580E-01 3.66304E-04-5.60907E-02 8.97847E-02 3.85474E+00-8.06154E-01-2.43837E+01



 n o d a l   p r i n t   o u t   f o r   t i m e  s t e p   50006                              ( at time 2.4999998E+01 )

 nodal point  x-rot      y-rot       z-rot       x-rot vel   y-rot vel   z-rot vel   x-rot acc   y-rot acc   z-rot acc
    22626 -2.49814E-01-1.50495E-03-9.09934E-03-2.22330E-02 2.90207E-04-3.63637E-04 6.71564E-04 6.63229E-05 4.57723E-05
