 LSTC 50th% Full_FE H-III Dummy (Beta Version, February 17, 2019)        
                    ls-dyna smp s R16 R16.0_619_d222963 date 03/18/2025

{BEGIN LEGEND}
 Entity #        Title
        1     Upper_Neck_Force_INJURY                                              
{END LEGEND}



 line#1  section#     time        x-force     y-force     z-force    magnitude
 line#2  resultant  moments       x-moment    y-moment    z-moment   magnitude
 line#3  centroids                x           y           z            area  
           1    0.00000E+00     0.0000E+00  0.0000E+00  0.0000E+00  0.0000E+00
ac ID =   33377                 0.0000E+00  0.0000E+00  0.0000E+00  0.0000E+00
                               -3.7437E-01  1.0501E+01 -4.6940E+01  0.0000E+00

           1    1.00490E-01     1.3641E-04 -4.9877E-03  2.5982E-01  2.5987E-01
ac ID =   33377                 4.2550E-01 -1.2521E+00 -2.7103E-02  1.3227E+00
                               -3.7387E-01  1.0590E+01 -4.6886E+01  2.5147E+03

           1    2.00480E-01    -4.4285E-02  7.2604E-04  4.4124E-01  4.4346E-01
ac ID =   33377                 3.0909E-01 -1.5981E+00  2.1186E-02  1.6278E+00
                               -3.7386E-01  1.0591E+01 -4.6888E+01  2.5147E+03

           1    3.00470E-01     1.4524E-02 -3.2850E-03  2.1766E-01  2.1817E-01
ac ID =   33377                 2.9328E-02 -3.3388E-01  6.8725E-02  3.4214E-01
                               -3.7382E-01  1.0591E+01 -4.6889E+01  2.5147E+03

           1    4.00460E-01     2.8076E-03  1.0616E-02  8.7933E-02  8.8616E-02
ac ID =   33377                -5.0098E-01 -9.3809E-01  1.1952E-03  1.0635E+00
                               -3.7383E-01  1.0592E+01 -4.6890E+01  2.5147E+03

           1    5.00450E-01    -4.0822E-02  4.5371E-03  1.6178E-01  1.6691E-01
ac ID =   33377                -3.9315E-01 -1.5048E+00 -1.0487E-01  1.5588E+00
                               -3.7385E-01  1.0594E+01 -4.6893E+01  2.5147E+03

           1    6.00440E-01    -1.0781E-02  4.0444E-03  3.4357E-01  3.4376E-01
ac ID =   33377                 9.1697E-02 -1.3255E+00 -3.6738E-02  1.3292E+00
                               -3.7385E-01  1.0595E+01 -4.6897E+01  2.5147E+03

           1    7.00430E-01     2.9850E-03 -5.3658E-03  2.9404E-01  2.9410E-01
ac ID =   33377                 1.3714E-01 -4.9408E-01  7.6393E-02  5.1842E-01
                               -3.7389E-01  1.0597E+01 -4.6901E+01  2.5147E+03

           1    8.00420E-01    -3.1153E-02 -1.3399E-03  1.0060E-01  1.0532E-01
ac ID =   33377                 8.5982E-02 -1.0533E+00  4.8225E-02  1.0579E+00
                               -3.7394E-01  1.0599E+01 -4.6905E+01  2.5147E+03

           1    9.00410E-01    -3.9309E-02  1.0635E-03  6.2271E-02  7.3648E-02
ac ID =   33377                 8.8396E-02 -1.0681E+00 -5.3618E-03  1.0718E+00
                               -3.7399E-01  1.0601E+01 -4.6909E+01  2.5147E+03

           1    1.00040E+00     1.4924E-02 -3.6508E-03  2.2075E-01  2.2129E-01
ac ID =   33377                 3.6802E-01 -2.8329E-01 -5.8748E-02  4.6813E-01
                               -3.7400E-01  1.0604E+01 -4.6915E+01  2.5147E+03

           1    1.10039E+00     3.7694E-04 -3.3150E-03  2.7103E-01  2.7105E-01
ac ID =   33377                 3.4622E-01 -8.8138E-01 -5.0305E-02  9.4828E-01
                               -3.7401E-01  1.0607E+01 -4.6921E+01  2.5147E+03

           1    1.20038E+00    -3.2233E-02 -5.2677E-04  1.2890E-01  1.3287E-01
ac ID =   33377                -1.5654E-01 -1.1798E+00  5.6769E-03  1.1901E+00
                               -3.7403E-01  1.0610E+01 -4.6927E+01  2.5147E+03

           1    1.30037E+00    -1.0079E-02  4.5049E-03  7.5082E-02  7.5889E-02
ac ID =   33377                -3.0157E-01 -8.8225E-01  1.6938E-02  9.3252E-01
                               -3.7407E-01  1.0612E+01 -4.6933E+01  2.5147E+03

           1    1.40036E+00     7.6129E-03  3.6004E-03  1.7350E-01  1.7371E-01
ac ID =   33377                -2.9421E-01 -8.3533E-01  2.7688E-02  8.8606E-01
                               -3.7409E-01  1.0616E+01 -4.6941E+01  2.5147E+03

           1    1.50035E+00    -2.6773E-02  7.3858E-04  3.2860E-01  3.2969E-01
ac ID =   33377                -1.8624E-02 -1.5833E+00 -4.3808E-02  1.5840E+00
                               -3.7413E-01  1.0620E+01 -4.6949E+01  2.5147E+03

           1    1.60034E+00    -1.9141E-02 -2.4950E-03  2.2118E-01  2.2202E-01
ac ID =   33377                -1.2212E-02 -1.3702E+00 -1.6981E-02  1.3703E+00
                               -3.7420E-01  1.0624E+01 -4.6957E+01  2.5147E+03

           1    1.70033E+00    -3.0161E-03 -7.7324E-04  5.8714E-02  5.8797E-02
ac ID =   33377                -4.8274E-02 -6.7011E-01  8.6230E-02  6.7736E-01
                               -3.7427E-01  1.0627E+01 -4.6965E+01  2.5147E+03

           1    1.80032E+00    -2.0185E-02  7.8046E-04  7.7575E-02  8.0162E-02
ac ID =   33377                 8.2014E-02 -1.1097E+00  1.2286E-01  1.1195E+00
                               -3.7434E-01  1.0632E+01 -4.6974E+01  2.5147E+03

           1    1.90031E+00    -7.6796E-03 -2.8476E-03  1.9147E-01  1.9164E-01
ac ID =   33377                 2.6741E-01 -8.2869E-01 -6.8116E-02  8.7342E-01
                               -3.7439E-01  1.0636E+01 -4.6984E+01  2.5147E+03

           1    2.00030E+00    -2.0232E-03 -4.5691E-03  1.5677E-01  1.5685E-01
ac ID =   33377                 2.0610E-01 -4.4539E-01 -1.4278E-01  5.1111E-01
                               -3.7444E-01  1.0641E+01 -4.6993E+01  2.5147E+03

           1    2.10029E+00    -2.5327E-02  2.3618E-03  2.6471E-03  2.5574E-02
ac ID =   33377                -7.8071E-02 -6.9914E-01  3.5499E-02  7.0438E-01
                               -3.7450E-01  1.0645E+01 -4.7003E+01  2.5147E+03

           1    2.20028E+00    -1.3157E-02  5.0206E-03  3.3641E-03  1.4479E-02
ac ID =   33377                -2.4315E-01 -6.6500E-01  2.3893E-02  7.0846E-01
                               -3.7456E-01  1.0650E+01 -4.7013E+01  2.5147E+03

           1    2.30027E+00     1.1293E-03  4.6516E-03  1.4915E-01  1.4922E-01
ac ID =   33377                -1.4718E-01 -8.1734E-01 -6.5141E-02  8.3303E-01
                               -3.7461E-01  1.0655E+01 -4.7024E+01  2.5147E+03

           1    2.40026E+00    -1.7715E-02 -1.7782E-03  1.8837E-01  1.8921E-01
ac ID =   33377                -1.5130E-01 -1.1886E+00  7.3358E-02  1.2004E+00
                               -3.7469E-01  1.0661E+01 -4.7035E+01  2.5147E+03

           1    2.50025E+00    -1.8880E-02  1.0941E-03  6.0107E-04  1.8921E-02
ac ID =   33377                -1.9434E-01 -8.9291E-01  1.2831E-01  9.2278E-01
                               -3.7479E-01  1.0665E+01 -4.7045E+01  2.5147E+03

           1    2.60024E+00    -7.0749E-03  5.8646E-03 -7.6916E-02  7.7463E-02
ac ID =   33377                -2.0646E-01 -1.8239E-01  4.1955E-02  2.7866E-01
                               -3.7490E-01  1.0671E+01 -4.7056E+01  2.5147E+03

           1    2.70023E+00    -1.2068E-02 -1.6580E-03  9.7540E-03  1.5605E-02
ac ID =   33377                 3.0754E-02 -2.1618E-01  3.3230E-02  2.2087E-01
                               -3.7501E-01  1.0676E+01 -4.7068E+01  2.5147E+03

           1    2.80022E+00    -5.5591E-03 -4.8296E-03  6.3639E-02  6.4064E-02
ac ID =   33377                 3.6763E-01 -1.4002E-01 -1.6467E-02  3.9374E-01
                               -3.7510E-01  1.0682E+01 -4.7079E+01  2.5147E+03

           1    2.90021E+00     5.2925E-03 -2.4786E-03 -9.9392E-03  1.1530E-02
ac ID =   33377                 1.4721E-01  3.1033E-01 -7.7263E-02  3.5206E-01
                               -3.7520E-01  1.0687E+01 -4.7090E+01  2.5147E+03

           1    3.00020E+00    -7.2424E-03  1.9575E-03 -8.9025E-02  8.9340E-02
ac ID =   33377                -3.5269E-02  8.2185E-02 -5.2861E-02  1.0389E-01
                               -3.7530E-01  1.0692E+01 -4.7101E+01  2.5147E+03

           1    3.10019E+00    -2.7829E-03  2.8294E-04 -8.6120E-03  9.0548E-03
ac ID =   33377                 4.0276E-02 -2.5522E-01 -3.1589E-02  2.6030E-01
                               -3.7538E-01  1.0698E+01 -4.7113E+01  2.5147E+03

           1    3.20018E+00     3.7499E-03  1.9432E-03  6.9361E-02  6.9489E-02
ac ID =   33377                -1.8786E-02 -3.3387E-01  2.0709E-02  3.3504E-01
                               -3.7545E-01  1.0703E+01 -4.7125E+01  2.5147E+03

           1    3.30017E+00     5.5014E-04  1.0867E-03  1.2981E-02  1.3038E-02
ac ID =   33377                -2.3110E-01 -3.6173E-01  1.1089E-01  4.4334E-01
                               -3.7554E-01  1.0708E+01 -4.7137E+01  2.5147E+03

           1    3.40016E+00    -2.8169E-03  3.0532E-03 -1.0062E-01  1.0071E-01
ac ID =   33377                -3.0836E-01 -3.5462E-02  1.1953E-01  3.3261E-01
                               -3.7565E-01  1.0713E+01 -4.7148E+01  2.5147E+03

           1    3.50015E+00    -4.9838E-03  3.1147E-03 -1.3215E-01  1.3228E-01
ac ID =   33377                -1.5826E-01  2.7527E-01  4.3592E-02  3.2050E-01
                               -3.7576E-01  1.0719E+01 -4.7160E+01  2.5147E+03

           1    3.60014E+00     5.8178E-03 -3.0099E-03 -5.2817E-02  5.3222E-02
ac ID =   33377                 1.2013E-01  7.4684E-01 -9.5144E-02  7.6240E-01
                               -3.7586E-01  1.0724E+01 -4.7172E+01  2.5147E+03

           1    3.70013E+00     1.0550E-02 -5.0625E-03 -4.6279E-02  4.7736E-02
ac ID =   33377                 3.0957E-01  8.5988E-01 -1.6847E-01  9.2930E-01
                               -3.7595E-01  1.0729E+01 -4.7183E+01  2.5147E+03

           1    3.80012E+00     7.2965E-03 -2.7686E-03 -1.2898E-01  1.2922E-01
ac ID =   33377                 2.5817E-01  1.0781E+00 -6.3373E-02  1.1104E+00
                               -3.7605E-01  1.0734E+01 -4.7195E+01  2.5147E+03

           1    3.90011E+00     7.5765E-03 -1.3937E-04 -1.8847E-01  1.8862E-01
ac ID =   33377                 1.6402E-01  1.1105E+00 -5.1114E-02  1.1237E+00
                               -3.7613E-01  1.0739E+01 -4.7206E+01  2.5147E+03

           1    4.00010E+00     2.0415E-03  1.5335E-04 -1.3424E-01  1.3425E-01
ac ID =   33377                -4.4043E-02  6.9388E-01 -6.0858E-03  6.9530E-01
                               -3.7618E-01  1.0744E+01 -4.7217E+01  2.5147E+03

           1    4.10009E+00     4.3867E-03 -1.4483E-04 -9.7770E-02  9.7869E-02
ac ID =   33377                -7.5618E-02  5.3187E-01  1.7477E-02  5.3751E-01
                               -3.7622E-01  1.0748E+01 -4.7228E+01  2.5147E+03

           1    4.20008E+00     9.6817E-04  3.4112E-03 -1.4357E-01  1.4361E-01
ac ID =   33377                -2.4238E-01  5.3640E-01  1.1628E-01  6.0000E-01
                               -3.7628E-01  1.0753E+01 -4.7239E+01  2.5147E+03

           1    4.30007E+00     2.1126E-03  5.2301E-03 -2.4016E-01  2.4023E-01
ac ID =   33377                -3.3605E-01  9.0470E-01  8.3322E-02  9.6868E-01
                               -3.7634E-01  1.0757E+01 -4.7249E+01  2.5147E+03

           1    4.40006E+00     1.7188E-02  6.1958E-03 -2.1062E-01  2.1141E-01
ac ID =   33377                -1.7098E-01  1.3217E+00  3.3847E-02  1.3331E+00
                               -3.7639E-01  1.0761E+01 -4.7259E+01  2.5147E+03

           1    4.50005E+00     1.1637E-02 -1.6952E-03 -1.2563E-01  1.2618E-01
ac ID =   33377                 2.5746E-01  1.0185E+00  1.5140E-02  1.0506E+00
                               -3.7642E-01  1.0765E+01 -4.7269E+01  2.5147E+03

           1    4.60004E+00     1.9258E-02 -4.2157E-03 -1.6704E-01  1.6820E-01
ac ID =   33377                 3.2422E-01  1.1873E+00 -1.8074E-02  1.2309E+00
                               -3.7645E-01  1.0769E+01 -4.7279E+01  2.5147E+03

           1    4.70003E+00     2.3557E-02  5.1173E-04 -2.4781E-01  2.4892E-01
ac ID =   33377                 2.0968E-01  1.2707E+00 -5.4419E-02  1.2890E+00
                               -3.7648E-01  1.0772E+01 -4.7288E+01  2.5147E+03

           1    4.80002E+00     2.9303E-02  3.8720E-03 -2.8274E-01  2.8428E-01
ac ID =   33377                 4.4574E-02  1.3596E+00  1.0866E-02  1.3604E+00
                               -3.7647E-01  1.0776E+01 -4.7297E+01  2.5147E+03

           1    4.90001E+00     2.6642E-02  4.2878E-04 -2.2152E-01  2.2311E-01
ac ID =   33377                 1.0038E-01  1.3397E+00  1.1100E-01  1.3480E+00
                               -3.7643E-01  1.0781E+01 -4.7307E+01  2.5147E+03

           1    5.00000E+00     3.2351E-02  2.3317E-06 -2.0567E-01  2.0820E-01
ac ID =   33377                -1.7569E-01  1.3849E+00  1.2598E-01  1.4017E+00
                               -3.7637E-01  1.0785E+01 -4.7316E+01  2.5147E+03

           1    5.10049E+00     4.5313E-02  7.5285E-03 -3.0047E-01  3.0396E-01
ac ID =   33377                -3.8784E-01  1.7494E+00  1.7244E-01  1.8002E+00
                               -3.7633E-01  1.0790E+01 -4.7324E+01  2.5147E+03

           1    5.20048E+00     5.1612E-02  4.1528E-03 -3.4553E-01  3.4939E-01
ac ID =   33377                -3.3394E-01  2.0876E+00  5.4601E-03  2.1141E+00
                               -3.7629E-01  1.0795E+01 -4.7333E+01  2.5147E+03

           1    5.30047E+00     5.6098E-02  4.2033E-03 -3.2268E-01  3.2755E-01
ac ID =   33377                -2.3816E-01  1.9885E+00 -5.5810E-02  2.0035E+00
                               -3.7626E-01  1.0801E+01 -4.7341E+01  2.5147E+03

           1    5.40046E+00     7.6121E-02 -4.1385E-03 -3.1555E-01  3.2463E-01
ac ID =   33377                 1.2461E-01  2.3630E+00 -1.8734E-01  2.3737E+00
                               -3.7621E-01  1.0809E+01 -4.7350E+01  2.5147E+03

           1    5.50045E+00     8.6168E-02 -7.8159E-04 -4.1371E-01  4.2259E-01
ac ID =   33377                 1.5179E-01  2.7705E+00 -1.1777E-01  2.7771E+00
                               -3.7617E-01  1.0817E+01 -4.7359E+01  2.5147E+03

           1    5.60044E+00     7.3318E-02  4.5809E-03 -5.0228E-01  5.0762E-01
ac ID =   33377                 3.9774E-02  2.8364E+00  1.9578E-01  2.8434E+00
                               -3.7612E-01  1.0826E+01 -4.7368E+01  2.5147E+03

           1    5.70043E+00     9.3860E-02  2.7406E-03 -5.2802E-01  5.3631E-01
ac ID =   33377                 5.4983E-02  3.1279E+00  7.9192E-02  3.1294E+00
                               -3.7604E-01  1.0838E+01 -4.7377E+01  2.5147E+03

           1    5.80042E+00     1.0541E-01  1.7779E-03 -4.8724E-01  4.9851E-01
ac ID =   33377                -1.0488E-01  3.2475E+00 -4.5764E-02  3.2495E+00
                               -3.7591E-01  1.0851E+01 -4.7387E+01  2.5147E+03

           1    5.90041E+00     1.1879E-01  2.2856E-03 -5.0518E-01  5.1897E-01
ac ID =   33377                -4.2280E-01  3.5611E+00 -2.1172E-02  3.5862E+00
                               -3.7576E-01  1.0865E+01 -4.7396E+01  2.5147E+03

           1    6.00040E+00     1.1077E-01  6.5127E-03 -5.9553E-01  6.0578E-01
ac ID =   33377                -5.1783E-01  3.7709E+00  1.7943E-01  3.8106E+00
                               -3.7562E-01  1.0882E+01 -4.7406E+01  2.5147E+03

           1    6.10039E+00     1.2723E-01  2.5184E-03 -6.1308E-01  6.2614E-01
ac ID =   33377                -4.3736E-01  3.8194E+00  1.1278E-01  3.8461E+00
                               -3.7546E-01  1.0901E+01 -4.7417E+01  2.5147E+03

           1    6.20038E+00     1.3296E-01  4.6600E-03 -5.8240E-01  5.9740E-01
ac ID =   33377                -3.6481E-01  3.7019E+00 -2.9234E-01  3.7313E+00
                               -3.7530E-01  1.0923E+01 -4.7429E+01  2.5147E+03

           1    6.30037E+00     1.3058E-01 -1.7684E-03 -6.0803E-01  6.2190E-01
ac ID =   33377                -2.0114E-01  3.7638E+00 -4.3258E-01  3.7939E+00
                               -3.7510E-01  1.0947E+01 -4.7441E+01  2.5147E+03

           1    6.40036E+00     1.4420E-01 -3.2568E-03 -7.2211E-01  7.3638E-01
ac ID =   33377                 2.2699E-01  4.2142E+00 -1.6465E-01  4.2235E+00
                               -3.7494E-01  1.0973E+01 -4.7453E+01  2.5147E+03

           1    6.50035E+00     1.5383E-01  5.9303E-03 -8.0432E-01  8.1892E-01
ac ID =   33377                -1.7417E-01  5.0647E+00  3.5540E-01  5.0801E+00
                               -3.7472E-01  1.1002E+01 -4.7466E+01  2.5147E+03

           1    6.60034E+00     1.5932E-01  5.7404E-03 -7.8599E-01  8.0200E-01
ac ID =   33377                 2.7930E-03  5.1892E+00  3.4119E-01  5.2005E+00
                               -3.7449E-01  1.1034E+01 -4.7481E+01  2.5147E+03

           1    6.70033E+00     1.6230E-01 -4.5500E-03 -7.8560E-01  8.0220E-01
ac ID =   33377                -6.4424E-02  5.3458E+00 -4.7189E-02  5.3464E+00
                               -3.7423E-01  1.1069E+01 -4.7496E+01  2.5147E+03

           1    6.80032E+00     1.7883E-01  6.7007E-03 -8.5088E-01  8.6949E-01
ac ID =   33377                -4.0725E-01  5.6786E+00 -1.3743E-01  5.6948E+00
                               -3.7396E-01  1.1107E+01 -4.7511E+01  2.5147E+03

           1    6.90031E+00     1.8023E-01  1.5991E-02 -9.5114E-01  9.6820E-01
ac ID =   33377                -5.4800E-01  5.9809E+00 -2.5764E-02  6.0060E+00
                               -3.7373E-01  1.1149E+01 -4.7528E+01  2.5147E+03

           1    7.00030E+00     1.8386E-01  1.0292E-02 -9.7064E-01  9.8795E-01
ac ID =   33377                -4.8552E-01  6.0970E+00  2.0210E-01  6.1196E+00
                               -3.7346E-01  1.1194E+01 -4.7545E+01  2.5147E+03

           1    7.10029E+00     1.8497E-01  3.1578E-03 -9.8015E-01  9.9745E-01
ac ID =   33377                -4.1197E-01  5.8003E+00  3.0240E-02  5.8150E+00
                               -3.7318E-01  1.1242E+01 -4.7564E+01  2.5147E+03

           1    7.20028E+00     2.0166E-01  4.3405E-03 -1.0787E+00  1.0974E+00
ac ID =   33377                -3.7781E-01  6.6491E+00  8.6351E-03  6.6599E+00
                               -3.7293E-01  1.1293E+01 -4.7583E+01  2.5147E+03

           1    7.30027E+00     2.0902E-01  5.1717E-03 -1.1987E+00  1.2168E+00
ac ID =   33377                -1.6364E-01  7.1791E+00  7.1186E-02  7.1813E+00
                               -3.7267E-01  1.1348E+01 -4.7603E+01  2.5147E+03

           1    7.40026E+00     2.0895E-01  3.6950E-03 -1.2626E+00  1.2798E+00
ac ID =   33377                -1.3076E-01  7.6152E+00 -6.7783E-02  7.6166E+00
                               -3.7240E-01  1.1406E+01 -4.7623E+01  2.5147E+03

           1    7.50025E+00     2.3518E-01  2.5885E-03 -1.2722E+00  1.2937E+00
ac ID =   33377                -2.1721E-01  8.3310E+00 -1.6596E-01  8.3354E+00
                               -3.7209E-01  1.1468E+01 -4.7645E+01  2.5147E+03

           1    7.60024E+00     2.3227E-01 -3.5349E-03 -1.3113E+00  1.3317E+00
ac ID =   33377                -2.6535E-01  8.4789E+00 -3.7016E-01  8.4911E+00
                               -3.7176E-01  1.1534E+01 -4.7667E+01  2.5147E+03

           1    7.70023E+00     2.2295E-01  1.7026E-02 -1.3835E+00  1.4014E+00
ac ID =   33377                -5.2308E-01  8.3980E+00 -1.3027E-01  8.4153E+00
                               -3.7143E-01  1.1603E+01 -4.7690E+01  2.5147E+03

           1    7.80022E+00     2.4624E-01  9.1912E-03 -1.4705E+00  1.4910E+00
ac ID =   33377                -6.3300E-01  8.7254E+00  1.2526E-01  8.7492E+00
                               -3.7106E-01  1.1675E+01 -4.7713E+01  2.5147E+03

           1    7.90021E+00     2.4613E-01  6.0158E-03 -1.5058E+00  1.5257E+00
ac ID =   33377                -6.2383E-01  9.0240E+00 -1.6616E-01  9.0471E+00
                               -3.7071E-01  1.1752E+01 -4.7738E+01  2.5147E+03

           1    8.00020E+00     2.6235E-01  5.5276E-03 -1.5525E+00  1.5745E+00
ac ID =   33377                -6.9117E-01  9.3347E+00 -5.2072E-01  9.3747E+00
                               -3.7035E-01  1.1832E+01 -4.7762E+01  2.5147E+03

           1    8.10019E+00     2.5781E-01  1.3288E-02 -1.6710E+00  1.6908E+00
ac ID =   33377                -5.8813E-01  1.0068E+01 -2.6950E-01  1.0089E+01
                               -3.7000E-01  1.1915E+01 -4.7787E+01  2.5147E+03

           1    8.20018E+00     2.8309E-01 -9.4256E-04 -1.7566E+00  1.7792E+00
ac ID =   33377                -1.5739E-01  1.0921E+01  1.3145E-01  1.0923E+01
                               -3.6964E-01  1.2002E+01 -4.7812E+01  2.5147E+03

           1    8.30017E+00     2.8016E-01  6.0819E-03 -1.8251E+00  1.8465E+00
ac ID =   33377                -2.2619E-01  1.1320E+01  2.4909E-01  1.1325E+01
                               -3.6928E-01  1.2092E+01 -4.7838E+01  2.5147E+03

           1    8.40016E+00     2.9335E-01  5.5888E-03 -1.8700E+00  1.8929E+00
ac ID =   33377                -3.1497E-01  1.1842E+01  1.2934E-04  1.1846E+01
                               -3.6885E-01  1.2186E+01 -4.7864E+01  2.5147E+03

           1    8.50015E+00     3.0327E-01 -1.5783E-03 -1.9423E+00  1.9658E+00
ac ID =   33377                -2.1007E-01  1.2474E+01 -3.0804E-01  1.2479E+01
                               -3.6842E-01  1.2284E+01 -4.7890E+01  2.5147E+03

           1    8.60014E+00     2.9540E-01  5.6431E-03 -2.0609E+00  2.0820E+00
ac ID =   33377                -4.6217E-01  1.2802E+01 -1.2627E-01  1.2811E+01
                               -3.6799E-01  1.2384E+01 -4.7915E+01  2.5147E+03

           1    8.70013E+00     3.0742E-01  1.2252E-02 -2.1449E+00  2.1669E+00
ac ID =   33377                -8.8993E-01  1.3273E+01 -1.3560E-05  1.3303E+01
                               -3.6752E-01  1.2488E+01 -4.7941E+01  2.5147E+03

           1    8.80012E+00     3.2175E-01  6.4281E-03 -2.2189E+00  2.2421E+00
ac ID =   33377                -7.4312E-01  1.3814E+01  2.4370E-02  1.3834E+01
                               -3.6705E-01  1.2595E+01 -4.7966E+01  2.5147E+03

           1    8.90011E+00     3.4108E-01 -2.4769E-03 -2.3066E+00  2.3317E+00
ac ID =   33377                -5.6593E-01  1.4649E+01  4.8320E-02  1.4660E+01
                               -3.6658E-01  1.2706E+01 -4.7991E+01  2.5147E+03

           1    9.00010E+00     3.3821E-01  1.9254E-02 -2.4189E+00  2.4425E+00
ac ID =   33377                -7.6354E-01  1.5368E+01  1.4635E-01  1.5387E+01
                               -3.6611E-01  1.2819E+01 -4.8015E+01  2.5147E+03

           1    9.10009E+00     3.6281E-01 -5.5982E-04 -2.5106E+00  2.5367E+00
ac ID =   33377                -2.7882E-01  1.6305E+01 -6.9493E-02  1.6308E+01
                               -3.6558E-01  1.2936E+01 -4.8039E+01  2.5147E+03

           1    9.20008E+00     3.6828E-01 -3.3845E-04 -2.5857E+00  2.6118E+00
ac ID =   33377                -1.5129E-01  1.6840E+01 -2.0369E-01  1.6842E+01
                               -3.6504E-01  1.3056E+01 -4.8062E+01  2.5147E+03

           1    9.30007E+00     3.7147E-01  4.6412E-03 -2.6694E+00  2.6952E+00
ac ID =   33377                -3.7337E-01  1.7249E+01 -1.8768E-04  1.7253E+01
                               -3.6446E-01  1.3178E+01 -4.8084E+01  2.5147E+03

           1    9.40006E+00     3.8827E-01  7.3628E-03 -2.7659E+00  2.7930E+00
ac ID =   33377                -4.1482E-01  1.8145E+01  7.9438E-02  1.8150E+01
                               -3.6386E-01  1.3304E+01 -4.8105E+01  2.5147E+03

           1    9.50005E+00     3.8714E-01  3.9387E-03 -2.8662E+00  2.8923E+00
ac ID =   33377                -5.8441E-01  1.8753E+01  1.9179E-01  1.8763E+01
                               -3.6321E-01  1.3432E+01 -4.8125E+01  2.5147E+03

           1    9.60004E+00     3.9869E-01  8.1129E-03 -2.9376E+00  2.9645E+00
ac ID =   33377                -6.2072E-01  1.9691E+01 -2.2793E-01  1.9702E+01
                               -3.6259E-01  1.3563E+01 -4.8145E+01  2.5147E+03

           1    9.70003E+00     4.1991E-01  7.4211E-03 -3.0019E+00  3.0311E+00
ac ID =   33377                -9.5853E-01  2.0504E+01 -2.3811E-01  2.0528E+01
                               -3.6189E-01  1.3697E+01 -4.8163E+01  2.5147E+03

           1    9.80002E+00     4.2653E-01  4.9568E-03 -3.0818E+00  3.1112E+00
ac ID =   33377                -6.5153E-01  2.1182E+01  1.4737E-01  2.1193E+01
                               -3.6125E-01  1.3833E+01 -4.8179E+01  2.5147E+03

           1    9.90001E+00     4.3740E-01  7.0195E-04 -3.1728E+00  3.2028E+00
ac ID =   33377                -4.3335E-01  2.2205E+01  5.2256E-01  2.2215E+01
                               -3.6059E-01  1.3972E+01 -4.8194E+01  2.5147E+03

           1    1.00005E+01     4.3454E-01  1.9733E-03 -3.2556E+00  3.2845E+00
ac ID =   33377                -3.5104E-01  2.2985E+01  2.3866E-01  2.2989E+01
                               -3.5989E-01  1.4114E+01 -4.8207E+01  2.5147E+03

           1    1.01005E+01     4.5775E-01  6.6133E-04 -3.3404E+00  3.3717E+00
ac ID =   33377                -1.0205E-01  2.3838E+01 -2.7367E-01  2.3840E+01
                               -3.5922E-01  1.4256E+01 -4.8218E+01  2.5147E+03

           1    1.02005E+01     4.4923E-01 -9.4900E-03 -3.4188E+00  3.4482E+00
ac ID =   33377                -1.0674E-01  2.4550E+01 -4.0461E-01  2.4554E+01
                               -3.5855E-01  1.4401E+01 -4.8227E+01  2.5147E+03

           1    1.03005E+01     4.4917E-01 -7.9871E-03 -3.4781E+00  3.5070E+00
ac ID =   33377                -1.3233E-01  2.5067E+01 -7.8412E-02  2.5068E+01
                               -3.5790E-01  1.4548E+01 -4.8233E+01  2.5147E+03

           1    1.04005E+01     4.5721E-01 -6.2094E-03 -3.5525E+00  3.5818E+00
ac ID =   33377                -2.9424E-01  2.5750E+01  2.5372E-01  2.5753E+01
                               -3.5733E-01  1.4695E+01 -4.8236E+01  2.5147E+03

           1    1.05004E+01     4.6492E-01  3.4590E-03 -3.6061E+00  3.6360E+00
ac ID =   33377                -5.8838E-01  2.6567E+01  2.2783E-02  2.6574E+01
                               -3.5686E-01  1.4844E+01 -4.8237E+01  2.5147E+03

           1    1.06004E+01     4.6503E-01 -7.9302E-03 -3.6662E+00  3.6956E+00
ac ID =   33377                -4.2844E-01  2.7308E+01 -4.6003E-01  2.7315E+01
                               -3.5642E-01  1.4994E+01 -4.8234E+01  2.5147E+03

           1    1.07004E+01     4.7481E-01 -1.8474E-02 -3.7309E+00  3.7610E+00
ac ID =   33377                -1.8527E-01  2.8097E+01 -4.3825E-01  2.8101E+01
                               -3.5609E-01  1.5145E+01 -4.8228E+01  2.5147E+03

           1    1.08004E+01     4.9072E-01  6.2325E-03 -3.7766E+00  3.8083E+00
ac ID =   33377                -3.6340E-01  2.8540E+01 -5.7631E-02  2.8543E+01
                               -3.5589E-01  1.5297E+01 -4.8218E+01  2.5147E+03

           1    1.09004E+01     4.9835E-01 -3.0936E-03 -3.8507E+00  3.8828E+00
ac ID =   33377                -8.9305E-02  2.9411E+01  3.3867E-01  2.9413E+01
                               -3.5565E-01  1.5449E+01 -4.8205E+01  2.5147E+03

           1    1.10004E+01     4.9976E-01 -1.5044E-02 -3.9135E+00  3.9453E+00
ac ID =   33377                 1.8406E-01  2.9909E+01  2.2637E-01  2.9911E+01
                               -3.5544E-01  1.5602E+01 -4.8188E+01  2.5147E+03

           1    1.11004E+01     5.2261E-01 -2.0564E-03 -3.9719E+00  4.0062E+00
ac ID =   33377                -2.2973E-01  3.0966E+01 -1.6488E-01  3.0967E+01
                               -3.5516E-01  1.5755E+01 -4.8167E+01  2.5147E+03

           1    1.12004E+01     5.1899E-01  4.2680E-03 -4.0312E+00  4.0644E+00
ac ID =   33377                -3.7578E-01  3.2075E+01 -3.7707E-01  3.2079E+01
                               -3.5491E-01  1.5909E+01 -4.8142E+01  2.5147E+03

           1    1.13004E+01     5.2846E-01  5.7365E-03 -4.0667E+00  4.1009E+00
ac ID =   33377                -1.5873E-01  3.2848E+01 -3.2867E-01  3.2850E+01
                               -3.5464E-01  1.6063E+01 -4.8113E+01  2.5147E+03

           1    1.14004E+01     5.3460E-01 -5.8540E-03 -4.1063E+00  4.1410E+00
ac ID =   33377                -6.3730E-01  3.3432E+01 -1.5137E-01  3.3438E+01
                               -3.5427E-01  1.6217E+01 -4.8080E+01  2.5147E+03

           1    1.15003E+01     5.5768E-01  1.2437E-02 -4.1371E+00  4.1745E+00
ac ID =   33377                -6.8807E-01  3.4172E+01  6.3646E-02  3.4179E+01
                               -3.5400E-01  1.6372E+01 -4.8044E+01  2.5147E+03

           1    1.16003E+01     5.6933E-01 -3.1054E-03 -4.1687E+00  4.2074E+00
ac ID =   33377                -3.9367E-01  3.4968E+01  9.4936E-02  3.4971E+01
                               -3.5370E-01  1.6527E+01 -4.8003E+01  2.5147E+03

           1    1.17003E+01     5.7367E-01 -9.0388E-04 -4.2419E+00  4.2805E+00
ac ID =   33377                -2.0408E-01  3.5755E+01 -3.8148E-01  3.5758E+01
                               -3.5339E-01  1.6682E+01 -4.7958E+01  2.5147E+03

           1    1.18003E+01     5.7788E-01  1.0307E-02 -4.2740E+00  4.3129E+00
ac ID =   33377                -5.0903E-01  3.6615E+01 -3.0405E-01  3.6620E+01
                               -3.5308E-01  1.6837E+01 -4.7909E+01  2.5147E+03

           1    1.19003E+01     5.7335E-01 -2.1305E-03 -4.2518E+00  4.2903E+00
ac ID =   33377                -1.5385E-02  3.7173E+01 -2.0148E-01  3.7173E+01
                               -3.5272E-01  1.6993E+01 -4.7856E+01  2.5147E+03

           1    1.20003E+01     5.9766E-01 -2.9048E-03 -4.2929E+00  4.3343E+00
ac ID =   33377                -2.0924E-01  3.8233E+01 -1.0454E-01  3.8233E+01
                               -3.5232E-01  1.7148E+01 -4.7799E+01  2.5147E+03

           1    1.21003E+01     5.8620E-01  9.0883E-03 -4.2768E+00  4.3168E+00
ac ID =   33377                -4.6156E-01  3.8598E+01 -9.0348E-02  3.8601E+01
                               -3.5194E-01  1.7303E+01 -4.7737E+01  2.5147E+03

           1    1.22003E+01     5.9514E-01  1.5493E-02 -4.2621E+00  4.3034E+00
ac ID =   33377                -7.9371E-01  3.9159E+01 -4.5268E-01  3.9170E+01
                               -3.5149E-01  1.7457E+01 -4.7671E+01  2.5147E+03

           1    1.23003E+01     6.0306E-01  1.4321E-03 -4.2585E+00  4.3010E+00
ac ID =   33377                -5.6210E-01  3.9862E+01 -7.1591E-01  3.9872E+01
                               -3.5103E-01  1.7612E+01 -4.7601E+01  2.5147E+03

           1    1.24003E+01     5.6577E-01 -1.3812E-02 -4.1636E+00  4.2019E+00
ac ID =   33377                -6.5975E-01  3.8966E+01  1.2736E-01  3.8972E+01
                               -3.5056E-01  1.7766E+01 -4.7526E+01  2.5147E+03

           1    1.25002E+01     4.7983E-01  3.5653E-02 -3.9844E+00  4.0134E+00
ac ID =   33377                -9.4780E-01  3.7685E+01 -6.1165E-02  3.7697E+01
                               -3.5021E-01  1.7920E+01 -4.7446E+01  2.5147E+03

           1    1.26002E+01     6.0122E-01 -1.0105E-02 -4.0469E+00  4.0913E+00
ac ID =   33377                -3.9911E-01  3.8983E+01 -2.6184E-01  3.8986E+01
                               -3.4969E-01  1.8070E+01 -4.7361E+01  2.5147E+03

           1    1.27002E+01     5.2986E-01  2.0831E-04 -4.0991E+00  4.1332E+00
ac ID =   33377                -5.5690E-01  3.9805E+01 -4.9836E-01  3.9812E+01
                               -3.4919E-01  1.8220E+01 -4.7271E+01  2.5147E+03

           1    1.28002E+01     5.0386E-01  3.3935E-03 -3.9650E+00  3.9969E+00
ac ID =   33377                -3.9757E-01  3.8647E+01 -5.2539E-01  3.8653E+01
                               -3.4867E-01  1.8368E+01 -4.7175E+01  2.5147E+03

           1    1.29002E+01     5.5126E-01  1.3587E-02 -3.8851E+00  3.9241E+00
ac ID =   33377                -7.5912E-01  4.0411E+01  3.3415E-01  4.0420E+01
                               -3.4815E-01  1.8515E+01 -4.7075E+01  2.5147E+03

           1    1.30002E+01     5.3663E-01  3.6447E-03 -3.8003E+00  3.8380E+00
ac ID =   33377                -3.6935E-01  3.9967E+01  9.4828E-02  3.9969E+01
                               -3.4759E-01  1.8659E+01 -4.6968E+01  2.5147E+03

           1    1.31002E+01     5.2253E-01  1.6739E-02 -3.8007E+00  3.8365E+00
ac ID =   33377                -1.1070E+00  3.9524E+01 -1.8549E-01  3.9540E+01
                               -3.4696E-01  1.8802E+01 -4.6857E+01  2.5147E+03

           1    1.32002E+01     4.8100E-01  2.4481E-03 -3.7577E+00  3.7883E+00
ac ID =   33377                -1.0494E+00  3.9171E+01 -3.2568E-01  3.9186E+01
                               -3.4639E-01  1.8943E+01 -4.6741E+01  2.5147E+03

           1    1.33002E+01     5.6869E-01  1.9219E-02 -3.6538E+00  3.6978E+00
ac ID =   33377                -1.4038E+00  3.8910E+01 -1.4217E-01  3.8935E+01
                               -3.4576E-01  1.9082E+01 -4.6621E+01  2.5147E+03

           1    1.34002E+01     5.0159E-01  8.1614E-03 -3.6007E+00  3.6355E+00
ac ID =   33377                -9.3698E-01  3.9117E+01 -3.9659E-01  3.9130E+01
                               -3.4515E-01  1.9220E+01 -4.6495E+01  2.5147E+03

           1    1.35001E+01     5.2571E-01  8.5406E-03 -3.5540E+00  3.5927E+00
ac ID =   33377                -1.1601E+00  3.7970E+01  3.1887E-02  3.7988E+01
                               -3.4449E-01  1.9356E+01 -4.6365E+01  2.5147E+03

           1    1.36001E+01     5.0440E-01  5.1400E-03 -3.5051E+00  3.5412E+00
ac ID =   33377                -8.5343E-01  3.9100E+01 -4.0069E-01  3.9112E+01
                               -3.4387E-01  1.9492E+01 -4.6231E+01  2.5147E+03

           1    1.37001E+01     5.4064E-01  7.5971E-03 -3.3554E+00  3.3986E+00
ac ID =   33377                -9.8753E-01  3.8021E+01 -1.0943E+00  3.8050E+01
                               -3.4319E-01  1.9625E+01 -4.6093E+01  2.5147E+03

           1    1.38001E+01     5.5061E-01  1.3096E-02 -3.2902E+00  3.3360E+00
ac ID =   33377                -1.0058E+00  3.8693E+01 -7.2168E-01  3.8713E+01
                               -3.4253E-01  1.9758E+01 -4.5950E+01  2.5147E+03

           1    1.39001E+01     4.8562E-01  2.5339E-03 -3.2277E+00  3.2640E+00
ac ID =   33377                -8.0546E-01  3.7892E+01 -5.7025E-01  3.7905E+01
                               -3.4185E-01  1.9890E+01 -4.5804E+01  2.5147E+03

           1    1.40001E+01     5.1579E-01  2.2484E-02 -3.0838E+00  3.1267E+00
ac ID =   33377                -1.5257E+00  3.6958E+01  1.4365E-01  3.6990E+01
                               -3.4113E-01  2.0021E+01 -4.5655E+01  2.5147E+03

           1    1.41001E+01     5.0499E-01  9.8303E-03 -2.9604E+00  3.0032E+00
ac ID =   33377                -1.0501E+00  3.6920E+01 -1.7326E-01  3.6935E+01
                               -3.4056E-01  2.0151E+01 -4.5502E+01  2.5147E+03

           1    1.42001E+01     5.4083E-01  3.2159E-02 -2.8963E+00  2.9466E+00
ac ID =   33377                -1.9088E+00  3.6767E+01 -2.1805E-01  3.6817E+01
                               -3.3996E-01  2.0280E+01 -4.5346E+01  2.5147E+03

           1    1.43001E+01     4.5271E-01 -8.2066E-03 -2.7422E+00  2.7793E+00
ac ID =   33377                -8.3152E-01  3.5637E+01 -5.2105E-01  3.5650E+01
                               -3.3945E-01  2.0409E+01 -4.5188E+01  2.5147E+03

           1    1.44001E+01     5.1613E-01  2.9241E-02 -2.5810E+00  2.6322E+00
ac ID =   33377                -1.6874E+00  3.5636E+01 -8.1545E-01  3.5686E+01
                               -3.3900E-01  2.0537E+01 -4.5026E+01  2.5147E+03

           1    1.45000E+01     5.4820E-01  2.2772E-02 -2.5521E+00  2.6104E+00
ac ID =   33377                -1.2675E+00  3.6551E+01 -1.2521E-01  3.6574E+01
                               -3.3857E-01  2.0665E+01 -4.4863E+01  2.5147E+03

           1    1.46000E+01     4.6719E-01 -2.4032E-02 -2.4020E+00  2.4472E+00
ac ID =   33377                -7.0304E-01  3.4493E+01 -1.1748E-02  3.4500E+01
                               -3.3809E-01  2.0793E+01 -4.4698E+01  2.5147E+03

           1    1.47000E+01     4.5823E-01  4.0929E-02 -2.2785E+00  2.3245E+00
ac ID =   33377                -2.0520E+00  3.3107E+01 -2.2589E-01  3.3172E+01
                               -3.3777E-01  2.0921E+01 -4.4531E+01  2.5147E+03

           1    1.48005E+01     5.0104E-01 -1.2733E-02 -2.2022E+00  2.2585E+00
ac ID =   33377                -9.6425E-01  3.4130E+01 -4.0414E-01  3.4146E+01
                               -3.3745E-01  2.1049E+01 -4.4361E+01  2.5147E+03

           1    1.49005E+01     4.9731E-01  2.2928E-02 -2.1046E+00  2.1626E+00
ac ID =   33377                -1.6198E+00  3.2953E+01 -1.5156E-01  3.2993E+01
                               -3.3720E-01  2.1176E+01 -4.4191E+01  2.5147E+03

           1    1.50005E+01     3.7300E-01 -1.3291E-03 -1.9492E+00  1.9846E+00
ac ID =   33377                -1.2320E+00  3.0970E+01 -5.0054E-01  3.0999E+01
                               -3.3695E-01  2.1304E+01 -4.4020E+01  2.5147E+03

           1    1.51005E+01     4.8228E-01  3.8917E-02 -1.8710E+00  1.9325E+00
ac ID =   33377                -2.4171E+00  3.1769E+01  3.2878E-02  3.1861E+01
                               -3.3688E-01  2.1432E+01 -4.3848E+01  2.5147E+03

           1    1.52005E+01     4.7615E-01 -9.1239E-03 -1.7949E+00  1.8570E+00
ac ID =   33377                -8.5567E-01  3.1326E+01 -3.0018E-01  3.1339E+01
                               -3.3686E-01  2.1560E+01 -4.3675E+01  2.5147E+03

           1    1.53005E+01     3.6770E-01  1.1764E-02 -1.6087E+00  1.6502E+00
ac ID =   33377                -1.6466E+00  2.8098E+01 -6.2861E-01  2.8153E+01
                               -3.3676E-01  2.1689E+01 -4.3501E+01  2.5147E+03

           1    1.54005E+01     4.2455E-01  2.0384E-02 -1.5284E+00  1.5864E+00
ac ID =   33377                -1.6805E+00  2.9023E+01 -8.8077E-01  2.9085E+01
                               -3.3690E-01  2.1818E+01 -4.3328E+01  2.5147E+03

           1    1.55004E+01     4.1444E-01  7.9648E-03 -1.4528E+00  1.5107E+00
ac ID =   33377                -1.1343E+00  2.7876E+01 -6.2640E-01  2.7906E+01
                               -3.3707E-01  2.1948E+01 -4.3153E+01  2.5147E+03

           1    1.56004E+01     4.1726E-01 -1.2490E-02 -1.4088E+00  1.4694E+00
ac ID =   33377                -1.3514E+00  2.6905E+01  1.4611E-01  2.6939E+01
                               -3.3717E-01  2.2079E+01 -4.2979E+01  2.5147E+03

           1    1.57004E+01     2.6503E-01  3.4110E-02 -1.1048E+00  1.1366E+00
ac ID =   33377                -1.7783E+00  2.4128E+01 -9.6117E-03  2.4194E+01
                               -3.3750E-01  2.2212E+01 -4.2806E+01  2.5147E+03

           1    1.58004E+01     4.1803E-01  1.4150E-02 -9.8834E-01  1.0732E+00
ac ID =   33377                -1.6988E+00  2.3958E+01 -5.2959E-01  2.4024E+01
                               -3.3774E-01  2.2344E+01 -4.2632E+01  2.5147E+03

           1    1.59004E+01     3.3629E-01 -6.8112E-03 -9.5477E-01  1.0123E+00
ac ID =   33377                -1.3398E+00  2.3191E+01 -2.2357E-01  2.3231E+01
                               -3.3800E-01  2.2478E+01 -4.2459E+01  2.5147E+03

           1    1.60004E+01     2.6393E-01  2.5445E-02 -7.7211E-01  8.1637E-01
ac ID =   33377                -2.1562E+00  1.9445E+01 -1.0255E-01  1.9564E+01
                               -3.3840E-01  2.2612E+01 -4.2285E+01  2.5147E+03

           1    1.61004E+01     3.0395E-01  2.1783E-02 -6.8803E-01  7.5249E-01
ac ID =   33377                -2.2662E+00  2.0382E+01 -5.2661E-01  2.0515E+01
                               -3.3887E-01  2.2747E+01 -4.2113E+01  2.5147E+03

           1    1.62004E+01     2.7043E-01  1.8419E-02 -5.3304E-01  5.9800E-01
ac ID =   33377                -1.5950E+00  1.8437E+01 -3.3137E-01  1.8508E+01
                               -3.3938E-01  2.2883E+01 -4.1941E+01  2.5147E+03

           1    1.63004E+01     2.4013E-01 -2.5591E-03 -4.7131E-01  5.2896E-01
ac ID =   33377                -1.8842E+00  1.7661E+01  2.7157E-01  1.7764E+01
                               -3.3985E-01  2.3020E+01 -4.1771E+01  2.5147E+03

           1    1.64004E+01     2.0792E-01  1.6857E-02 -3.8394E-01  4.3695E-01
ac ID =   33377                -1.5134E+00  1.7673E+01 -3.2309E-01  1.7741E+01
                               -3.4059E-01  2.3158E+01 -4.1601E+01  2.5147E+03

           1    1.65003E+01     3.0354E-01  1.4169E-02 -3.2226E-01  4.4293E-01
ac ID =   33377                -2.4198E+00  1.8334E+01 -2.6024E-01  1.8495E+01
                               -3.4123E-01  2.3295E+01 -4.1432E+01  2.5147E+03

           1    1.66003E+01     2.4364E-01 -1.0183E-02 -2.3833E-01  3.4098E-01
ac ID =   33377                -1.2659E+00  1.9488E+01 -8.1750E-01  1.9546E+01
                               -3.4203E-01  2.3435E+01 -4.1264E+01  2.5147E+03

           1    1.67003E+01     2.2791E-01 -2.0109E-03 -9.7883E-02  2.4805E-01
ac ID =   33377                -1.9031E+00  1.7780E+01  1.2319E-01  1.7882E+01
                               -3.4279E-01  2.3574E+01 -4.1098E+01  2.5147E+03

           1    1.68003E+01     2.5450E-01  1.7020E-02 -8.1428E-02  2.6775E-01
ac ID =   33377                -2.0484E+00  2.0189E+01  1.3142E-02  2.0293E+01
                               -3.4381E-01  2.3715E+01 -4.0933E+01  2.5147E+03

           1    1.69003E+01     2.2439E-01  1.0353E-03 -2.2453E-02  2.2552E-01
ac ID =   33377                -2.2297E+00  1.8430E+01 -2.0522E-02  1.8564E+01
                               -3.4481E-01  2.3856E+01 -4.0769E+01  2.5147E+03

           1    1.70003E+01     2.4907E-01  5.8675E-03  1.3983E-01  2.8570E-01
ac ID =   33377                -2.1052E+00  1.8875E+01 -9.3214E-01  1.9015E+01
                               -3.4595E-01  2.3998E+01 -4.0608E+01  2.5147E+03

           1    1.71003E+01     2.2425E-01  5.1541E-03  2.2275E-01  3.1612E-01
ac ID =   33377                -2.2977E+00  1.8433E+01 -4.8162E-01  1.8582E+01
                               -3.4720E-01  2.4141E+01 -4.0448E+01  2.5147E+03

           1    1.72003E+01     2.2839E-01  2.9513E-02  2.7131E-01  3.5587E-01
ac ID =   33377                -2.6523E+00  1.8297E+01  3.1413E-01  1.8491E+01
                               -3.4863E-01  2.4284E+01 -4.0290E+01  2.5147E+03

           1    1.73003E+01     2.1974E-01 -1.3700E-02  3.6627E-01  4.2735E-01
ac ID =   33377                -1.3637E+00  1.7829E+01  3.3556E-01  1.7884E+01
                               -3.5010E-01  2.4428E+01 -4.0135E+01  2.5147E+03

           1    1.74003E+01     2.6051E-01  1.2351E-02  4.0303E-01  4.8005E-01
ac ID =   33377                -2.4966E+00  1.7549E+01  4.7354E-01  1.7732E+01
                               -3.5161E-01  2.4572E+01 -3.9981E+01  2.5147E+03

           1    1.75002E+01     1.8160E-01  2.0631E-02  5.2534E-01  5.5623E-01
ac ID =   33377                -2.1492E+00  1.6850E+01 -4.7300E-01  1.6993E+01
                               -3.5347E-01  2.4718E+01 -3.9830E+01  2.5147E+03

           1    1.76002E+01     2.1171E-01 -4.3807E-04  6.0509E-01  6.4106E-01
ac ID =   33377                -1.7546E+00  1.6565E+01 -6.9491E-01  1.6672E+01
                               -3.5517E-01  2.4863E+01 -3.9681E+01  2.5147E+03

           1    1.77002E+01     2.2327E-01 -1.2968E-02  5.8149E-01  6.2302E-01
ac ID =   33377                -1.6024E+00  1.7902E+01 -3.7985E-01  1.7978E+01
                               -3.5707E-01  2.5009E+01 -3.9535E+01  2.5147E+03

           1    1.78002E+01     1.6082E-01  3.3723E-02  6.9286E-01  7.1208E-01
ac ID =   33377                -3.0256E+00  1.6957E+01  1.3384E-01  1.7226E+01
                               -3.5914E-01  2.5155E+01 -3.9391E+01  2.5147E+03

           1    1.79002E+01     2.3374E-01  6.7941E-03  7.6438E-01  7.9935E-01
ac ID =   33377                -2.0680E+00  1.7855E+01 -5.7721E-01  1.7984E+01
                               -3.6126E-01  2.5302E+01 -3.9250E+01  2.5147E+03

           1    1.80002E+01     2.1498E-01 -8.7550E-03  7.8287E-01  8.1190E-01
ac ID =   33377                -2.3837E+00  1.8653E+01 -4.8864E-01  1.8811E+01
                               -3.6338E-01  2.5450E+01 -3.9112E+01  2.5147E+03

           1    1.81002E+01     2.0095E-01  2.8670E-02  8.3695E-01  8.6121E-01
ac ID =   33377                -2.7460E+00  1.6903E+01 -9.1460E-01  1.7149E+01
                               -3.6587E-01  2.5598E+01 -3.8976E+01  2.5147E+03

           1    1.82002E+01     1.3711E-01  2.9367E-02  8.9566E-01  9.0657E-01
ac ID =   33377                -3.1805E+00  1.6433E+01 -8.2674E-01  1.6758E+01
                               -3.6832E-01  2.5746E+01 -3.8844E+01  2.5147E+03

           1    1.83002E+01     2.2631E-01 -1.6190E-02  9.0696E-01  9.3491E-01
ac ID =   33377                -2.1696E+00  1.6678E+01 -3.1107E-01  1.6821E+01
                               -3.7085E-01  2.5895E+01 -3.8715E+01  2.5147E+03

           1    1.84002E+01     1.4447E-01  1.5654E-02  9.9743E-01  1.0080E+00
ac ID =   33377                -2.5618E+00  1.5461E+01 -1.6187E-02  1.5672E+01
                               -3.7372E-01  2.6045E+01 -3.8589E+01  2.5147E+03

           1    1.85001E+01     1.5666E-01  3.3248E-02  1.0036E+00  1.0163E+00
ac ID =   33377                -3.3468E+00  1.5489E+01 -2.2398E-01  1.5848E+01
                               -3.7655E-01  2.6194E+01 -3.8465E+01  2.5147E+03

           1    1.86001E+01     1.9866E-01  1.1244E-03  1.0314E+00  1.0504E+00
ac ID =   33377                -2.3030E+00  1.6621E+01 -3.9171E-01  1.6785E+01
                               -3.7952E-01  2.6344E+01 -3.8346E+01  2.5147E+03

           1    1.87001E+01     1.4905E-01 -2.4321E-02  1.0543E+00  1.0651E+00
ac ID =   33377                -1.9119E+00  1.5551E+01 -6.9862E-01  1.5684E+01
                               -3.8263E-01  2.6495E+01 -3.8229E+01  2.5147E+03

           1    1.88001E+01     1.5457E-01  5.2061E-02  1.1171E+00  1.1289E+00
ac ID =   33377                -3.6289E+00  1.4818E+01 -4.0794E-01  1.5261E+01
                               -3.8594E-01  2.6646E+01 -3.8115E+01  2.5147E+03

           1    1.89001E+01     1.5231E-01  8.3544E-03  1.1330E+00  1.1432E+00
ac ID =   33377                -2.7314E+00  1.4312E+01  2.9341E-01  1.4573E+01
                               -3.8930E-01  2.6797E+01 -3.8005E+01  2.5147E+03

           1    1.90001E+01     1.5351E-01 -1.0488E-02  1.1746E+00  1.1846E+00
ac ID =   33377                -2.5878E+00  1.3836E+01 -2.5532E-01  1.4078E+01
                               -3.9282E-01  2.6949E+01 -3.7898E+01  2.5147E+03

           1    1.91001E+01     1.0126E-01  2.9286E-02  1.1718E+00  1.1765E+00
ac ID =   33377                -3.4394E+00  1.2490E+01 -1.0904E+00  1.3001E+01
                               -3.9651E-01  2.7101E+01 -3.7794E+01  2.5147E+03

           1    1.92001E+01     1.5702E-01  1.7794E-02  1.1808E+00  1.1913E+00
ac ID =   33377                -2.7695E+00  1.3550E+01 -6.6043E-01  1.3846E+01
                               -4.0033E-01  2.7254E+01 -3.7694E+01  2.5147E+03

           1    1.93001E+01     1.1835E-01  9.7116E-03  1.2191E+00  1.2249E+00
ac ID =   33377                -2.7580E+00  1.1600E+01  1.7708E-01  1.1924E+01
                               -4.0437E-01  2.7406E+01 -3.7597E+01  2.5147E+03

           1    1.94001E+01     1.2469E-01  9.5884E-03  1.2196E+00  1.2260E+00
ac ID =   33377                -2.9334E+00  1.1607E+01 -1.5935E-01  1.1973E+01
                               -4.0848E-01  2.7560E+01 -3.7504E+01  2.5147E+03

           1    1.95000E+01     1.4760E-01  1.8295E-02  1.2097E+00  1.2188E+00
ac ID =   33377                -3.0749E+00  1.1614E+01 -3.9068E-01  1.2020E+01
                               -4.1278E-01  2.7713E+01 -3.7413E+01  2.5147E+03

           1    1.96000E+01     7.9981E-02  1.3409E-02  1.2103E+00  1.2130E+00
ac ID =   33377                -2.9372E+00  9.8929E+00 -7.7639E-01  1.0349E+01
                               -4.1726E-01  2.7867E+01 -3.7326E+01  2.5147E+03

           1    1.97005E+01     1.3052E-01  2.8832E-03  1.2463E+00  1.2532E+00
ac ID =   33377                -2.8756E+00  1.0401E+01 -1.2360E+00  1.0862E+01
                               -4.2194E-01  2.8022E+01 -3.7242E+01  2.5147E+03

           1    1.98005E+01     1.2104E-01  3.7688E-02  1.2073E+00  1.2139E+00
ac ID =   33377                -3.4547E+00  9.6703E+00 -5.2807E-01  1.0282E+01
                               -4.2667E-01  2.8177E+01 -3.7162E+01  2.5147E+03

           1    1.99005E+01     7.5075E-02  2.9427E-03  1.2115E+00  1.2138E+00
ac ID =   33377                -3.1750E+00  8.1077E+00 -5.9086E-01  8.7272E+00
                               -4.3162E-01  2.8332E+01 -3.7085E+01  2.5147E+03

           1    2.00005E+01     1.0155E-01  1.2165E-02  1.2237E+00  1.2279E+00
ac ID =   33377                -2.8383E+00  7.8974E+00 -5.2577E-01  8.4084E+00
                               -4.3673E-01  2.8488E+01 -3.7011E+01  2.5147E+03

           1    2.01005E+01     1.0274E-01  2.4080E-02  1.2089E+00  1.2135E+00
ac ID =   33377                -3.5100E+00  7.6870E+00 -6.2389E-01  8.4734E+00
                               -4.4205E-01  2.8644E+01 -3.6940E+01  2.5147E+03

           1    2.02005E+01     8.7226E-02  2.2329E-02  1.2168E+00  1.2201E+00
ac ID =   33377                -3.4907E+00  6.6129E+00 -1.0732E+00  7.5543E+00
                               -4.4745E-01  2.8800E+01 -3.6873E+01  2.5147E+03

           1    2.03005E+01     8.8839E-02 -1.7860E-02  1.1563E+00  1.1599E+00
ac ID =   33377                -2.4409E+00  6.3530E+00 -1.2199E+00  6.9142E+00
                               -4.5303E-01  2.8956E+01 -3.6808E+01  2.5147E+03

           1    2.04005E+01     9.7042E-02  2.8154E-02  1.1724E+00  1.1767E+00
ac ID =   33377                -3.0605E+00  5.5260E+00 -6.0185E-01  6.3455E+00
                               -4.5881E-01  2.9113E+01 -3.6747E+01  2.5147E+03

           1    2.05004E+01     9.1292E-02  1.2919E-02  1.1576E+00  1.1613E+00
ac ID =   33377                -3.1985E+00  4.4314E+00 -2.4172E-01  5.4705E+00
                               -4.6467E-01  2.9270E+01 -3.6689E+01  2.5147E+03

           1    2.06004E+01     7.5655E-02  1.7764E-02  1.1133E+00  1.1160E+00
ac ID =   33377                -2.5430E+00  4.2154E+00 -5.4149E-01  4.9527E+00
                               -4.7070E-01  2.9427E+01 -3.6633E+01  2.5147E+03

           1    2.07004E+01     8.3629E-02 -6.0364E-04  1.0932E+00  1.0964E+00
ac ID =   33377                -2.6020E+00  3.7741E+00 -6.7640E-01  4.6337E+00
                               -4.7681E-01  2.9585E+01 -3.6581E+01  2.5147E+03

           1    2.08004E+01     4.9467E-02  3.3711E-02  1.1113E+00  1.1129E+00
ac ID =   33377                -3.2184E+00  2.4739E+00 -8.5349E-01  4.1481E+00
                               -4.8312E-01  2.9743E+01 -3.6531E+01  2.5147E+03

           1    2.09004E+01     6.0700E-02  1.0352E-02  1.0898E+00  1.0915E+00
ac ID =   33377                -2.6474E+00  1.9387E+00 -5.1676E-01  3.3218E+00
                               -4.8951E-01  2.9901E+01 -3.6484E+01  2.5147E+03

           1    2.10004E+01     7.5604E-02  1.7969E-02  1.0589E+00  1.0617E+00
ac ID =   33377                -2.8310E+00  1.6608E+00 -2.4796E-01  3.2916E+00
                               -4.9607E-01  3.0060E+01 -3.6440E+01  2.5147E+03

           1    2.11004E+01     4.2852E-02  8.5407E-03  1.0431E+00  1.0440E+00
ac ID =   33377                -2.4938E+00  6.5832E-01 -4.0443E-01  2.6107E+00
                               -5.0274E-01  3.0219E+01 -3.6399E+01  2.5147E+03

           1    2.12004E+01     4.0146E-02  2.5853E-02  9.9642E-01  9.9756E-01
ac ID =   33377                -3.0503E+00  4.3086E-02 -8.2928E-01  3.1613E+00
                               -5.0954E-01  3.0378E+01 -3.6360E+01  2.5147E+03

           1    2.13004E+01     5.2982E-02 -1.3859E-02  9.6428E-01  9.6583E-01
ac ID =   33377                -2.2029E+00 -7.5798E-01 -7.4067E-01  2.4446E+00
                               -5.1642E-01  3.0538E+01 -3.6323E+01  2.5147E+03

           1    2.14004E+01     7.4380E-02  1.1658E-02  9.3405E-01  9.3708E-01
ac ID =   33377                -2.5164E+00 -6.1318E-01 -8.3432E-01  2.7211E+00
                               -5.2345E-01  3.0697E+01 -3.6289E+01  2.5147E+03

           1    2.15003E+01     1.8992E-02  1.2403E-02  8.8744E-01  8.8773E-01
ac ID =   33377                -2.2809E+00 -2.1136E+00 -4.3086E-01  3.1394E+00
                               -5.3058E-01  3.0857E+01 -3.6257E+01  2.5147E+03

           1    2.16003E+01     3.0316E-02  8.1235E-03  8.5069E-01  8.5127E-01
ac ID =   33377                -2.5902E+00 -2.4210E+00 -1.8163E-01  3.5501E+00
                               -5.3777E-01  3.1018E+01 -3.6227E+01  2.5147E+03

           1    2.17003E+01     6.0417E-02  9.0749E-03  8.0987E-01  8.1217E-01
ac ID =   33377                -2.3130E+00 -1.8128E+00 -5.1857E-01  2.9842E+00
                               -5.4513E-01  3.1178E+01 -3.6200E+01  2.5147E+03

           1    2.18003E+01     4.1055E-02  1.4480E-02  7.8037E-01  7.8158E-01
ac ID =   33377                -2.6356E+00 -2.6054E+00 -7.0981E-01  3.7734E+00
                               -5.5256E-01  3.1339E+01 -3.6174E+01  2.5147E+03

           1    2.19003E+01     3.3141E-02  7.2659E-03  7.3069E-01  7.3148E-01
ac ID =   33377                -2.4123E+00 -3.1278E+00 -4.4871E-01  3.9754E+00
                               -5.6008E-01  3.1499E+01 -3.6150E+01  2.5147E+03

           1    2.20003E+01     7.0425E-02  8.6478E-03  7.0997E-01  7.1351E-01
ac ID =   33377                -2.3452E+00 -2.3054E+00 -6.1430E-01  3.3455E+00
                               -5.6774E-01  3.1660E+01 -3.6128E+01  2.5147E+03

           1    2.21003E+01     9.1994E-02  2.7900E-03  6.7149E-01  6.7777E-01
ac ID =   33377                -2.1392E+00 -2.2680E+00 -5.6796E-01  3.1690E+00
                               -5.7545E-01  3.1821E+01 -3.6108E+01  2.5147E+03

           1    2.22003E+01     6.1745E-02  9.1360E-03  6.3379E-01  6.3686E-01
ac ID =   33377                -2.0327E+00 -2.9349E+00 -6.1982E-01  3.6235E+00
                               -5.8328E-01  3.1982E+01 -3.6089E+01  2.5147E+03

           1    2.23003E+01     9.8827E-02  1.5654E-03  5.6344E-01  5.7205E-01
ac ID =   33377                -1.9978E+00 -2.0694E+00 -9.5527E-01  3.0308E+00
                               -5.9117E-01  3.2143E+01 -3.6072E+01  2.5147E+03

           1    2.24003E+01     1.0982E-01  3.9302E-03  5.3568E-01  5.4683E-01
ac ID =   33377                -1.6656E+00 -1.7080E+00 -7.6505E-01  2.5054E+00
                               -5.9916E-01  3.2304E+01 -3.6056E+01  2.5147E+03

           1    2.25002E+01     8.5672E-02  2.1614E-03  4.9822E-01  5.0554E-01
ac ID =   33377                -1.6725E+00 -2.4780E+00 -1.2289E-01  2.9921E+00
                               -6.0719E-01  3.2464E+01 -3.6042E+01  2.5147E+03

           1    2.26002E+01     9.8911E-02  1.1781E-02  4.6178E-01  4.7240E-01
ac ID =   33377                -2.0143E+00 -2.1850E+00 -3.6324E-01  2.9939E+00
                               -6.1530E-01  3.2625E+01 -3.6029E+01  2.5147E+03

           1    2.27002E+01     1.3649E-01  3.5544E-03  4.2617E-01  4.4751E-01
ac ID =   33377                -1.8241E+00 -1.5831E+00 -7.5302E-01  2.5299E+00
                               -6.2353E-01  3.2785E+01 -3.6017E+01  2.5147E+03

           1    2.28002E+01     1.2688E-01  4.4156E-03  3.6456E-01  3.8604E-01
ac ID =   33377                -1.5842E+00 -2.1041E+00 -2.2842E-01  2.6437E+00
                               -6.3177E-01  3.2945E+01 -3.6006E+01  2.5147E+03

           1    2.29002E+01     1.2806E-01  2.4327E-03  3.5291E-01  3.7544E-01
ac ID =   33377                -1.9678E+00 -1.8597E+00 -7.9707E-01  2.8224E+00
                               -6.4016E-01  3.3105E+01 -3.5997E+01  2.5147E+03

           1    2.30002E+01     1.5918E-01  2.1177E-02  3.0116E-01  3.4130E-01
ac ID =   33377                -1.6562E+00 -2.1070E+00 -6.3979E-01  2.7553E+00
                               -6.4867E-01  3.3264E+01 -3.5988E+01  2.5147E+03

           1    2.31002E+01     1.2542E-01 -1.0620E-02  2.5139E-01  2.8114E-01
ac ID =   33377                -1.3941E+00 -2.8725E+00 -3.7147E-01  3.2145E+00
                               -6.5712E-01  3.3423E+01 -3.5980E+01  2.5147E+03

           1    2.32002E+01     1.5100E-01  4.3718E-04  1.9686E-01  2.4810E-01
ac ID =   33377                -1.2535E+00 -2.9712E+00 -5.4859E-01  3.2712E+00
                               -6.6573E-01  3.3581E+01 -3.5973E+01  2.5147E+03

           1    2.33002E+01     1.3540E-01  1.2700E-02  1.5333E-01  2.0495E-01
ac ID =   33377                -1.8057E+00 -3.5235E+00 -2.9763E-01  3.9704E+00
                               -6.7435E-01  3.3740E+01 -3.5966E+01  2.5147E+03

           1    2.34002E+01     1.2721E-01 -8.6519E-03  1.0969E-01  1.6819E-01
ac ID =   33377                -1.2241E+00 -4.2541E+00 -4.0183E-01  4.4449E+00
                               -6.8299E-01  3.3897E+01 -3.5960E+01  2.5147E+03

           1    2.35001E+01     1.6620E-01 -9.7541E-03  5.3615E-02  1.7491E-01
ac ID =   33377                -1.4179E+00 -4.1100E+00 -5.4124E-01  4.3812E+00
                               -6.9165E-01  3.4054E+01 -3.5954E+01  2.5147E+03

           1    2.36001E+01     1.3687E-01  1.0748E-02  5.8103E-03  1.3742E-01
ac ID =   33377                -1.5582E+00 -5.1184E+00 -5.1072E-01  5.3747E+00
                               -7.0047E-01  3.4211E+01 -3.5948E+01  2.5147E+03

           1    2.37001E+01     1.4829E-01  9.2063E-03 -2.1899E-02  1.5018E-01
ac ID =   33377                -1.6826E+00 -5.6946E+00 -3.6932E-01  5.9495E+00
                               -7.0921E-01  3.4367E+01 -3.5942E+01  2.5147E+03

           1    2.38001E+01     1.6516E-01 -1.4703E-02 -7.1908E-02  1.8073E-01
ac ID =   33377                -1.0847E+00 -5.1615E+00 -7.5769E-01  5.3284E+00
                               -7.1800E-01  3.4522E+01 -3.5937E+01  2.5147E+03

           1    2.39001E+01     1.4251E-01  6.9817E-03 -1.2488E-01  1.8961E-01
ac ID =   33377                -1.1293E+00 -6.4230E+00 -8.4038E-01  6.5755E+00
                               -7.2685E-01  3.4677E+01 -3.5931E+01  2.5147E+03

           1    2.40001E+01     1.4355E-01 -7.0116E-04 -1.6073E-01  2.1550E-01
ac ID =   33377                -1.4023E+00 -6.6452E+00 -3.5494E-01  6.8008E+00
                               -7.3566E-01  3.4832E+01 -3.5925E+01  2.5147E+03

           1    2.41001E+01     1.6596E-01  3.6612E-03 -2.0258E-01  2.6190E-01
ac ID =   33377                -7.0598E-01 -6.7711E+00 -5.6196E-01  6.8310E+00
                               -7.4457E-01  3.4986E+01 -3.5918E+01  2.5147E+03

           1    2.42001E+01     1.4238E-01 -7.4598E-03 -2.4380E-01  2.8242E-01
ac ID =   33377                -1.0355E+00 -7.8090E+00 -2.9699E-01  7.8830E+00
                               -7.5336E-01  3.5139E+01 -3.5911E+01  2.5147E+03

           1    2.43001E+01     1.4075E-01 -4.2504E-03 -2.8116E-01  3.1445E-01
ac ID =   33377                -5.9330E-01 -8.1786E+00 -6.3419E-01  8.2246E+00
                               -7.6223E-01  3.5291E+01 -3.5904E+01  2.5147E+03

           1    2.44001E+01     1.7937E-01  5.9884E-03 -3.2818E-01  3.7405E-01
ac ID =   33377                -1.2542E+00 -8.1340E+00 -7.6298E-01  8.2654E+00
                               -7.7112E-01  3.5443E+01 -3.5896E+01  2.5147E+03

           1    2.45005E+01     1.6969E-01 -9.8841E-03 -3.6737E-01  4.0479E-01
ac ID =   33377                -3.3797E-01 -8.7380E+00 -3.4689E-01  8.7514E+00
                               -7.8004E-01  3.5596E+01 -3.5887E+01  2.5147E+03

           1    2.46005E+01     1.5578E-01 -5.3146E-03 -3.9208E-01  4.2192E-01
ac ID =   33377                -8.7210E-01 -9.3558E+00 -2.7210E-01  9.4003E+00
                               -7.8893E-01  3.5746E+01 -3.5877E+01  2.5147E+03

           1    2.47005E+01     1.6917E-01  5.7470E-03 -4.3177E-01  4.6377E-01
ac ID =   33377                -6.5313E-01 -9.4936E+00 -7.1885E-01  9.5432E+00
                               -7.9786E-01  3.5896E+01 -3.5866E+01  2.5147E+03

           1    2.48005E+01     1.6017E-01  2.5562E-04 -4.5470E-01  4.8208E-01
ac ID =   33377                -7.3044E-01 -1.0413E+01 -7.1943E-01  1.0464E+01
                               -8.0671E-01  3.6046E+01 -3.5854E+01  2.5147E+03

           1    2.49005E+01     1.7523E-01 -2.6423E-02 -4.8503E-01  5.1638E-01
ac ID =   33377                -5.8735E-02 -1.0681E+01 -8.5507E-01  1.0715E+01
                               -8.1553E-01  3.6195E+01 -3.5842E+01  2.5147E+03

