 LSTC 50th% Full_FE H-III Dummy (Beta Version, February 17, 2019)        
                    ls-dyna smp s R16 R16.0_619_d222963 date 03/18/2025

{BEGIN LEGEND}
 Entity #        Title
    22626                                                                                     
{END LEGEND}




 n o d a l   p r i n t   o u t   f o r   t i m e  s t e p       1                              ( at time 0.0000000E+00 )

 nodal point  x-disp     y-disp      z-disp      x-vel       y-vel       z-vel      x-accl      y-accl      z-accl      x-coor      y-coor      z-coor
    22626  0.00000E+00 0.00000E+00 0.00000E+00 0.00000E+00 0.00000E+00-3.12000E+00 0.00000E+00 0.00000E+00 0.00000E+00 4.79642E+01-2.20298E+01 7.33850E+00



 n o d a l   p r i n t   o u t   f o r   t i m e  s t e p       1                              ( at time 0.0000000E+00 )

 nodal point  x-rot      y-rot       z-rot       x-rot vel   y-rot vel   z-rot vel   x-rot acc   y-rot acc   z-rot acc
    22626  0.00000E+00 0.00000E+00 0.00000E+00 0.00000E+00 0.00000E+00 0.00000E+00 0.00000E+00 0.00000E+00 0.00000E+00



 n o d a l   p r i n t   o u t   f o r   t i m e  s t e p     201                              ( at time 9.9989993E-02 )

 nodal point  x-disp     y-disp      z-disp      x-vel       y-vel       z-vel      x-accl      y-accl      z-accl      x-coor      y-coor      z-coor
    22626  8.34129E-07-4.04460E-06-3.12016E-01 4.76646E-05-4.96429E-04-3.12074E+00 4.76694E-04-4.96478E-03-7.42748E-03 4.79642E+01-2.20298E+01 7.02648E+00



 n o d a l   p r i n t   o u t   f o r   t i m e  s t e p     201                              ( at time 9.9989993E-02 )

 nodal point  x-rot      y-rot       z-rot       x-rot vel   y-rot vel   z-rot vel   x-rot acc   y-rot acc   z-rot acc
    22626  9.60896E-09 3.03939E-08 5.26939E-08 1.30720E-06 2.72160E-06 5.21187E-06 1.30733E-05 2.72187E-05 5.21239E-05



 n o d a l   p r i n t   o u t   f o r   t i m e  s t e p     401                              ( at time 1.9997999E-01 )

 nodal point  x-disp     y-disp      z-disp      x-vel       y-vel       z-vel      x-accl      y-accl      z-accl      x-coor      y-coor      z-coor
    22626 -5.12738E-05-5.21556E-04-6.23853E-01-1.09651E-03-1.11149E-02-3.11558E+00-1.14429E-02-1.06195E-01 5.16252E-02 4.79641E+01-2.20303E+01 6.71465E+00



 n o d a l   p r i n t   o u t   f o r   t i m e  s t e p     401                              ( at time 1.9997999E-01 )

 nodal point  x-rot      y-rot       z-rot       x-rot vel   y-rot vel   z-rot vel   x-rot acc   y-rot acc   z-rot acc
    22626  4.60277E-07 1.33006E-06 2.50249E-06 2.65238E-06 1.90807E-05 3.49786E-05 1.34531E-05 1.63608E-04 2.97697E-04



 n o d a l   p r i n t   o u t   f o r   t i m e  s t e p     601                              ( at time 2.9996998E-01 )

 nodal point  x-disp     y-disp      z-disp      x-vel       y-vel       z-vel      x-accl      y-accl      z-accl      x-coor      y-coor      z-coor
    22626 -2.45907E-05-1.97635E-03-9.35238E-01 1.66077E-03-1.60457E-02-3.11415E+00 2.75756E-02-4.93131E-02 1.43256E-02 4.79642E+01-2.20318E+01 6.40326E+00



 n o d a l   p r i n t   o u t   f o r   t i m e  s t e p     601                              ( at time 2.9996998E-01 )

 nodal point  x-rot      y-rot       z-rot       x-rot vel   y-rot vel   z-rot vel   x-rot acc   y-rot acc   z-rot acc
    22626  6.75133E-07 2.41156E-06 4.82756E-06 8.24254E-06 5.36842E-06 1.46820E-05 5.59072E-05-1.37137E-04-2.02986E-04



 n o d a l   p r i n t   o u t   f o r   t i m e  s t e p     801                              ( at time 3.9995997E-01 )

 nodal point  x-disp     y-disp      z-disp      x-vel       y-vel       z-vel      x-accl      y-accl      z-accl      x-coor      y-coor      z-coor
    22626  5.94468E-05-3.57407E-03-1.24663E+00 1.95775E-04-1.73913E-02-3.11353E+00-1.46514E-02-1.34575E-02 6.16612E-03 4.79642E+01-2.20334E+01 6.09187E+00



 n o d a l   p r i n t   o u t   f o r   t i m e  s t e p     801                              ( at time 3.9995997E-01 )

 nodal point  x-rot      y-rot       z-rot       x-rot vel   y-rot vel   z-rot vel   x-rot acc   y-rot acc   z-rot acc
    22626  1.58230E-06 3.68039E-06 6.68068E-06 6.25505E-06 2.42625E-05 3.82843E-05-1.98769E-05 1.88960E-04 2.36046E-04



 n o d a l   p r i n t   o u t   f o r   t i m e  s t e p    1001                              ( at time 4.9994997E-01 )

 nodal point  x-disp     y-disp      z-disp      x-vel       y-vel       z-vel      x-accl      y-accl      z-accl      x-coor      y-coor      z-coor
    22626  7.27544E-05-5.63147E-03-1.55782E+00 8.93466E-04-2.38461E-02-3.11085E+00 6.97761E-03-6.45546E-02 2.68057E-02 4.79643E+01-2.20354E+01 5.78068E+00



 n o d a l   p r i n t   o u t   f o r   t i m e  s t e p    1001                              ( at time 4.9994997E-01 )

 nodal point  x-rot      y-rot       z-rot       x-rot vel   y-rot vel   z-rot vel   x-rot acc   y-rot acc   z-rot acc
    22626  1.49433E-06 6.64914E-06 1.18380E-05-4.86574E-06 4.38257E-05 7.20826E-05-1.11219E-04 1.95651E-04 3.38017E-04



 n o d a l   p r i n t   o u t   f o r   t i m e  s t e p    1201                              ( at time 5.9993996E-01 )

 nodal point  x-disp     y-disp      z-disp      x-vel       y-vel       z-vel      x-accl      y-accl      z-accl      x-coor      y-coor      z-coor
    22626  5.29530E-05-8.13739E-03-1.86888E+00-5.64930E-04-2.61240E-02-3.11084E+00-1.45854E-02-2.27811E-02 1.14452E-04 4.79642E+01-2.20379E+01 5.46962E+00



 n o d a l   p r i n t   o u t   f o r   t i m e  s t e p    1201                              ( at time 5.9993996E-01 )

 nodal point  x-rot      y-rot       z-rot       x-rot vel   y-rot vel   z-rot vel   x-rot acc   y-rot acc   z-rot acc
    22626  1.26514E-06 9.87578E-06 1.77373E-05-2.15803E-06 2.63708E-05 5.30173E-05 2.70798E-05-1.74566E-04-1.90672E-04



 n o d a l   p r i n t   o u t   f o r   t i m e  s t e p    1401                              ( at time 6.9992995E-01 )

 nodal point  x-disp     y-disp      z-disp      x-vel       y-vel       z-vel      x-accl      y-accl      z-accl      x-coor      y-coor      z-coor
    22626  1.96946E-05-1.10207E-02-2.17976E+00 7.18335E-04-3.22407E-02-3.10770E+00 1.28339E-02-6.11724E-02 3.14386E-02 4.79642E+01-2.20408E+01 5.15874E+00



 n o d a l   p r i n t   o u t   f o r   t i m e  s t e p    1401                              ( at time 6.9992995E-01 )

 nodal point  x-rot      y-rot       z-rot       x-rot vel   y-rot vel   z-rot vel   x-rot acc   y-rot acc   z-rot acc
    22626  1.10211E-06 1.30702E-05 2.27053E-05-2.36750E-06 3.79179E-05 5.94598E-05-2.09488E-06 1.15483E-04 6.44317E-05



 n o d a l   p r i n t   o u t   f o r   t i m e  s t e p    1601                              ( at time 7.9991994E-01 )

 nodal point  x-disp     y-disp      z-disp      x-vel       y-vel       z-vel      x-accl      y-accl      z-accl      x-coor      y-coor      z-coor
    22626  1.33067E-04-1.45710E-02-2.49038E+00 1.37363E-03-3.68145E-02-3.10600E+00 6.55362E-03-4.57432E-02 1.69366E-02 4.79643E+01-2.20444E+01 4.84812E+00



 n o d a l   p r i n t   o u t   f o r   t i m e  s t e p    1601                              ( at time 7.9991994E-01 )

 nodal point  x-rot      y-rot       z-rot       x-rot vel   y-rot vel   z-rot vel   x-rot acc   y-rot acc   z-rot acc
    22626  1.00779E-06 1.72067E-05 2.96662E-05 3.03171E-06 4.88498E-05 7.64371E-05 5.39975E-05 1.09330E-04 1.69789E-04



 n o d a l   p r i n t   o u t   f o r   t i m e  s t e p    1801                              ( at time 8.9990994E-01 )

 nodal point  x-disp     y-disp      z-disp      x-vel       y-vel       z-vel      x-accl      y-accl      z-accl      x-coor      y-coor      z-coor
    22626  2.07373E-04-1.82140E-02-2.80104E+00-5.12613E-04-3.64332E-02-3.10742E+00-1.88644E-02 3.81359E-03-1.41611E-02 4.79644E+01-2.20480E+01 4.53746E+00



 n o d a l   p r i n t   o u t   f o r   t i m e  s t e p    1801                              ( at time 8.9990994E-01 )

 nodal point  x-rot      y-rot       z-rot       x-rot vel   y-rot vel   z-rot vel   x-rot acc   y-rot acc   z-rot acc
    22626  1.02429E-06 2.13209E-05 3.66561E-05-1.96847E-06 3.79313E-05 6.82259E-05-5.00068E-05-1.09196E-04-8.21202E-05



 n o d a l   p r i n t   o u t   f o r   t i m e  s t e p    2001                              ( at time 9.9989993E-01 )

 nodal point  x-disp     y-disp      z-disp      x-vel       y-vel       z-vel      x-accl      y-accl      z-accl      x-coor      y-coor      z-coor
    22626  1.09789E-04-2.19276E-02-3.11175E+00-8.19069E-04-3.83986E-02-3.10755E+00-3.06487E-03-1.96558E-02-1.29713E-03 4.79643E+01-2.20517E+01 4.22675E+00



 n o d a l   p r i n t   o u t   f o r   t i m e  s t e p    2001                              ( at time 9.9989993E-01 )

 nodal point  x-rot      y-rot       z-rot       x-rot vel   y-rot vel   z-rot vel   x-rot acc   y-rot acc   z-rot acc
    22626  8.56151E-07 2.55332E-05 4.38498E-05-9.13496E-07 4.62457E-05 8.58738E-05 1.05508E-05 8.31519E-05 1.76496E-04



 n o d a l   p r i n t   o u t   f o r   t i m e  s t e p    2201                              ( at time 1.0998899E+00 )

 nodal point  x-disp     y-disp      z-disp      x-vel       y-vel       z-vel      x-accl      y-accl      z-accl      x-coor      y-coor      z-coor
    22626  9.19140E-05-2.58761E-02-3.42246E+00-2.18339E-04-4.02563E-02-3.10712E+00 6.00791E-03-1.85788E-02 4.26812E-03 4.79643E+01-2.20557E+01 3.91605E+00



 n o d a l   p r i n t   o u t   f o r   t i m e  s t e p    2201                              ( at time 1.0998899E+00 )

 nodal point  x-rot      y-rot       z-rot       x-rot vel   y-rot vel   z-rot vel   x-rot acc   y-rot acc   z-rot acc
    22626  9.33488E-07 3.03124E-05 5.24802E-05 5.32623E-06 4.65246E-05 7.51631E-05 6.24035E-05 2.78985E-06-1.07117E-04



 n o d a l   p r i n t   o u t   f o r   t i m e  s t e p    2401                              ( at time 1.1998799E+00 )

 nodal point  x-disp     y-disp      z-disp      x-vel       y-vel       z-vel      x-accl      y-accl      z-accl      x-coor      y-coor      z-coor
    22626  1.34273E-04-2.98901E-02-3.73320E+00 7.32698E-04-3.98048E-02-3.10849E+00 9.51132E-03 4.51521E-03-1.37343E-02 4.79643E+01-2.20597E+01 3.60531E+00



 n o d a l   p r i n t   o u t   f o r   t i m e  s t e p    2401                              ( at time 1.1998799E+00 )

 nodal point  x-rot      y-rot       z-rot       x-rot vel   y-rot vel   z-rot vel   x-rot acc   y-rot acc   z-rot acc
    22626  1.33720E-06 3.44655E-05 5.93277E-05 5.01604E-06 3.98293E-05 6.55030E-05-3.10221E-06-6.69598E-05-9.66111E-05



 n o d a l   p r i n t   o u t   f o r   t i m e  s t e p    2601                              ( at time 1.2998699E+00 )

 nodal point  x-disp     y-disp      z-disp      x-vel       y-vel       z-vel      x-accl      y-accl      z-accl      x-coor      y-coor      z-coor
    22626  1.46177E-04-3.37303E-02-4.04413E+00-4.24303E-04-3.65878E-02-3.11133E+00-1.15712E-02 3.21733E-02-2.83031E-02 4.79643E+01-2.20635E+01 3.29437E+00



 n o d a l   p r i n t   o u t   f o r   t i m e  s t e p    2601                              ( at time 1.2998699E+00 )

 nodal point  x-rot      y-rot       z-rot       x-rot vel   y-rot vel   z-rot vel   x-rot acc   y-rot acc   z-rot acc
    22626  1.63938E-06 3.85437E-05 6.61331E-05-2.47919E-06 4.55197E-05 7.98865E-05-7.49598E-05 5.69091E-05 1.43850E-04



 n o d a l   p r i n t   o u t   f o r   t i m e  s t e p    2801                              ( at time 1.3998599E+00 )

 nodal point  x-disp     y-disp      z-disp      x-vel       y-vel       z-vel      x-accl      y-accl      z-accl      x-coor      y-coor      z-coor
    22626  3.22287E-05-3.71240E-02-4.35543E+00-1.30709E-03-3.14367E-02-3.11511E+00-8.82879E-03 5.15160E-02-3.78551E-02 4.79642E+01-2.20669E+01 2.98307E+00



 n o d a l   p r i n t   o u t   f o r   t i m e  s t e p    2801                              ( at time 1.3998599E+00 )

 nodal point  x-rot      y-rot       z-rot       x-rot vel   y-rot vel   z-rot vel   x-rot acc   y-rot acc   z-rot acc
    22626  1.20426E-06 4.29496E-05 7.39894E-05-4.52842E-06 4.45413E-05 7.35018E-05-2.04944E-05-9.78463E-06-6.38531E-05



 n o d a l   p r i n t   o u t   f o r   t i m e  s t e p    3001                              ( at time 1.4998499E+00 )

 nodal point  x-disp     y-disp      z-disp      x-vel       y-vel       z-vel      x-accl      y-accl      z-accl      x-coor      y-coor      z-coor
    22626 -7.75575E-05-4.01686E-02-4.66702E+00-4.95957E-04-2.97690E-02-3.11713E+00 8.11219E-03 1.66788E-02-2.02223E-02 4.79641E+01-2.20700E+01 2.67148E+00



 n o d a l   p r i n t   o u t   f o r   t i m e  s t e p    3001                              ( at time 1.4998499E+00 )

 nodal point  x-rot      y-rot       z-rot       x-rot vel   y-rot vel   z-rot vel   x-rot acc   y-rot acc   z-rot acc
    22626  8.27255E-07 4.68525E-05 8.05206E-05-1.60971E-06 3.18587E-05 5.69793E-05 2.91901E-05-1.26839E-04-1.65241E-04



 n o d a l   p r i n t   o u t   f o r   t i m e  s t e p    3201                              ( at time 1.5998399E+00 )

 nodal point  x-disp     y-disp      z-disp      x-vel       y-vel       z-vel      x-accl      y-accl      z-accl      x-coor      y-coor      z-coor
    22626 -1.24279E-04-4.30592E-02-4.97879E+00-6.95424E-04-2.75080E-02-3.11940E+00-1.99487E-03 2.26117E-02-2.26783E-02 4.79641E+01-2.20728E+01 2.35971E+00



 n o d a l   p r i n t   o u t   f o r   t i m e  s t e p    3201                              ( at time 1.5998399E+00 )

 nodal point  x-rot      y-rot       z-rot       x-rot vel   y-rot vel   z-rot vel   x-rot acc   y-rot acc   z-rot acc
    22626  5.16187E-07 4.99116E-05 8.53953E-05-1.51585E-06 3.26191E-05 4.79275E-05 9.38642E-07 7.60508E-06-9.05275E-05



 n o d a l   p r i n t   o u t   f o r   t i m e  s t e p    3401                              ( at time 1.6998299E+00 )

 nodal point  x-disp     y-disp      z-disp      x-vel       y-vel       z-vel      x-accl      y-accl      z-accl      x-coor      y-coor      z-coor
    22626 -2.11023E-04-4.55734E-02-5.29089E+00-1.13067E-03-2.24400E-02-3.12325E+00-4.35292E-03 5.06851E-02-3.85180E-02 4.79640E+01-2.20754E+01 2.04762E+00



 n o d a l   p r i n t   o u t   f o r   t i m e  s t e p    3401                              ( at time 1.6998299E+00 )

 nodal point  x-rot      y-rot       z-rot       x-rot vel   y-rot vel   z-rot vel   x-rot acc   y-rot acc   z-rot acc
    22626  3.01692E-07 5.29945E-05 9.04304E-05-3.76940E-06 2.98314E-05 4.77669E-05-2.25378E-05-2.78798E-05-1.60618E-06



 n o d a l   p r i n t   o u t   f o r   t i m e  s t e p    3601                              ( at time 1.7998199E+00 )

 nodal point  x-disp     y-disp      z-disp      x-vel       y-vel       z-vel      x-accl      y-accl      z-accl      x-coor      y-coor      z-coor
    22626 -3.12581E-04-4.75642E-02-5.60339E+00-1.32819E-03-1.77180E-02-3.12732E+00-1.97540E-03 4.72253E-02-4.06592E-02 4.79639E+01-2.20774E+01 1.73511E+00



 n o d a l   p r i n t   o u t   f o r   t i m e  s t e p    3601                              ( at time 1.7998199E+00 )

 nodal point  x-rot      y-rot       z-rot       x-rot vel   y-rot vel   z-rot vel   x-rot acc   y-rot acc   z-rot acc
    22626  1.55969E-07 5.57829E-05 9.51885E-05-4.38494E-07 2.14042E-05 4.20057E-05 3.33125E-05-8.42808E-05-5.76173E-05



 n o d a l   p r i n t   o u t   f o r   t i m e  s t e p    3801                              ( at time 1.8998099E+00 )

 nodal point  x-disp     y-disp      z-disp      x-vel       y-vel       z-vel      x-accl      y-accl      z-accl      x-coor      y-coor      z-coor
    22626 -5.00122E-04-4.92019E-02-5.91621E+00-2.16489E-03-1.51639E-02-3.12982E+00-8.36782E-03 2.55436E-02-2.50627E-02 4.79637E+01-2.20790E+01 1.42229E+00



 n o d a l   p r i n t   o u t   f o r   t i m e  s t e p    3801                              ( at time 1.8998099E+00 )

 nodal point  x-rot      y-rot       z-rot       x-rot vel   y-rot vel   z-rot vel   x-rot acc   y-rot acc   z-rot acc
    22626 -8.81836E-08 5.76805E-05 9.86046E-05 1.58743E-06 1.55711E-05 2.75605E-05 2.02613E-05-5.83370E-05-1.44467E-04



 n o d a l   p r i n t   o u t   f o r   t i m e  s t e p    4001                              ( at time 1.9997999E+00 )

 nodal point  x-disp     y-disp      z-disp      x-vel       y-vel       z-vel      x-accl      y-accl      z-accl      x-coor      y-coor      z-coor
    22626 -6.73550E-04-5.05922E-02-6.22929E+00-1.64997E-03-1.28131E-02-3.13210E+00 5.14975E-03 2.35102E-02-2.27927E-02 4.79635E+01-2.20804E+01 1.10921E+00



 n o d a l   p r i n t   o u t   f o r   t i m e  s t e p    4001                              ( at time 1.9997999E+00 )

 nodal point  x-rot      y-rot       z-rot       x-rot vel   y-rot vel   z-rot vel   x-rot acc   y-rot acc   z-rot acc
    22626  1.17991E-07 5.90176E-05 1.00916E-04 3.45373E-06 1.32988E-05 2.02392E-05 1.86649E-05-2.27249E-05-7.32198E-05



 n o d a l   p r i n t   o u t   f o r   t i m e  s t e p    4201                              ( at time 2.0997899E+00 )

 nodal point  x-disp     y-disp      z-disp      x-vel       y-vel       z-vel      x-accl      y-accl      z-accl      x-coor      y-coor      z-coor
    22626 -8.42640E-04-5.16833E-02-6.54262E+00-1.85800E-03-9.14987E-03-3.13518E+00-2.08053E-03 3.66360E-02-3.08091E-02 4.79633E+01-2.20815E+01 7.95876E-01



 n o d a l   p r i n t   o u t   f o r   t i m e  s t e p    4201                              ( at time 2.0997899E+00 )

 nodal point  x-rot      y-rot       z-rot       x-rot vel   y-rot vel   z-rot vel   x-rot acc   y-rot acc   z-rot acc
    22626  4.03177E-07 5.96604E-05 1.02007E-04-1.37864E-06 3.35951E-06 1.60329E-06-4.83285E-05-9.94028E-05-1.86378E-04



 n o d a l   p r i n t   o u t   f o r   t i m e  s t e p    4401                              ( at time 2.1997798E+00 )

 nodal point  x-disp     y-disp      z-disp      x-vel       y-vel       z-vel      x-accl      y-accl      z-accl      x-coor      y-coor      z-coor
    22626 -1.08480E-03-5.23698E-02-6.85629E+00-2.77617E-03-4.41264E-03-3.13895E+00-9.18262E-03 4.73771E-02-3.76596E-02 4.79631E+01-2.20822E+01 4.82212E-01



 n o d a l   p r i n t   o u t   f o r   t i m e  s t e p    4401                              ( at time 2.1997798E+00 )

 nodal point  x-rot      y-rot       z-rot       x-rot vel   y-rot vel   z-rot vel   x-rot acc   y-rot acc   z-rot acc
    22626  2.26126E-07 5.96518E-05 1.01938E-04-1.25141E-06-2.08799E-06-3.04964E-06 1.27242E-06-5.44805E-05-4.65340E-05



 n o d a l   p r i n t   o u t   f o r   t i m e  s t e p    4601                              ( at time 2.2997698E+00 )

 nodal point  x-disp     y-disp      z-disp      x-vel       y-vel       z-vel      x-accl      y-accl      z-accl      x-coor      y-coor      z-coor
    22626 -1.39363E-03-5.25651E-02-7.17034E+00-3.51799E-03-8.73107E-05-3.14228E+00-7.41892E-03 4.32575E-02-3.33318E-02 4.79628E+01-2.20824E+01 1.68162E-01



 n o d a l   p r i n t   o u t   f o r   t i m e  s t e p    4601                              ( at time 2.2997698E+00 )

 nodal point  x-rot      y-rot       z-rot       x-rot vel   y-rot vel   z-rot vel   x-rot acc   y-rot acc   z-rot acc
    22626 -1.62498E-07 5.93395E-05 1.01567E-04-4.47974E-06-9.87012E-06-1.29898E-05-3.22865E-05-7.78290E-05-9.94118E-05



 n o d a l   p r i n t   o u t   f o r   t i m e  s t e p    4801                              ( at time 2.3997598E+00 )

 nodal point  x-disp     y-disp      z-disp      x-vel       y-vel       z-vel      x-accl      y-accl      z-accl      x-coor      y-coor      z-coor
    22626 -1.76241E-03-5.24779E-02-7.48464E+00-3.61702E-03 1.87124E-03-3.14440E+00-9.90441E-04 1.95875E-02-2.12047E-02 4.79624E+01-2.20823E+01-1.46136E-01



 n o d a l   p r i n t   o u t   f o r   t i m e  s t e p    4801                              ( at time 2.3997598E+00 )

 nodal point  x-rot      y-rot       z-rot       x-rot vel   y-rot vel   z-rot vel   x-rot acc   y-rot acc   z-rot acc
    22626 -7.09097E-07 5.80737E-05 9.90798E-05-6.05361E-06-1.62722E-05-3.38744E-05-1.57403E-05-6.40271E-05-2.08867E-04



 n o d a l   p r i n t   o u t   f o r   t i m e  s t e p    5001                              ( at time 2.4997498E+00 )

 nodal point  x-disp     y-disp      z-disp      x-vel       y-vel       z-vel      x-accl      y-accl      z-accl      x-coor      y-coor      z-coor
    22626 -2.15574E-03-5.21704E-02-7.79916E+00-4.23127E-03 4.96376E-03-3.14711E+00-6.14304E-03 3.09282E-02-2.70703E-02 4.79620E+01-2.20820E+01-4.60662E-01



 n o d a l   p r i n t   o u t   f o r   t i m e  s t e p    5001                              ( at time 2.4997498E+00 )

 nodal point  x-rot      y-rot       z-rot       x-rot vel   y-rot vel   z-rot vel   x-rot acc   y-rot acc   z-rot acc
    22626 -1.15745E-06 5.58405E-05 9.51138E-05-4.03522E-06-2.62128E-05-4.84108E-05 2.01859E-05-9.94159E-05-1.45378E-04



 n o d a l   p r i n t   o u t   f o r   t i m e  s t e p    5201                              ( at time 2.5997398E+00 )

 nodal point  x-disp     y-disp      z-disp      x-vel       y-vel       z-vel      x-accl      y-accl      z-accl      x-coor      y-coor      z-coor
    22626 -2.63021E-03-5.14561E-02-8.11403E+00-5.25230E-03 9.26968E-03-3.15070E+00-1.02114E-02 4.30636E-02-3.59405E-02 4.79616E+01-2.20812E+01-7.75527E-01



 n o d a l   p r i n t   o u t   f o r   t i m e  s t e p    5201                              ( at time 2.5997398E+00 )

 nodal point  x-rot      y-rot       z-rot       x-rot vel   y-rot vel   z-rot vel   x-rot acc   y-rot acc   z-rot acc
    22626 -1.52814E-06 5.27364E-05 8.96769E-05-4.72576E-06-3.59236E-05-6.24636E-05-6.90615E-06-9.71174E-05-1.40542E-04



 n o d a l   p r i n t   o u t   f o r   t i m e  s t e p    5401                              ( at time 2.6997298E+00 )

 nodal point  x-disp     y-disp      z-disp      x-vel       y-vel       z-vel      x-accl      y-accl      z-accl      x-coor      y-coor      z-coor
    22626 -3.19995E-03-5.03212E-02-8.42925E+00-6.42259E-03 1.29805E-02-3.15422E+00-1.17040E-02 3.71119E-02-3.51440E-02 4.79610E+01-2.20801E+01-1.09075E+00



 n o d a l   p r i n t   o u t   f o r   t i m e  s t e p    5401                              ( at time 2.6997298E+00 )

 nodal point  x-rot      y-rot       z-rot       x-rot vel   y-rot vel   z-rot vel   x-rot acc   y-rot acc   z-rot acc
    22626 -1.82373E-06 4.89852E-05 8.31711E-05-1.83017E-06-4.14047E-05-6.69317E-05 2.89588E-05-5.48172E-05-4.46848E-05



 n o d a l   p r i n t   o u t   f o r   t i m e  s t e p    5601                              ( at time 2.7997198E+00 )

 nodal point  x-disp     y-disp      z-disp      x-vel       y-vel       z-vel      x-accl      y-accl      z-accl      x-coor      y-coor      z-coor
    22626 -3.91366E-03-4.88967E-02-8.74475E+00-7.67553E-03 1.51526E-02-3.15635E+00-1.25307E-02 2.17226E-02-2.13359E-02 4.79603E+01-2.20787E+01-1.40625E+00



 n o d a l   p r i n t   o u t   f o r   t i m e  s t e p    5601                              ( at time 2.7997198E+00 )

 nodal point  x-rot      y-rot       z-rot       x-rot vel   y-rot vel   z-rot vel   x-rot acc   y-rot acc   z-rot acc
    22626 -1.95522E-06 4.40932E-05 7.50705E-05 3.52655E-07-5.72344E-05-9.83601E-05 2.18305E-05-1.58313E-04-3.14316E-04



 n o d a l   p r i n t   o u t   f o r   t i m e  s t e p    5801                              ( at time 2.8997098E+00 )

 nodal point  x-disp     y-disp      z-disp      x-vel       y-vel       z-vel      x-accl      y-accl      z-accl      x-coor      y-coor      z-coor
    22626 -4.68524E-03-4.73281E-02-9.06045E+00-7.82490E-03 1.61371E-02-3.15804E+00-1.49384E-03 9.84616E-03-1.68937E-02 4.79595E+01-2.20771E+01-1.72195E+00



 n o d a l   p r i n t   o u t   f o r   t i m e  s t e p    5801                              ( at time 2.8997098E+00 )

 nodal point  x-rot      y-rot       z-rot       x-rot vel   y-rot vel   z-rot vel   x-rot acc   y-rot acc   z-rot acc
    22626 -1.75548E-06 3.76557E-05 6.41665E-05 2.35908E-06-6.65148E-05-1.15302E-04 2.00663E-05-9.28132E-05-1.69438E-04



 n o d a l   p r i n t   o u t   f o r   t i m e  s t e p    6001                              ( at time 2.9996998E+00 )

 nodal point  x-disp     y-disp      z-disp      x-vel       y-vel       z-vel      x-accl      y-accl      z-accl      x-coor      y-coor      z-coor
    22626 -5.50575E-03-4.55962E-02-9.37632E+00-8.83070E-03 1.86392E-02-3.16041E+00-1.00590E-02 2.50240E-02-2.37274E-02 4.79587E+01-2.20754E+01-2.03782E+00



 n o d a l   p r i n t   o u t   f o r   t i m e  s t e p    6001                              ( at time 2.9996998E+00 )

 nodal point  x-rot      y-rot       z-rot       x-rot vel   y-rot vel   z-rot vel   x-rot acc   y-rot acc   z-rot acc
    22626 -1.52359E-06 3.07930E-05 5.26011E-05 7.04237E-07-7.08390E-05-1.20949E-04-1.65500E-05-4.32467E-05-5.64705E-05



 n o d a l   p r i n t   o u t   f o r   t i m e  s t e p    6201                              ( at time 3.0996898E+00 )

 nodal point  x-disp     y-disp      z-disp      x-vel       y-vel       z-vel      x-accl      y-accl      z-accl      x-coor      y-coor      z-coor
    22626 -6.47096E-03-4.36150E-02-9.69245E+00-1.04161E-02 2.05665E-02-3.16241E+00-1.58559E-02 1.92743E-02-1.99696E-02 4.79577E+01-2.20734E+01-2.35395E+00



 n o d a l   p r i n t   o u t   f o r   t i m e  s t e p    6201                              ( at time 3.0996898E+00 )

 nodal point  x-rot      y-rot       z-rot       x-rot vel   y-rot vel   z-rot vel   x-rot acc   y-rot acc   z-rot acc
    22626 -1.56946E-06 2.34349E-05 3.99748E-05-1.92153E-06-7.58013E-05-1.33361E-04-2.62604E-05-4.96282E-05-1.24140E-04



 n o d a l   p r i n t   o u t   f o r   t i m e  s t e p    6401                              ( at time 3.1996798E+00 )

 nodal point  x-disp     y-disp      z-disp      x-vel       y-vel       z-vel      x-accl      y-accl      z-accl      x-coor      y-coor      z-coor
    22626 -7.54198E-03-4.15844E-02-1.00087E+01-1.09345E-02 1.97596E-02-3.16298E+00-5.18446E-03-8.06938E-03-5.70830E-03 4.79566E+01-2.20714E+01-2.67020E+00



 n o d a l   p r i n t   o u t   f o r   t i m e  s t e p    6401                              ( at time 3.1996798E+00 )

 nodal point  x-rot      y-rot       z-rot       x-rot vel   y-rot vel   z-rot vel   x-rot acc   y-rot acc   z-rot acc
    22626 -1.69960E-06 1.53632E-05 2.63825E-05-1.62017E-06-8.52223E-05-1.43833E-04 3.01389E-06-9.42185E-05-1.04728E-04



 n o d a l   p r i n t   o u t   f o r   t i m e  s t e p    6601                              ( at time 3.2996698E+00 )

 nodal point  x-disp     y-disp      z-disp      x-vel       y-vel       z-vel      x-accl      y-accl      z-accl      x-coor      y-coor      z-coor
    22626 -8.64776E-03-3.97047E-02-1.03249E+01-1.12013E-02 1.78252E-02-3.16270E+00-2.66761E-03-1.93456E-02 2.82793E-03 4.79555E+01-2.20695E+01-2.98645E+00



 n o d a l   p r i n t   o u t   f o r   t i m e  s t e p    6601                              ( at time 3.2996698E+00 )

 nodal point  x-rot      y-rot       z-rot       x-rot vel   y-rot vel   z-rot vel   x-rot acc   y-rot acc   z-rot acc
    22626 -1.96522E-06 6.67026E-06 1.16235E-05-2.45537E-06-8.94852E-05-1.51645E-04-8.35282E-06-4.26341E-05-7.81230E-05



 n o d a l   p r i n t   o u t   f o r   t i m e  s t e p    6801                              ( at time 3.3996598E+00 )

 nodal point  x-disp     y-disp      z-disp      x-vel       y-vel       z-vel      x-accl      y-accl      z-accl      x-coor      y-coor      z-coor
    22626 -9.79821E-03-3.80132E-02-1.06412E+01-1.16922E-02 1.60374E-02-3.16263E+00-4.91034E-03-1.78805E-02 6.77176E-04 4.79544E+01-2.20678E+01-3.30268E+00



 n o d a l   p r i n t   o u t   f o r   t i m e  s t e p    6801                              ( at time 3.3996598E+00 )

 nodal point  x-rot      y-rot       z-rot       x-rot vel   y-rot vel   z-rot vel   x-rot acc   y-rot acc   z-rot acc
    22626 -2.01205E-06-2.21926E-06-3.66799E-06-2.58217E-06-8.81069E-05-1.53063E-04-1.26807E-06 1.37849E-05-1.41821E-05



 n o d a l   p r i n t   o u t   f o r   t i m e  s t e p    7001                              ( at time 3.4996498E+00 )

 nodal point  x-disp     y-disp      z-disp      x-vel       y-vel       z-vel      x-accl      y-accl      z-accl      x-coor      y-coor      z-coor
    22626 -1.09957E-02-3.64834E-02-1.09574E+01-1.23219E-02 1.44927E-02-3.16281E+00-6.29688E-03-1.54483E-02-1.85270E-03 4.79532E+01-2.20663E+01-3.61893E+00



 n o d a l   p r i n t   o u t   f o r   t i m e  s t e p    7001                              ( at time 3.4996498E+00 )

 nodal point  x-rot      y-rot       z-rot       x-rot vel   y-rot vel   z-rot vel   x-rot acc   y-rot acc   z-rot acc
    22626 -2.00297E-06-1.08790E-05-1.84953E-05 6.73867E-07-8.71030E-05-1.47313E-04 3.25636E-05 1.00395E-05 5.75036E-05



 n o d a l   p r i n t   o u t   f o r   t i m e  s t e p    7201                              ( at time 3.5996397E+00 )

 nodal point  x-disp     y-disp      z-disp      x-vel       y-vel       z-vel      x-accl      y-accl      z-accl      x-coor      y-coor      z-coor
    22626 -1.22501E-02-3.51405E-02-1.12737E+01-1.24121E-02 1.20968E-02-3.16260E+00-9.02478E-04-2.39608E-02 2.10306E-03 4.79519E+01-2.20649E+01-3.93518E+00



 n o d a l   p r i n t   o u t   f o r   t i m e  s t e p    7201                              ( at time 3.5996397E+00 )

 nodal point  x-rot      y-rot       z-rot       x-rot vel   y-rot vel   z-rot vel   x-rot acc   y-rot acc   z-rot acc
    22626 -2.01209E-06-1.95027E-05-3.29752E-05 2.08941E-06-8.47352E-05-1.38736E-04 1.41568E-05 2.36808E-05 8.57784E-05



 n o d a l   p r i n t   o u t   f o r   t i m e  s t e p    7401                              ( at time 3.6996297E+00 )

 nodal point  x-disp     y-disp      z-disp      x-vel       y-vel       z-vel      x-accl      y-accl      z-accl      x-coor      y-coor      z-coor
    22626 -1.34799E-02-3.40967E-02-1.15899E+01-1.21363E-02 8.70279E-03-3.16159E+00 2.75807E-03-3.39438E-02 1.00813E-02 4.79507E+01-2.20639E+01-4.25135E+00



 n o d a l   p r i n t   o u t   f o r   t i m e  s t e p    7401                              ( at time 3.6996297E+00 )

 nodal point  x-rot      y-rot       z-rot       x-rot vel   y-rot vel   z-rot vel   x-rot acc   y-rot acc   z-rot acc
    22626 -1.75496E-06-2.77876E-05-4.67657E-05 3.65978E-06-8.11955E-05-1.36345E-04 1.57053E-05 3.54008E-05 2.39112E-05



 n o d a l   p r i n t   o u t   f o r   t i m e  s t e p    7601                              ( at time 3.7996197E+00 )

 nodal point  x-disp     y-disp      z-disp      x-vel       y-vel       z-vel      x-accl      y-accl      z-accl      x-coor      y-coor      z-coor
    22626 -1.46647E-02-3.33642E-02-1.19059E+01-1.15790E-02 6.00759E-03-3.16089E+00 5.57383E-03-2.69547E-02 7.05075E-03 4.79495E+01-2.20632E+01-4.56744E+00



 n o d a l   p r i n t   o u t   f o r   t i m e  s t e p    7601                              ( at time 3.7996197E+00 )

 nodal point  x-rot      y-rot       z-rot       x-rot vel   y-rot vel   z-rot vel   x-rot acc   y-rot acc   z-rot acc
    22626 -1.28955E-06-3.55993E-05-6.00309E-05 5.38092E-06-7.23579E-05-1.21970E-04 1.72132E-05 8.83844E-05 1.43768E-04



 n o d a l   p r i n t   o u t   f o r   t i m e  s t e p    7801                              ( at time 3.8996097E+00 )

 nodal point  x-disp     y-disp      z-disp      x-vel       y-vel       z-vel      x-accl      y-accl      z-accl      x-coor      y-coor      z-coor
    22626 -1.57920E-02-3.28631E-02-1.22220E+01-1.09452E-02 4.22649E-03-3.16081E+00 6.33865E-03-1.78128E-02 8.41701E-04 4.79484E+01-2.20627E+01-4.88349E+00



 n o d a l   p r i n t   o u t   f o r   t i m e  s t e p    7801                              ( at time 3.8996097E+00 )

 nodal point  x-rot      y-rot       z-rot       x-rot vel   y-rot vel   z-rot vel   x-rot acc   y-rot acc   z-rot acc
    22626 -9.23909E-07-4.22012E-05-7.11490E-05 6.03638E-07-5.77464E-05-9.62137E-05-4.77776E-05 1.46129E-04 2.57586E-04



 n o d a l   p r i n t   o u t   f o r   t i m e  s t e p    8001                              ( at time 3.9995997E+00 )

 nodal point  x-disp     y-disp      z-disp      x-vel       y-vel       z-vel      x-accl      y-accl      z-accl      x-coor      y-coor      z-coor
    22626 -1.68597E-02-3.24926E-02-1.25381E+01-1.03907E-02 3.13995E-03-3.16114E+00 5.54509E-03-1.08665E-02-3.35250E-03 4.79473E+01-2.20623E+01-5.19956E+00



 n o d a l   p r i n t   o u t   f o r   t i m e  s t e p    8001                              ( at time 3.9995997E+00 )

 nodal point  x-rot      y-rot       z-rot       x-rot vel   y-rot vel   z-rot vel   x-rot acc   y-rot acc   z-rot acc
    22626 -7.93482E-07-4.74496E-05-7.98350E-05-1.08260E-07-4.67280E-05-7.99419E-05-7.11970E-06 1.10195E-04 1.62734E-04



 n o d a l   p r i n t   o u t   f o r   t i m e  s t e p    8201                              ( at time 4.0995897E+00 )

 nodal point  x-disp     y-disp      z-disp      x-vel       y-vel       z-vel      x-accl      y-accl      z-accl      x-coor      y-coor      z-coor
    22626 -1.78160E-02-3.22935E-02-1.28541E+01-8.59827E-03 6.30402E-04-3.16064E+00 1.79265E-02-2.50980E-02 5.02636E-03 4.79464E+01-2.20621E+01-5.51562E+00



 n o d a l   p r i n t   o u t   f o r   t i m e  s t e p    8201                              ( at time 4.0995897E+00 )

 nodal point  x-rot      y-rot       z-rot       x-rot vel   y-rot vel   z-rot vel   x-rot acc   y-rot acc   z-rot acc
    22626 -7.98856E-07-5.15764E-05-8.68029E-05-1.70623E-07-3.22975E-05-5.65371E-05-6.23688E-07 1.44319E-04 2.34072E-04



 n o d a l   p r i n t   o u t   f o r   t i m e  s t e p    8401                              ( at time 4.1995797E+00 )

 nodal point  x-disp     y-disp      z-disp      x-vel       y-vel       z-vel      x-accl      y-accl      z-accl      x-coor      y-coor      z-coor
    22626 -1.85971E-02-3.23556E-02-1.31701E+01-6.96352E-03-1.79464E-03-3.16004E+00 1.63492E-02-2.42528E-02 5.94914E-03 4.79456E+01-2.20621E+01-5.83162E+00



 n o d a l   p r i n t   o u t   f o r   t i m e  s t e p    8401                              ( at time 4.1995797E+00 )

 nodal point  x-rot      y-rot       z-rot       x-rot vel   y-rot vel   z-rot vel   x-rot acc   y-rot acc   z-rot acc
    22626 -7.79283E-07-5.39568E-05-9.07569E-05-2.41260E-07-1.39456E-05-2.26818E-05-7.06439E-07 1.83538E-04 3.38587E-04



 n o d a l   p r i n t   o u t   f o r   t i m e  s t e p    8601                              ( at time 4.2995697E+00 )

 nodal point  x-disp     y-disp      z-disp      x-vel       y-vel       z-vel      x-accl      y-accl      z-accl      x-coor      y-coor      z-coor
    22626 -1.92305E-02-3.26544E-02-1.34861E+01-5.55873E-03-3.87886E-03-3.15987E+00 1.40494E-02-2.08443E-02 1.69771E-03 4.79450E+01-2.20624E+01-6.14758E+00



 n o d a l   p r i n t   o u t   f o r   t i m e  s t e p    8601                              ( at time 4.2995697E+00 )

 nodal point  x-rot      y-rot       z-rot       x-rot vel   y-rot vel   z-rot vel   x-rot acc   y-rot acc   z-rot acc
    22626 -7.98088E-07-5.43940E-05-9.16101E-05-3.42008E-07 2.78911E-06 4.59128E-06-1.00758E-06 1.67364E-04 2.72758E-04



 n o d a l   p r i n t   o u t   f o r   t i m e  s t e p    8801                              ( at time 4.3995597E+00 )

 nodal point  x-disp     y-disp      z-disp      x-vel       y-vel       z-vel      x-accl      y-accl      z-accl      x-coor      y-coor      z-coor
    22626 -1.96966E-02-3.30834E-02-1.38021E+01-3.80798E-03-4.73622E-03-3.16048E+00 1.75092E-02-8.57448E-03-6.05644E-03 4.79445E+01-2.20629E+01-6.46356E+00



 n o d a l   p r i n t   o u t   f o r   t i m e  s t e p    8801                              ( at time 4.3995597E+00 )

 nodal point  x-rot      y-rot       z-rot       x-rot vel   y-rot vel   z-rot vel   x-rot acc   y-rot acc   z-rot acc
    22626 -7.72328E-07-5.31148E-05-8.92872E-05 7.53116E-07 2.21990E-05 4.00291E-05 1.09523E-05 1.94118E-04 3.54414E-04



 n o d a l   p r i n t   o u t   f o r   t i m e  s t e p    9001                              ( at time 4.4995497E+00 )

 nodal point  x-disp     y-disp      z-disp      x-vel       y-vel       z-vel      x-accl      y-accl      z-accl      x-coor      y-coor      z-coor
    22626 -1.99940E-02-3.36529E-02-1.41181E+01-2.05877E-03-6.99164E-03-3.16010E+00 1.74938E-02-2.25563E-02 3.83652E-03 4.79442E+01-2.20634E+01-6.77956E+00



 n o d a l   p r i n t   o u t   f o r   t i m e  s t e p    9001                              ( at time 4.4995497E+00 )

 nodal point  x-rot      y-rot       z-rot       x-rot vel   y-rot vel   z-rot vel   x-rot acc   y-rot acc   z-rot acc
    22626 -6.33469E-07-4.96533E-05-8.31801E-05 3.51111E-06 4.39059E-05 7.65421E-05 2.75826E-05 2.17090E-04 3.65166E-04



 n o d a l   p r i n t   o u t   f o r   t i m e  s t e p    9201                              ( at time 4.5995397E+00 )

 nodal point  x-disp     y-disp      z-disp      x-vel       y-vel       z-vel      x-accl      y-accl      z-accl      x-coor      y-coor      z-coor
    22626 -2.01051E-02-3.45069E-02-1.44340E+01-1.23563E-04-9.90032E-03-3.15951E+00 1.93541E-02-2.90897E-02 5.90146E-03 4.79441E+01-2.20643E+01-7.09551E+00



 n o d a l   p r i n t   o u t   f o r   t i m e  s t e p    9201                              ( at time 4.5995397E+00 )

 nodal point  x-rot      y-rot       z-rot       x-rot vel   y-rot vel   z-rot vel   x-rot acc   y-rot acc   z-rot acc
    22626 -3.24853E-07-4.44315E-05-7.40691E-05 4.23359E-06 6.00870E-05 1.03043E-04 7.22558E-06 1.61828E-04 2.65034E-04



 n o d a l   p r i n t   o u t   f o r   t i m e  s t e p    9401                              ( at time 4.6995297E+00 )

 nodal point  x-disp     y-disp      z-disp      x-vel       y-vel       z-vel      x-accl      y-accl      z-accl      x-coor      y-coor      z-coor
    22626 -2.00006E-02-3.55775E-02-1.47499E+01 2.12155E-03-1.15022E-02-3.15936E+00 2.24534E-02-1.60202E-02 1.49504E-03 4.79442E+01-2.20654E+01-7.41142E+00



 n o d a l   p r i n t   o u t   f o r   t i m e  s t e p    9401                              ( at time 4.6995297E+00 )

 nodal point  x-rot      y-rot       z-rot       x-rot vel   y-rot vel   z-rot vel   x-rot acc   y-rot acc   z-rot acc
    22626  4.95285E-08-3.72776E-05-6.16332E-05 2.76910E-06 8.46562E-05 1.45540E-04-1.46464E-05 2.45716E-04 4.25011E-04



 n o d a l   p r i n t   o u t   f o r   t i m e  s t e p    9601                              ( at time 4.7995197E+00 )

 nodal point  x-disp     y-disp      z-disp      x-vel       y-vel       z-vel      x-accl      y-accl      z-accl      x-coor      y-coor      z-coor
    22626 -1.96891E-02-3.67993E-02-1.50658E+01 3.99532E-03-1.27493E-02-3.15961E+00 1.87396E-02-1.24730E-02-2.56564E-03 4.79445E+01-2.20666E+01-7.72733E+00



 n o d a l   p r i n t   o u t   f o r   t i m e  s t e p    9601                              ( at time 4.7995197E+00 )

 nodal point  x-rot      y-rot       z-rot       x-rot vel   y-rot vel   z-rot vel   x-rot acc   y-rot acc   z-rot acc
    22626  3.52858E-07-2.75691E-05-4.49864E-05-3.00463E-07 1.09198E-04 1.87032E-04-3.06987E-05 2.45444E-04 4.14963E-04



 n o d a l   p r i n t   o u t   f o r   t i m e  s t e p    9801                              ( at time 4.8995097E+00 )

 nodal point  x-disp     y-disp      z-disp      x-vel       y-vel       z-vel      x-accl      y-accl      z-accl      x-coor      y-coor      z-coor
    22626 -1.91997E-02-3.81256E-02-1.53818E+01 5.77899E-03-1.38688E-02-3.15987E+00 1.78385E-02-1.11955E-02-2.55134E-03 4.79450E+01-2.20679E+01-8.04328E+00



 n o d a l   p r i n t   o u t   f o r   t i m e  s t e p    9801                              ( at time 4.8995097E+00 )

 nodal point  x-rot      y-rot       z-rot       x-rot vel   y-rot vel   z-rot vel   x-rot acc   y-rot acc   z-rot acc
    22626  3.79752E-07-1.57295E-05-2.46324E-05-8.98272E-07 1.26245E-04 2.16571E-04-5.97869E-06 1.70490E-04 2.95425E-04



 n o d a l   p r i n t   o u t   f o r   t i m e  s t e p   10001                              ( at time 4.9994997E+00 )

 nodal point  x-disp     y-disp      z-disp      x-vel       y-vel       z-vel      x-accl      y-accl      z-accl      x-coor      y-coor      z-coor
    22626 -1.85065E-02-3.96042E-02-1.56977E+01 8.02501E-03-1.57806E-02-3.15969E+00 2.24623E-02-1.91199E-02 1.76685E-03 4.79457E+01-2.20694E+01-8.35923E+00



 n o d a l   p r i n t   o u t   f o r   t i m e  s t e p   10001                              ( at time 4.9994997E+00 )

 nodal point  x-rot      y-rot       z-rot       x-rot vel   y-rot vel   z-rot vel   x-rot acc   y-rot acc   z-rot acc
    22626  2.69597E-07-2.17745E-06-1.39121E-06-6.31801E-07 1.44023E-04 2.47666E-04 2.66497E-06 1.77789E-04 3.10974E-04



 n o d a l   p r i n t   o u t   f o r   t i m e  s t e p   10202                              ( at time 5.0999896E+00 )

 nodal point  x-disp     y-disp      z-disp      x-vel       y-vel       z-vel      x-accl      y-accl      z-accl      x-coor      y-coor      z-coor
    22626 -1.75956E-02-4.12618E-02-1.60152E+01 1.00344E-02-1.70327E-02-3.15982E+00 1.99960E-02-1.24602E-02-1.26695E-03 4.79466E+01-2.20711E+01-8.67674E+00



 n o d a l   p r i n t   o u t   f o r   t i m e  s t e p   10202                              ( at time 5.0999896E+00 )

 nodal point  x-rot      y-rot       z-rot       x-rot vel   y-rot vel   z-rot vel   x-rot acc   y-rot acc   z-rot acc
    22626  1.31391E-07 1.35243E-05 2.53705E-05-2.77412E-06 1.65302E-04 2.82810E-04-2.13188E-05 2.11761E-04 3.49734E-04



 n o d a l   p r i n t   o u t   f o r   t i m e  s t e p   10402                              ( at time 5.1999796E+00 )

 nodal point  x-disp     y-disp      z-disp      x-vel       y-vel       z-vel      x-accl      y-accl      z-accl      x-coor      y-coor      z-coor
    22626 -1.65133E-02-4.29697E-02-1.63312E+01 1.15360E-02-1.68096E-02-3.16088E+00 1.50177E-02 2.23127E-03-1.06655E-02 4.79477E+01-2.20728E+01-8.99274E+00



 n o d a l   p r i n t   o u t   f o r   t i m e  s t e p   10402                              ( at time 5.1999796E+00 )

 nodal point  x-rot      y-rot       z-rot       x-rot vel   y-rot vel   z-rot vel   x-rot acc   y-rot acc   z-rot acc
    22626 -5.77934E-08 3.10096E-05 5.51361E-05-2.48260E-06 1.80822E-04 3.10654E-04 2.91541E-06 1.55207E-04 2.78466E-04



 n o d a l   p r i n t   o u t   f o r   t i m e  s t e p   10602                              ( at time 5.2999696E+00 )

 nodal point  x-disp     y-disp      z-disp      x-vel       y-vel       z-vel      x-accl      y-accl      z-accl      x-coor      y-coor      z-coor
    22626 -1.52771E-02-4.46348E-02-1.66473E+01 1.29041E-02-1.64229E-02-3.16107E+00 1.36822E-02 3.86748E-03-1.84078E-03 4.79489E+01-2.20744E+01-9.30883E+00



 n o d a l   p r i n t   o u t   f o r   t i m e  s t e p   10602                              ( at time 5.2999696E+00 )

 nodal point  x-rot      y-rot       z-rot       x-rot vel   y-rot vel   z-rot vel   x-rot acc   y-rot acc   z-rot acc
    22626 -6.51159E-07 5.02472E-05 8.77595E-05-7.76173E-06 2.04684E-04 3.31590E-04-5.27965E-05 2.38647E-04 2.09385E-04



 n o d a l   p r i n t   o u t   f o r   t i m e  s t e p   10802                              ( at time 5.3999596E+00 )

 nodal point  x-disp     y-disp      z-disp      x-vel       y-vel       z-vel      x-accl      y-accl      z-accl      x-coor      y-coor      z-coor
    22626 -1.39202E-02-4.62210E-02-1.69633E+01 1.43586E-02-1.52065E-02-3.15905E+00 1.45466E-02 1.21653E-02 2.02128E-02 4.79503E+01-2.20760E+01-9.62483E+00



 n o d a l   p r i n t   o u t   f o r   t i m e  s t e p   10802                              ( at time 5.3999596E+00 )

 nodal point  x-rot      y-rot       z-rot       x-rot vel   y-rot vel   z-rot vel   x-rot acc   y-rot acc   z-rot acc
    22626 -6.64594E-07 7.27924E-05 1.21949E-04 7.73751E-06 2.53023E-04 3.40566E-04 1.55008E-04 4.83442E-04 8.97665E-05



 n o d a l   p r i n t   o u t   f o r   t i m e  s t e p   11002                              ( at time 5.4999496E+00 )

 nodal point  x-disp     y-disp      z-disp      x-vel       y-vel       z-vel      x-accl      y-accl      z-accl      x-coor      y-coor      z-coor
    22626 -1.24025E-02-4.76668E-02-1.72788E+01 1.58676E-02-1.28623E-02-3.15098E+00 1.50908E-02 2.34442E-02 8.06652E-02 4.79518E+01-2.20775E+01-9.94033E+00



 n o d a l   p r i n t   o u t   f o r   t i m e  s t e p   11002                              ( at time 5.4999496E+00 )

 nodal point  x-rot      y-rot       z-rot       x-rot vel   y-rot vel   z-rot vel   x-rot acc   y-rot acc   z-rot acc
    22626  5.30882E-07 1.03316E-04 1.56873E-04 3.42094E-05 3.57734E-04 3.38842E-04 2.64746E-04 1.04721E-03-1.72440E-05



 n o d a l   p r i n t   o u t   f o r   t i m e  s t e p   11202                              ( at time 5.5999396E+00 )

 nodal point  x-disp     y-disp      z-disp      x-vel       y-vel       z-vel      x-accl      y-accl      z-accl      x-coor      y-coor      z-coor
    22626 -1.07559E-02-4.87285E-02-1.75933E+01 1.66996E-02-8.37901E-03-3.13837E+00 8.32144E-03 4.48375E-02 1.26172E-01 4.79534E+01-2.20785E+01-1.02548E+01



 n o d a l   p r i n t   o u t   f o r   t i m e  s t e p   11202                              ( at time 5.5999396E+00 )

 nodal point  x-rot      y-rot       z-rot       x-rot vel   y-rot vel   z-rot vel   x-rot acc   y-rot acc   z-rot acc
    22626  7.88549E-06 1.46519E-04 1.90356E-04 1.06649E-04 5.17922E-04 3.23529E-04 7.24470E-04 1.60205E-03-1.53140E-04



 n o d a l   p r i n t   o u t   f o r   t i m e  s t e p   11402                              ( at time 5.6999296E+00 )

 nodal point  x-disp     y-disp      z-disp      x-vel       y-vel       z-vel      x-accl      y-accl      z-accl      x-coor      y-coor      z-coor
    22626 -9.04993E-03-4.93028E-02-1.79063E+01 1.77615E-02-3.73746E-03-3.12072E+00 1.06197E-02 4.64200E-02 1.76483E-01 4.79551E+01-2.20791E+01-1.05678E+01



 n o d a l   p r i n t   o u t   f o r   t i m e  s t e p   11402                              ( at time 5.6999296E+00 )

 nodal point  x-rot      y-rot       z-rot       x-rot vel   y-rot vel   z-rot vel   x-rot acc   y-rot acc   z-rot acc
    22626  2.24972E-05 2.08199E-04 2.21428E-04 1.78407E-04 7.16433E-04 2.94979E-04 7.17646E-04 1.98530E-03-2.85535E-04



 n o d a l   p r i n t   o u t   f o r   t i m e  s t e p   11602                              ( at time 5.7999195E+00 )

 nodal point  x-disp     y-disp      z-disp      x-vel       y-vel       z-vel      x-accl      y-accl      z-accl      x-coor      y-coor      z-coor
    22626 -7.23551E-03-4.93439E-02-1.82172E+01 1.87806E-02 2.04836E-03-3.09862E+00 1.01923E-02 5.78641E-02 2.21053E-01 4.79569E+01-2.20791E+01-1.08787E+01



 n o d a l   p r i n t   o u t   f o r   t i m e  s t e p   11602                              ( at time 5.7999195E+00 )

 nodal point  x-rot      y-rot       z-rot       x-rot vel   y-rot vel   z-rot vel   x-rot acc   y-rot acc   z-rot acc
    22626  4.69373E-05 2.90578E-04 2.48084E-04 3.04404E-04 9.40489E-04 2.41234E-04 1.26009E-03 2.24079E-03-5.37502E-04



 n o d a l   p r i n t   o u t   f o r   t i m e  s t e p   11802                              ( at time 5.8999095E+00 )

 nodal point  x-disp     y-disp      z-disp      x-vel       y-vel       z-vel      x-accl      y-accl      z-accl      x-coor      y-coor      z-coor
    22626 -5.31141E-03-4.88590E-02-1.85258E+01 1.97164E-02 6.33582E-03-3.07357E+00 9.35897E-03 4.28789E-02 2.50448E-01 4.79589E+01-2.20786E+01-1.11873E+01



 n o d a l   p r i n t   o u t   f o r   t i m e  s t e p   11802                              ( at time 5.8999095E+00 )

 nodal point  x-rot      y-rot       z-rot       x-rot vel   y-rot vel   z-rot vel   x-rot acc   y-rot acc   z-rot acc
    22626  8.19926E-05 3.96928E-04 2.69586E-04 4.05155E-04 1.21179E-03 1.92351E-04 1.00761E-03 2.71324E-03-4.88880E-04



 n o d a l   p r i n t   o u t   f o r   t i m e  s t e p   12002                              ( at time 5.9998995E+00 )

 nodal point  x-disp     y-disp      z-disp      x-vel       y-vel       z-vel      x-accl      y-accl      z-accl      x-coor      y-coor      z-coor
    22626 -3.30299E-03-4.79080E-02-1.88316E+01 2.04146E-02 1.27378E-02-3.04517E+00 6.98224E-03 6.40260E-02 2.84021E-01 4.79609E+01-2.20777E+01-1.14931E+01



 n o d a l   p r i n t   o u t   f o r   t i m e  s t e p   12002                              ( at time 5.9998995E+00 )

 nodal point  x-rot      y-rot       z-rot       x-rot vel   y-rot vel   z-rot vel   x-rot acc   y-rot acc   z-rot acc
    22626  1.29476E-04 5.31918E-04 2.84626E-04 5.60892E-04 1.47997E-03 1.03963E-04 1.55753E-03 2.68208E-03-8.83967E-04



 n o d a l   p r i n t   o u t   f o r   t i m e  s t e p   12202                              ( at time 6.0998895E+00 )

 nodal point  x-disp     y-disp      z-disp      x-vel       y-vel       z-vel      x-accl      y-accl      z-accl      x-coor      y-coor      z-coor
    22626 -1.21485E-03-4.63332E-02-1.91345E+01 2.08233E-02 2.04797E-02-3.01217E+00 4.08754E-03 7.74271E-02 3.30067E-01 4.79630E+01-2.20761E+01-1.17960E+01



 n o d a l   p r i n t   o u t   f o r   t i m e  s t e p   12202                              ( at time 6.0998895E+00 )

 nodal point  x-rot      y-rot       z-rot       x-rot vel   y-rot vel   z-rot vel   x-rot acc   y-rot acc   z-rot acc
    22626  1.92707E-04 6.95355E-04 2.91947E-04 7.14011E-04 1.78059E-03 1.41633E-05 1.53135E-03 3.00650E-03-8.98085E-04



 n o d a l   p r i n t   o u t   f o r   t i m e  s t e p   12402                              ( at time 6.1998795E+00 )

 nodal point  x-disp     y-disp      z-disp      x-vel       y-vel       z-vel      x-accl      y-accl      z-accl      x-coor      y-coor      z-coor
    22626  9.80681E-04-4.42018E-02-1.94341E+01 2.19689E-02 2.41711E-02-2.97861E+00 1.14573E-02 3.69177E-02 3.35665E-01 4.79652E+01-2.20740E+01-1.20956E+01



 n o d a l   p r i n t   o u t   f o r   t i m e  s t e p   12402                              ( at time 6.1998795E+00 )

 nodal point  x-rot      y-rot       z-rot       x-rot vel   y-rot vel   z-rot vel   x-rot acc   y-rot acc   z-rot acc
    22626  2.69784E-04 8.91384E-04 2.91367E-04 8.41691E-04 2.11469E-03-5.08432E-05 1.27692E-03 3.34135E-03-6.50130E-04



 n o d a l   p r i n t   o u t   f o r   t i m e  s t e p   12602                              ( at time 6.2998695E+00 )

 nodal point  x-disp     y-disp      z-disp      x-vel       y-vel       z-vel      x-accl      y-accl      z-accl      x-coor      y-coor      z-coor
    22626  3.31318E-03-4.14914E-02-1.97302E+01 2.47262E-02 2.97574E-02-2.94440E+00 2.75762E-02 5.58683E-02 3.42151E-01 4.79675E+01-2.20713E+01-1.23917E+01



 n o d a l   p r i n t   o u t   f o r   t i m e  s t e p   12602                              ( at time 6.2998695E+00 )

 nodal point  x-rot      y-rot       z-rot       x-rot vel   y-rot vel   z-rot vel   x-rot acc   y-rot acc   z-rot acc
    22626  3.63242E-04 1.11867E-03 2.81485E-04 1.01188E-03 2.42313E-03-1.37735E-04 1.70202E-03 3.08470E-03-8.69010E-04



 n o d a l   p r i n t   o u t   f o r   t i m e  s t e p   12802                              ( at time 6.3998595E+00 )

 nodal point  x-disp     y-disp      z-disp      x-vel       y-vel       z-vel      x-accl      y-accl      z-accl      x-coor      y-coor      z-coor
    22626  5.86739E-03-3.82071E-02-2.00228E+01 2.68587E-02 3.65717E-02-2.90596E+00 2.13270E-02 6.81493E-02 3.84379E-01 4.79700E+01-2.20680E+01-1.26843E+01



 n o d a l   p r i n t   o u t   f o r   t i m e  s t e p   12802                              ( at time 6.3998595E+00 )

 nodal point  x-rot      y-rot       z-rot       x-rot vel   y-rot vel   z-rot vel   x-rot acc   y-rot acc   z-rot acc
    22626  4.72144E-04 1.37930E-03 2.60723E-04 1.17730E-03 2.79119E-03-2.58461E-04 1.65444E-03 3.68095E-03-1.20738E-03



 n o d a l   p r i n t   o u t   f o r   t i m e  s t e p   13002                              ( at time 6.4998495E+00 )

 nodal point  x-disp     y-disp      z-disp      x-vel       y-vel       z-vel      x-accl      y-accl      z-accl      x-coor      y-coor      z-coor
    22626  8.71418E-03-3.42881E-02-2.03116E+01 3.04635E-02 4.17420E-02-2.87015E+00 3.60511E-02 5.17089E-02 3.58141E-01 4.79729E+01-2.20641E+01-1.29731E+01



 n o d a l   p r i n t   o u t   f o r   t i m e  s t e p   13002                              ( at time 6.4998495E+00 )

 nodal point  x-rot      y-rot       z-rot       x-rot vel   y-rot vel   z-rot vel   x-rot acc   y-rot acc   z-rot acc
    22626  5.97665E-04 1.67372E-03 2.30706E-04 1.33815E-03 3.11332E-03-3.47184E-04 1.60861E-03 3.22163E-03-8.87314E-04



 n o d a l   p r i n t   o u t   f o r   t i m e  s t e p   13202                              ( at time 6.5998395E+00 )

 nodal point  x-disp     y-disp      z-disp      x-vel       y-vel       z-vel      x-accl      y-accl      z-accl      x-coor      y-coor      z-coor
    22626  1.19154E-02-2.97496E-02-2.05965E+01 3.45931E-02 4.85706E-02-2.82961E+00 4.13008E-02 6.82924E-02 4.05441E-01 4.79761E+01-2.20595E+01-1.32580E+01



 n o d a l   p r i n t   o u t   f o r   t i m e  s t e p   13202                              ( at time 6.5998395E+00 )

 nodal point  x-rot      y-rot       z-rot       x-rot vel   y-rot vel   z-rot vel   x-rot acc   y-rot acc   z-rot acc
    22626  7.38873E-04 2.00166E-03 1.90075E-04 1.49289E-03 3.43875E-03-4.61870E-04 1.54761E-03 3.25467E-03-1.14697E-03



 n o d a l   p r i n t   o u t   f o r   t i m e  s t e p   13402                              ( at time 6.6998295E+00 )

 nodal point  x-disp     y-disp      z-disp      x-vel       y-vel       z-vel      x-accl      y-accl      z-accl      x-coor      y-coor      z-coor
    22626  1.55602E-02-2.44825E-02-2.08772E+01 3.91175E-02 5.65181E-02-2.78604E+00 4.52483E-02 7.94830E-02 4.35771E-01 4.79797E+01-2.20543E+01-1.35387E+01



 n o d a l   p r i n t   o u t   f o r   t i m e  s t e p   13402                              ( at time 6.6998295E+00 )

 nodal point  x-rot      y-rot       z-rot       x-rot vel   y-rot vel   z-rot vel   x-rot acc   y-rot acc   z-rot acc
    22626  8.98006E-04 2.36270E-03 1.37804E-04 1.69161E-03 3.78197E-03-5.83120E-04 1.98737E-03 3.43251E-03-1.21263E-03



 n o d a l   p r i n t   o u t   f o r   t i m e  s t e p   13602                              ( at time 6.7998195E+00 )

 nodal point  x-disp     y-disp      z-disp      x-vel       y-vel       z-vel      x-accl      y-accl      z-accl      x-coor      y-coor      z-coor
    22626  1.96953E-02-1.85692E-02-2.11537E+01 4.48519E-02 6.14272E-02-2.74190E+00 5.73499E-02 4.90956E-02 4.41415E-01 4.79839E+01-2.20484E+01-1.38152E+01



 n o d a l   p r i n t   o u t   f o r   t i m e  s t e p   13602                              ( at time 6.7998195E+00 )

 nodal point  x-rot      y-rot       z-rot       x-rot vel   y-rot vel   z-rot vel   x-rot acc   y-rot acc   z-rot acc
    22626  1.07676E-03 2.75627E-03 7.40058E-05 1.85611E-03 4.12431E-03-6.82548E-04 1.64519E-03 3.42372E-03-9.94377E-04



 n o d a l   p r i n t   o u t   f o r   t i m e  s t e p   13802                              ( at time 6.8998095E+00 )

 nodal point  x-disp     y-disp      z-disp      x-vel       y-vel       z-vel      x-accl      y-accl      z-accl      x-coor      y-coor      z-coor
    22626  2.44117E-02-1.20149E-02-2.14255E+01 5.04341E-02 6.80041E-02-2.69654E+00 5.58277E-02 6.57763E-02 4.53694E-01 4.79886E+01-2.20418E+01-1.40870E+01



 n o d a l   p r i n t   o u t   f o r   t i m e  s t e p   13802                              ( at time 6.8998095E+00 )

 nodal point  x-rot      y-rot       z-rot       x-rot vel   y-rot vel   z-rot vel   x-rot acc   y-rot acc   z-rot acc
    22626  1.27433E-03 3.18420E-03-1.98291E-06 2.07811E-03 4.42819E-03-8.08559E-04 2.22017E-03 3.03917E-03-1.26025E-03



 n o d a l   p r i n t   o u t   f o r   t i m e  s t e p   14002                              ( at time 6.9997995E+00 )

 nodal point  x-disp     y-disp      z-disp      x-vel       y-vel       z-vel      x-accl      y-accl      z-accl      x-coor      y-coor      z-coor
    22626  2.97803E-02-4.73240E-03-2.16927E+01 5.71070E-02 7.63443E-02-2.64765E+00 6.67360E-02 8.34102E-02 4.88951E-01 4.79940E+01-2.20345E+01-1.43542E+01



 n o d a l   p r i n t   o u t   f o r   t i m e  s t e p   14002                              ( at time 6.9997995E+00 )

 nodal point  x-rot      y-rot       z-rot       x-rot vel   y-rot vel   z-rot vel   x-rot acc   y-rot acc   z-rot acc
    22626  1.49472E-03 3.64223E-03-8.99604E-05 2.31817E-03 4.74124E-03-9.46875E-04 2.40090E-03 3.13076E-03-1.38329E-03



 n o d a l   p r i n t   o u t   f o r   t i m e  s t e p   14202                              ( at time 7.0997895E+00 )

 nodal point  x-disp     y-disp      z-disp      x-vel       y-vel       z-vel      x-accl      y-accl      z-accl      x-coor      y-coor      z-coor
    22626  3.58740E-02 3.17035E-03-2.19550E+01 6.47667E-02 8.18813E-02-2.59723E+00 7.66036E-02 5.53756E-02 5.04211E-01 4.80001E+01-2.20266E+01-1.46165E+01



 n o d a l   p r i n t   o u t   f o r   t i m e  s t e p   14202                              ( at time 7.0997895E+00 )

 nodal point  x-rot      y-rot       z-rot       x-rot vel   y-rot vel   z-rot vel   x-rot acc   y-rot acc   z-rot acc
    22626  1.73665E-03 4.13151E-03-1.89655E-04 2.52889E-03 5.05124E-03-1.05653E-03 2.10735E-03 3.10030E-03-1.09664E-03



 n o d a l   p r i n t   o u t   f o r   t i m e  s t e p   14402                              ( at time 7.1997794E+00 )

 nodal point  x-disp     y-disp      z-disp      x-vel       y-vel       z-vel      x-accl      y-accl      z-accl      x-coor      y-coor      z-coor
    22626  4.27309E-02 1.16954E-02-2.22120E+01 7.27674E-02 8.84376E-02-2.54496E+00 8.00157E-02 6.55691E-02 5.22767E-01 4.80069E+01-2.20181E+01-1.48735E+01



 n o d a l   p r i n t   o u t   f o r   t i m e  s t e p   14402                              ( at time 7.1997794E+00 )

 nodal point  x-rot      y-rot       z-rot       x-rot vel   y-rot vel   z-rot vel   x-rot acc   y-rot acc   z-rot acc
    22626  2.00130E-03 4.65138E-03-3.01294E-04 2.77930E-03 5.33880E-03-1.19122E-03 2.50443E-03 2.87595E-03-1.34704E-03



 n o d a l   p r i n t   o u t   f o r   t i m e  s t e p   14602                              ( at time 7.2997694E+00 )

 nodal point  x-disp     y-disp      z-disp      x-vel       y-vel       z-vel      x-accl      y-accl      z-accl      x-coor      y-coor      z-coor
    22626  5.03918E-02 2.09203E-02-2.24635E+01 8.14688E-02 9.60771E-02-2.48678E+00 8.70229E-02 7.64033E-02 5.81812E-01 4.80146E+01-2.20089E+01-1.51250E+01



 n o d a l   p r i n t   o u t   f o r   t i m e  s t e p   14602                              ( at time 7.2997694E+00 )

 nodal point  x-rot      y-rot       z-rot       x-rot vel   y-rot vel   z-rot vel   x-rot acc   y-rot acc   z-rot acc
    22626  2.29104E-03 5.20296E-03-4.26904E-04 3.02647E-03 5.67731E-03-1.32164E-03 2.47193E-03 3.38544E-03-1.30434E-03



 n o d a l   p r i n t   o u t   f o r   t i m e  s t e p   14802                              ( at time 7.3997594E+00 )

 nodal point  x-disp     y-disp      z-disp      x-vel       y-vel       z-vel      x-accl      y-accl      z-accl      x-coor      y-coor      z-coor
    22626  5.89654E-02 3.07398E-02-2.27094E+01 9.07368E-02 1.00650E-01-2.42951E+00 9.26891E-02 4.57361E-02 5.72832E-01 4.80231E+01-2.19991E+01-1.53709E+01



 n o d a l   p r i n t   o u t   f o r   t i m e  s t e p   14802                              ( at time 7.3997594E+00 )

 nodal point  x-rot      y-rot       z-rot       x-rot vel   y-rot vel   z-rot vel   x-rot acc   y-rot acc   z-rot acc
    22626  2.60541E-03 5.78523E-03-5.63821E-04 3.25972E-03 5.96287E-03-1.41335E-03 2.33266E-03 2.85591E-03-9.17150E-04



 n o d a l   p r i n t   o u t   f o r   t i m e  s t e p   15002                              ( at time 7.4997494E+00 )

 nodal point  x-disp     y-disp      z-disp      x-vel       y-vel       z-vel      x-accl      y-accl      z-accl      x-coor      y-coor      z-coor
    22626  6.84207E-02 4.11002E-02-2.29494E+01 9.85956E-02 1.06764E-01-2.36984E+00 7.85955E-02 6.11480E-02 5.96752E-01 4.80326E+01-2.19887E+01-1.56109E+01



 n o d a l   p r i n t   o u t   f o r   t i m e  s t e p   15002                              ( at time 7.4997494E+00 )

 nodal point  x-rot      y-rot       z-rot       x-rot vel   y-rot vel   z-rot vel   x-rot acc   y-rot acc   z-rot acc
    22626  2.94451E-03 6.39711E-03-7.11363E-04 3.52922E-03 6.26061E-03-1.52920E-03 2.69529E-03 2.97767E-03-1.15870E-03



 n o d a l   p r i n t   o u t   f o r   t i m e  s t e p   15202                              ( at time 7.5997394E+00 )

 nodal point  x-disp     y-disp      z-disp      x-vel       y-vel       z-vel      x-accl      y-accl      z-accl      x-coor      y-coor      z-coor
    22626  7.87296E-02 5.19972E-02-2.31833E+01 1.07913E-01 1.11399E-01-2.30892E+00 9.31884E-02 4.63464E-02 6.09204E-01 4.80429E+01-2.19778E+01-1.58448E+01



 n o d a l   p r i n t   o u t   f o r   t i m e  s t e p   15202                              ( at time 7.5997394E+00 )

 nodal point  x-rot      y-rot       z-rot       x-rot vel   y-rot vel   z-rot vel   x-rot acc   y-rot acc   z-rot acc
    22626  3.31250E-03 7.03759E-03-8.71107E-04 3.82949E-03 6.55389E-03-1.64757E-03 3.00306E-03 2.93309E-03-1.18377E-03



 n o d a l   p r i n t   o u t   f o r   t i m e  s t e p   15402                              ( at time 7.6997294E+00 )

 nodal point  x-disp     y-disp      z-disp      x-vel       y-vel       z-vel      x-accl      y-accl      z-accl      x-coor      y-coor      z-coor
    22626  9.00030E-02 6.33254E-02-2.34109E+01 1.17418E-01 1.14798E-01-2.24521E+00 9.50583E-02 3.39978E-02 6.37145E-01 4.80542E+01-2.19665E+01-1.60724E+01



 n o d a l   p r i n t   o u t   f o r   t i m e  s t e p   15402                              ( at time 7.6997294E+00 )

 nodal point  x-rot      y-rot       z-rot       x-rot vel   y-rot vel   z-rot vel   x-rot acc   y-rot acc   z-rot acc
    22626  3.70864E-03 7.70591E-03-1.04120E-03 4.11090E-03 6.80526E-03-1.74113E-03 2.81435E-03 2.51394E-03-9.35705E-04



 n o d a l   p r i n t   o u t   f o r   t i m e  s t e p   15602                              ( at time 7.7997194E+00 )

 nodal point  x-disp     y-disp      z-disp      x-vel       y-vel       z-vel      x-accl      y-accl      z-accl      x-coor      y-coor      z-coor
    22626  1.02209E-01 7.49935E-02-2.36322E+01 1.25651E-01 1.18424E-01-2.18120E+00 8.23325E-02 3.62580E-02 6.40211E-01 4.80664E+01-2.19548E+01-1.62937E+01



 n o d a l   p r i n t   o u t   f o r   t i m e  s t e p   15602                              ( at time 7.7997194E+00 )

 nodal point  x-rot      y-rot       z-rot       x-rot vel   y-rot vel   z-rot vel   x-rot acc   y-rot acc   z-rot acc
    22626  4.13432E-03 8.40059E-03-1.22073E-03 4.41928E-03 7.08658E-03-1.85345E-03 3.08413E-03 2.81352E-03-1.12327E-03



 n o d a l   p r i n t   o u t   f o r   t i m e  s t e p   15802                              ( at time 7.8997094E+00 )

 nodal point  x-disp     y-disp      z-disp      x-vel       y-vel       z-vel      x-accl      y-accl      z-accl      x-coor      y-coor      z-coor
    22626  1.15283E-01 8.70282E-02-2.38471E+01 1.35210E-01 1.22102E-01-2.11541E+00 9.56031E-02 3.67894E-02 6.57925E-01 4.80795E+01-2.19428E+01-1.65086E+01



 n o d a l   p r i n t   o u t   f o r   t i m e  s t e p   15802                              ( at time 7.8997094E+00 )

 nodal point  x-rot      y-rot       z-rot       x-rot vel   y-rot vel   z-rot vel   x-rot acc   y-rot acc   z-rot acc
    22626  4.59124E-03 9.12016E-03-1.41055E-03 4.72152E-03 7.32254E-03-1.95319E-03 3.02273E-03 2.35980E-03-9.97518E-04



 n o d a l   p r i n t   o u t   f o r   t i m e  s t e p   16002                              ( at time 7.9996994E+00 )

 nodal point  x-disp     y-disp      z-disp      x-vel       y-vel       z-vel      x-accl      y-accl      z-accl      x-coor      y-coor      z-coor
    22626  1.29274E-01 9.93673E-02-2.40552E+01 1.43898E-01 1.23523E-01-2.04966E+00 8.68829E-02 1.42110E-02 6.57631E-01 4.80935E+01-2.19304E+01-1.67167E+01



 n o d a l   p r i n t   o u t   f o r   t i m e  s t e p   16002                              ( at time 7.9996994E+00 )

 nodal point  x-rot      y-rot       z-rot       x-rot vel   y-rot vel   z-rot vel   x-rot acc   y-rot acc   z-rot acc
    22626  5.08074E-03 9.86453E-03-1.60964E-03 5.04008E-03 7.55789E-03-2.01618E-03 3.18589E-03 2.35373E-03-6.30003E-04



 n o d a l   p r i n t   o u t   f o r   t i m e  s t e p   16202                              ( at time 8.0996894E+00 )

 nodal point  x-disp     y-disp      z-disp      x-vel       y-vel       z-vel      x-accl      y-accl      z-accl      x-coor      y-coor      z-coor
    22626  1.44120E-01 1.11954E-01-2.42567E+01 1.53278E-01 1.27580E-01-1.98082E+00 9.38169E-02 4.05764E-02 6.88420E-01 4.81083E+01-2.19178E+01-1.69182E+01



 n o d a l   p r i n t   o u t   f o r   t i m e  s t e p   16202                              ( at time 8.0996894E+00 )

 nodal point  x-rot      y-rot       z-rot       x-rot vel   y-rot vel   z-rot vel   x-rot acc   y-rot acc   z-rot acc
    22626  5.60129E-03 1.06315E-02-1.81635E-03 5.37111E-03 7.78009E-03-2.11656E-03 3.31063E-03 2.22224E-03-1.00390E-03



 n o d a l   p r i n t   o u t   f o r   t i m e  s t e p   16402                              ( at time 8.1996794E+00 )

 nodal point  x-disp     y-disp      z-disp      x-vel       y-vel       z-vel      x-accl      y-accl      z-accl      x-coor      y-coor      z-coor
    22626  1.59853E-01 1.24743E-01-2.44513E+01 1.62146E-01 1.28171E-01-1.91225E+00 8.86874E-02 5.90429E-03 6.85766E-01 4.81240E+01-2.19050E+01-1.71128E+01



 n o d a l   p r i n t   o u t   f o r   t i m e  s t e p   16402                              ( at time 8.1996794E+00 )

 nodal point  x-rot      y-rot       z-rot       x-rot vel   y-rot vel   z-rot vel   x-rot acc   y-rot acc   z-rot acc
    22626  6.15638E-03 1.14191E-02-2.03173E-03 5.70523E-03 7.96735E-03-2.19128E-03 3.34154E-03 1.87279E-03-7.47220E-04



 n o d a l   p r i n t   o u t   f o r   t i m e  s t e p   16602                              ( at time 8.2996694E+00 )

 nodal point  x-disp     y-disp      z-disp      x-vel       y-vel       z-vel      x-accl      y-accl      z-accl      x-coor      y-coor      z-coor
    22626  1.76506E-01 1.37676E-01-2.46390E+01 1.71101E-01 1.29824E-01-1.84224E+00 8.95527E-02 1.65385E-02 7.00183E-01 4.81407E+01-2.18921E+01-1.73005E+01



 n o d a l   p r i n t   o u t   f o r   t i m e  s t e p   16602                              ( at time 8.2996694E+00 )

 nodal point  x-rot      y-rot       z-rot       x-rot vel   y-rot vel   z-rot vel   x-rot acc   y-rot acc   z-rot acc
    22626  6.74431E-03 1.22261E-02-2.25494E-03 6.05094E-03 8.16049E-03-2.27537E-03 3.45739E-03 1.93162E-03-8.40995E-04



 n o d a l   p r i n t   o u t   f o r   t i m e  s t e p   16802                              ( at time 8.3996594E+00 )

 nodal point  x-disp     y-disp      z-disp      x-vel       y-vel       z-vel      x-accl      y-accl      z-accl      x-coor      y-coor      z-coor
    22626  1.93982E-01 1.50649E-01-2.48198E+01 1.79115E-01 1.30208E-01-1.77261E+00 8.01567E-02 3.84072E-03 6.96380E-01 4.81582E+01-2.18791E+01-1.74813E+01



 n o d a l   p r i n t   o u t   f o r   t i m e  s t e p   16802                              ( at time 8.3996594E+00 )

 nodal point  x-rot      y-rot       z-rot       x-rot vel   y-rot vel   z-rot vel   x-rot acc   y-rot acc   z-rot acc
    22626  7.36777E-03 1.30503E-02-2.48473E-03 6.40271E-03 8.31843E-03-2.34221E-03 3.51815E-03 1.57957E-03-6.68475E-04



 n o d a l   p r i n t   o u t   f o r   t i m e  s t e p   17002                              ( at time 8.4996494E+00 )

 nodal point  x-disp     y-disp      z-disp      x-vel       y-vel       z-vel      x-accl      y-accl      z-accl      x-coor      y-coor      z-coor
    22626  2.12388E-01 1.63661E-01-2.49934E+01 1.88150E-01 1.29416E-01-1.70075E+00 9.03583E-02-7.92524E-03 7.18708E-01 4.81766E+01-2.18661E+01-1.76549E+01



 n o d a l   p r i n t   o u t   f o r   t i m e  s t e p   17002                              ( at time 8.4996494E+00 )

 nodal point  x-rot      y-rot       z-rot       x-rot vel   y-rot vel   z-rot vel   x-rot acc   y-rot acc   z-rot acc
    22626  8.02541E-03 1.38892E-02-2.72197E-03 6.76600E-03 8.47123E-03-2.41200E-03 3.63326E-03 1.52806E-03-6.97932E-04



 n o d a l   p r i n t   o u t   f o r   t i m e  s t e p   17202                              ( at time 8.5996394E+00 )

 nodal point  x-disp     y-disp      z-disp      x-vel       y-vel       z-vel      x-accl      y-accl      z-accl      x-coor      y-coor      z-coor
    22626  2.31642E-01 1.76488E-01-2.51598E+01 1.97081E-01 1.26504E-01-1.62845E+00 8.93129E-02-2.91223E-02 7.23087E-01 4.81958E+01-2.18533E+01-1.78213E+01



 n o d a l   p r i n t   o u t   f o r   t i m e  s t e p   17202                              ( at time 8.5996394E+00 )

 nodal point  x-rot      y-rot       z-rot       x-rot vel   y-rot vel   z-rot vel   x-rot acc   y-rot acc   z-rot acc
    22626  8.72072E-03 1.47427E-02-2.96609E-03 7.13836E-03 8.58509E-03-2.47939E-03 3.72392E-03 1.13879E-03-6.73968E-04



 n o d a l   p r i n t   o u t   f o r   t i m e  s t e p   17402                              ( at time 8.6996293E+00 )

 nodal point  x-disp     y-disp      z-disp      x-vel       y-vel       z-vel      x-accl      y-accl      z-accl      x-coor      y-coor      z-coor
    22626  2.51755E-01 1.88955E-01-2.53189E+01 2.05021E-01 1.23420E-01-1.55403E+00 7.94133E-02-3.08433E-02 7.44187E-01 4.82159E+01-2.18408E+01-1.79804E+01



 n o d a l   p r i n t   o u t   f o r   t i m e  s t e p   17402                              ( at time 8.6996293E+00 )

 nodal point  x-rot      y-rot       z-rot       x-rot vel   y-rot vel   z-rot vel   x-rot acc   y-rot acc   z-rot acc
    22626  9.45123E-03 1.56074E-02-3.21789E-03 7.49279E-03 8.71724E-03-2.58638E-03 3.54467E-03 1.32159E-03-1.07005E-03



 n o d a l   p r i n t   o u t   f o r   t i m e  s t e p   17602                              ( at time 8.7996193E+00 )

 nodal point  x-disp     y-disp      z-disp      x-vel       y-vel       z-vel      x-accl      y-accl      z-accl      x-coor      y-coor      z-coor
    22626  2.72624E-01 2.01007E-01-2.54705E+01 2.13810E-01 1.17460E-01-1.48032E+00 8.78927E-02-5.96014E-02 7.37177E-01 4.82368E+01-2.18288E+01-1.81320E+01



 n o d a l   p r i n t   o u t   f o r   t i m e  s t e p   17602                              ( at time 8.7996193E+00 )

 nodal point  x-rot      y-rot       z-rot       x-rot vel   y-rot vel   z-rot vel   x-rot acc   y-rot acc   z-rot acc
    22626  1.02192E-02 1.64843E-02-3.47863E-03 7.85675E-03 8.79249E-03-2.65664E-03 3.63998E-03 7.52529E-04-7.02661E-04



 n o d a l   p r i n t   o u t   f o r   t i m e  s t e p   17802                              ( at time 8.8996093E+00 )

 nodal point  x-disp     y-disp      z-disp      x-vel       y-vel       z-vel      x-accl      y-accl      z-accl      x-coor      y-coor      z-coor
    22626  2.94433E-01 2.12424E-01-2.56147E+01 2.22293E-01 1.10302E-01-1.40390E+00 8.48430E-02-7.15944E-02 7.64336E-01 4.82586E+01-2.18174E+01-1.82762E+01



 n o d a l   p r i n t   o u t   f o r   t i m e  s t e p   17802                              ( at time 8.8996093E+00 )

 nodal point  x-rot      y-rot       z-rot       x-rot vel   y-rot vel   z-rot vel   x-rot acc   y-rot acc   z-rot acc
    22626  1.10232E-02 1.73689E-02-3.74741E-03 8.22072E-03 8.89334E-03-2.73084E-03 3.64000E-03 1.00861E-03-7.42120E-04



 n o d a l   p r i n t   o u t   f o r   t i m e  s t e p   18002                              ( at time 8.9995993E+00 )

 nodal point  x-disp     y-disp      z-disp      x-vel       y-vel       z-vel      x-accl      y-accl      z-accl      x-coor      y-coor      z-coor
    22626  3.16966E-01 2.23188E-01-2.57512E+01 2.29280E-01 1.05355E-01-1.32579E+00 6.98750E-02-4.94749E-02 7.81191E-01 4.82811E+01-2.18066E+01-1.84126E+01



 n o d a l   p r i n t   o u t   f o r   t i m e  s t e p   18002                              ( at time 8.9995993E+00 )

 nodal point  x-rot      y-rot       z-rot       x-rot vel   y-rot vel   z-rot vel   x-rot acc   y-rot acc   z-rot acc
    22626  1.18661E-02 1.82647E-02-4.02469E-03 8.63793E-03 9.00097E-03-2.81318E-03 4.17258E-03 1.07643E-03-8.23498E-04



 n o d a l   p r i n t   o u t   f o r   t i m e  s t e p   18202                              ( at time 9.0995893E+00 )

 nodal point  x-disp     y-disp      z-disp      x-vel       y-vel       z-vel      x-accl      y-accl      z-accl      x-coor      y-coor      z-coor
    22626  3.40243E-01 2.33389E-01-2.58798E+01 2.38219E-01 9.96330E-02-1.24680E+00 8.93981E-02-5.72227E-02 7.89973E-01 4.83044E+01-2.17964E+01-1.85413E+01



 n o d a l   p r i n t   o u t   f o r   t i m e  s t e p   18202                              ( at time 9.0995893E+00 )

 nodal point  x-rot      y-rot       z-rot       x-rot vel   y-rot vel   z-rot vel   x-rot acc   y-rot acc   z-rot acc
    22626  1.27500E-02 1.91668E-02-4.30791E-03 9.03992E-03 9.04467E-03-2.88419E-03 4.02030E-03 4.37021E-04-7.10093E-04



 n o d a l   p r i n t   o u t   f o r   t i m e  s t e p   18402                              ( at time 9.1995793E+00 )

 nodal point  x-disp     y-disp      z-disp      x-vel       y-vel       z-vel      x-accl      y-accl      z-accl      x-coor      y-coor      z-coor
    22626  3.64387E-01 2.42988E-01-2.60005E+01 2.45600E-01 9.13833E-02-1.16855E+00 7.38202E-02-8.25055E-02 7.82552E-01 4.83286E+01-2.17868E+01-1.86620E+01



 n o d a l   p r i n t   o u t   f o r   t i m e  s t e p   18402                              ( at time 9.1995793E+00 )

 nodal point  x-rot      y-rot       z-rot       x-rot vel   y-rot vel   z-rot vel   x-rot acc   y-rot acc   z-rot acc
    22626  1.36741E-02 2.00761E-02-4.60074E-03 9.44687E-03 9.12918E-03-2.98001E-03 4.06994E-03 8.45214E-04-9.58295E-04



 n o d a l   p r i n t   o u t   f o r   t i m e  s t e p   18602                              ( at time 9.2995693E+00 )

 nodal point  x-disp     y-disp      z-disp      x-vel       y-vel       z-vel      x-accl      y-accl      z-accl      x-coor      y-coor      z-coor
    22626  3.89233E-01 2.51746E-01-2.61133E+01 2.51486E-01 8.54713E-02-1.08919E+00 5.88666E-02-5.91260E-02 7.93668E-01 4.83534E+01-2.17780E+01-1.87748E+01



 n o d a l   p r i n t   o u t   f o r   t i m e  s t e p   18602                              ( at time 9.2995693E+00 )

 nodal point  x-rot      y-rot       z-rot       x-rot vel   y-rot vel   z-rot vel   x-rot acc   y-rot acc   z-rot acc
    22626  1.46393E-02 2.09922E-02-4.90036E-03 9.85843E-03 9.16689E-03-3.06033E-03 4.11599E-03 3.77112E-04-8.03314E-04



 n o d a l   p r i n t   o u t   f o r   t i m e  s t e p   18802                              ( at time 9.3995593E+00 )

 nodal point  x-disp     y-disp      z-disp      x-vel       y-vel       z-vel      x-accl      y-accl      z-accl      x-coor      y-coor      z-coor
    22626  4.14805E-01 2.59910E-01-2.62184E+01 2.58341E-01 7.78891E-02-1.01238E+00 6.85555E-02-7.58292E-02 7.68146E-01 4.83790E+01-2.17699E+01-1.88799E+01



 n o d a l   p r i n t   o u t   f o r   t i m e  s t e p   18802                              ( at time 9.3995593E+00 )

 nodal point  x-rot      y-rot       z-rot       x-rot vel   y-rot vel   z-rot vel   x-rot acc   y-rot acc   z-rot acc
    22626  1.56444E-02 2.19142E-02-5.20810E-03 1.02423E-02 9.26498E-03-3.13831E-03 3.83867E-03 9.80996E-04-7.79917E-04



 n o d a l   p r i n t   o u t   f o r   t i m e  s t e p   19002                              ( at time 9.4995493E+00 )

 nodal point  x-disp     y-disp      z-disp      x-vel       y-vel       z-vel      x-accl      y-accl      z-accl      x-coor      y-coor      z-coor
    22626  4.41060E-01 2.67274E-01-2.63158E+01 2.66194E-01 6.94848E-02-9.36788E-01 7.85403E-02-8.40521E-02 7.56036E-01 4.84052E+01-2.17625E+01-1.89773E+01



 n o d a l   p r i n t   o u t   f o r   t i m e  s t e p   19002                              ( at time 9.4995493E+00 )

 nodal point  x-rot      y-rot       z-rot       x-rot vel   y-rot vel   z-rot vel   x-rot acc   y-rot acc   z-rot acc
    22626  1.66871E-02 2.28452E-02-5.52459E-03 1.06256E-02 9.32714E-03-3.19398E-03 3.83354E-03 6.21721E-04-5.56696E-04



 n o d a l   p r i n t   o u t   f o r   t i m e  s t e p   19202                              ( at time 9.5995393E+00 )

 nodal point  x-disp     y-disp      z-disp      x-vel       y-vel       z-vel      x-accl      y-accl      z-accl      x-coor      y-coor      z-coor
    22626  4.67986E-01 2.74033E-01-2.64056E+01 2.72311E-01 6.61165E-02-8.60363E-01 6.11683E-02-3.36860E-02 7.64321E-01 4.84322E+01-2.17558E+01-1.90671E+01



 n o d a l   p r i n t   o u t   f o r   t i m e  s t e p   19202                              ( at time 9.5995393E+00 )

 nodal point  x-rot      y-rot       z-rot       x-rot vel   y-rot vel   z-rot vel   x-rot acc   y-rot acc   z-rot acc
    22626  1.77704E-02 2.37819E-02-5.84667E-03 1.10446E-02 9.40881E-03-3.24985E-03 4.19041E-03 8.16798E-04-5.58735E-04



 n o d a l   p r i n t   o u t   f o r   t i m e  s t e p   19402                              ( at time 9.6995293E+00 )

 nodal point  x-disp     y-disp      z-disp      x-vel       y-vel       z-vel      x-accl      y-accl      z-accl      x-coor      y-coor      z-coor
    22626  4.95546E-01 2.80322E-01-2.64881E+01 2.78765E-01 5.97488E-02-7.87202E-01 6.45497E-02-6.36832E-02 7.31690E-01 4.84597E+01-2.17495E+01-1.91496E+01



 n o d a l   p r i n t   o u t   f o r   t i m e  s t e p   19402                              ( at time 9.6995293E+00 )

 nodal point  x-rot      y-rot       z-rot       x-rot vel   y-rot vel   z-rot vel   x-rot acc   y-rot acc   z-rot acc
    22626  1.88934E-02 2.47269E-02-6.17577E-03 1.13998E-02 9.51163E-03-3.32359E-03 3.55295E-03 1.02822E-03-7.37559E-04



 n o d a l   p r i n t   o u t   f o r   t i m e  s t e p   19602                              ( at time 9.7995193E+00 )

 nodal point  x-disp     y-disp      z-disp      x-vel       y-vel       z-vel      x-accl      y-accl      z-accl      x-coor      y-coor      z-coor
    22626  5.23800E-01 2.86092E-01-2.65632E+01 2.85711E-01 5.57202E-02-7.17514E-01 6.94652E-02-4.02907E-02 6.96949E-01 4.84880E+01-2.17437E+01-1.92247E+01



 n o d a l   p r i n t   o u t   f o r   t i m e  s t e p   19602                              ( at time 9.7995193E+00 )

 nodal point  x-rot      y-rot       z-rot       x-rot vel   y-rot vel   z-rot vel   x-rot acc   y-rot acc   z-rot acc
    22626  2.00537E-02 2.56795E-02-6.51203E-03 1.18181E-02 9.54529E-03-3.38102E-03 4.18344E-03 3.36726E-04-5.74272E-04



 n o d a l   p r i n t   o u t   f o r   t i m e  s t e p   19802                              ( at time 9.8995093E+00 )

 nodal point  x-disp     y-disp      z-disp      x-vel       y-vel       z-vel      x-accl      y-accl      z-accl      x-coor      y-coor      z-coor
    22626  5.52751E-01 2.91582E-01-2.66313E+01 2.92590E-01 5.39083E-02-6.46278E-01 6.87967E-02-1.81203E-02 7.12429E-01 4.85169E+01-2.17382E+01-1.92928E+01



 n o d a l   p r i n t   o u t   f o r   t i m e  s t e p   19802                              ( at time 9.8995093E+00 )

 nodal point  x-rot      y-rot       z-rot       x-rot vel   y-rot vel   z-rot vel   x-rot acc   y-rot acc   z-rot acc
    22626  2.12559E-02 2.66397E-02-6.85450E-03 1.22382E-02 9.64090E-03-3.47301E-03 4.20098E-03 9.56146E-04-9.20021E-04



 n o d a l   p r i n t   o u t   f o r   t i m e  s t e p   20003                              ( at time 9.9999992E+00 )

 nodal point  x-disp     y-disp      z-disp      x-vel       y-vel       z-vel      x-accl      y-accl      z-accl      x-coor      y-coor      z-coor
[...]
    22626  2.47761E-01 1.48833E-01-6.96371E-02 1.80846E-02 8.04699E-03-6.00995E-03-1.50143E-05 1.08202E-04 3.15337E-04



 n o d a l   p r i n t   o u t   f o r   t i m e  s t e p   45205                              ( at time 2.2599738E+01 )

 nodal point  x-disp     y-disp      z-disp      x-vel       y-vel       z-vel      x-accl      y-accl      z-accl      x-coor      y-coor      z-coor
    22626  4.54342E+00 2.53176E-01-2.14784E+01 2.64830E-01-1.07491E-01 4.48282E-01 1.74076E-02-1.36216E-02 1.24078E-03 5.25076E+01-2.17766E+01-1.41399E+01



 n o d a l   p r i n t   o u t   f o r   t i m e  s t e p   45205                              ( at time 2.2599738E+01 )

 nodal point  x-rot      y-rot       z-rot       x-rot vel   y-rot vel   z-rot vel   x-rot acc   y-rot acc   z-rot acc
    22626  2.49569E-01 1.49639E-01-7.02360E-02 1.80765E-02 8.06184E-03-5.97942E-03-8.05668E-05 1.48429E-04 3.05274E-04



 n o d a l   p r i n t   o u t   f o r   t i m e  s t e p   45405                              ( at time 2.2699728E+01 )

 nodal point  x-disp     y-disp      z-disp      x-vel       y-vel       z-vel      x-accl      y-accl      z-accl      x-coor      y-coor      z-coor
    22626  4.56999E+00 2.42349E-01-2.14336E+01 2.66789E-01-1.08792E-01 4.47351E-01 1.95886E-02-1.30179E-02-9.31098E-03 5.25342E+01-2.17874E+01-1.40951E+01



 n o d a l   p r i n t   o u t   f o r   t i m e  s t e p   45405                              ( at time 2.2699728E+01 )

 nodal point  x-rot      y-rot       z-rot       x-rot vel   y-rot vel   z-rot vel   x-rot acc   y-rot acc   z-rot acc
    22626  2.51376E-01 1.50446E-01-7.08315E-02 1.80796E-02 8.07477E-03-5.93354E-03 3.10724E-05 1.29338E-04 4.58867E-04



 n o d a l   p r i n t   o u t   f o r   t i m e  s t e p   45605                              ( at time 2.2799718E+01 )

 nodal point  x-disp     y-disp      z-disp      x-vel       y-vel       z-vel      x-accl      y-accl      z-accl      x-coor      y-coor      z-coor
    22626  4.59672E+00 2.31372E-01-2.13889E+01 2.68010E-01-1.10742E-01 4.47621E-01 1.22123E-02-1.95049E-02 2.69974E-03 5.25609E+01-2.17984E+01-1.40504E+01



 n o d a l   p r i n t   o u t   f o r   t i m e  s t e p   45605                              ( at time 2.2799718E+01 )

 nodal point  x-rot      y-rot       z-rot       x-rot vel   y-rot vel   z-rot vel   x-rot acc   y-rot acc   z-rot acc
    22626  2.53184E-01 1.51253E-01-7.14227E-02 1.80760E-02 8.09079E-03-5.89343E-03-3.65112E-05 1.60221E-04 4.01101E-04



 n o d a l   p r i n t   o u t   f o r   t i m e  s t e p   45805                              ( at time 2.2899708E+01 )

 nodal point  x-disp     y-disp      z-disp      x-vel       y-vel       z-vel      x-accl      y-accl      z-accl      x-coor      y-coor      z-coor
    22626  4.62361E+00 2.20235E-01-2.13442E+01 2.69855E-01-1.12189E-01 4.46169E-01 1.84482E-02-1.44662E-02-1.45165E-02 5.25878E+01-2.18096E+01-1.40057E+01



 n o d a l   p r i n t   o u t   f o r   t i m e  s t e p   45805                              ( at time 2.2899708E+01 )

 nodal point  x-rot      y-rot       z-rot       x-rot vel   y-rot vel   z-rot vel   x-rot acc   y-rot acc   z-rot acc
    22626  2.54991E-01 1.52063E-01-7.20103E-02 1.80705E-02 8.10230E-03-5.85281E-03-5.48051E-05 1.15124E-04 4.06320E-04



 n o d a l   p r i n t   o u t   f o r   t i m e  s t e p   46005                              ( at time 2.2999698E+01 )

 nodal point  x-disp     y-disp      z-disp      x-vel       y-vel       z-vel      x-accl      y-accl      z-accl      x-coor      y-coor      z-coor
    22626  4.65067E+00 2.08961E-01-2.12996E+01 2.71034E-01-1.13248E-01 4.45770E-01 1.17897E-02-1.05896E-02-3.98792E-03 5.26148E+01-2.18208E+01-1.39611E+01



 n o d a l   p r i n t   o u t   f o r   t i m e  s t e p   46005                              ( at time 2.2999698E+01 )

 nodal point  x-rot      y-rot       z-rot       x-rot vel   y-rot vel   z-rot vel   x-rot acc   y-rot acc   z-rot acc
    22626  2.56798E-01 1.52874E-01-7.25934E-02 1.80766E-02 8.11368E-03-5.81883E-03 6.09700E-05 1.13855E-04 3.39787E-04



 n o d a l   p r i n t   o u t   f o r   t i m e  s t e p   46205                              ( at time 2.3099688E+01 )

 nodal point  x-disp     y-disp      z-disp      x-vel       y-vel       z-vel      x-accl      y-accl      z-accl      x-coor      y-coor      z-coor
    22626  4.67786E+00 1.97550E-01-2.12550E+01 2.72958E-01-1.14740E-01 4.45609E-01 1.92476E-02-1.49191E-02-1.61129E-03 5.26420E+01-2.18322E+01-1.39165E+01



 n o d a l   p r i n t   o u t   f o r   t i m e  s t e p   46205                              ( at time 2.3099688E+01 )

 nodal point  x-rot      y-rot       z-rot       x-rot vel   y-rot vel   z-rot vel   x-rot acc   y-rot acc   z-rot acc
    22626  2.58606E-01 1.53686E-01-7.31729E-02 1.80809E-02 8.13100E-03-5.77580E-03 4.31064E-05 1.73152E-04 4.30375E-04



 n o d a l   p r i n t   o u t   f o r   t i m e  s t e p   46405                              ( at time 2.3199678E+01 )

 nodal point  x-disp     y-disp      z-disp      x-vel       y-vel       z-vel      x-accl      y-accl      z-accl      x-coor      y-coor      z-coor
    22626  4.70524E+00 1.85994E-01-2.12105E+01 2.74558E-01-1.16429E-01 4.44035E-01 1.60005E-02-1.68993E-02-1.57430E-02 5.26694E+01-2.18438E+01-1.38720E+01



 n o d a l   p r i n t   o u t   f o r   t i m e  s t e p   46405                              ( at time 2.3199678E+01 )

 nodal point  x-rot      y-rot       z-rot       x-rot vel   y-rot vel   z-rot vel   x-rot acc   y-rot acc   z-rot acc
    22626  2.60414E-01 1.54500E-01-7.37480E-02 1.80843E-02 8.14207E-03-5.72946E-03 3.39032E-05 1.10716E-04 4.63427E-04



 n o d a l   p r i n t   o u t   f o r   t i m e  s t e p   46605                              ( at time 2.3299668E+01 )

 nodal point  x-disp     y-disp      z-disp      x-vel       y-vel       z-vel      x-accl      y-accl      z-accl      x-coor      y-coor      z-coor
    22626  4.73277E+00 1.74297E-01-2.11662E+01 2.75920E-01-1.17486E-01 4.43748E-01 1.36250E-02-1.05669E-02-2.86700E-03 5.26969E+01-2.18555E+01-1.38277E+01



 n o d a l   p r i n t   o u t   f o r   t i m e  s t e p   46605                              ( at time 2.3299668E+01 )

 nodal point  x-rot      y-rot       z-rot       x-rot vel   y-rot vel   z-rot vel   x-rot acc   y-rot acc   z-rot acc
    22626  2.62222E-01 1.55315E-01-7.43194E-02 1.80830E-02 8.15398E-03-5.69729E-03-1.31704E-05 1.19120E-04 3.21752E-04



 n o d a l   p r i n t   o u t   f o r   t i m e  s t e p   46805                              ( at time 2.3399658E+01 )

 nodal point  x-disp     y-disp      z-disp      x-vel       y-vel       z-vel      x-accl      y-accl      z-accl      x-coor      y-coor      z-coor
    22626  4.76042E+00 1.62476E-01-2.11219E+01 2.77070E-01-1.18766E-01 4.42275E-01 1.15018E-02-1.28005E-02-1.47347E-02 5.27246E+01-2.18673E+01-1.37834E+01



 n o d a l   p r i n t   o u t   f o r   t i m e  s t e p   46805                              ( at time 2.3399658E+01 )

 nodal point  x-rot      y-rot       z-rot       x-rot vel   y-rot vel   z-rot vel   x-rot acc   y-rot acc   z-rot acc
    22626  2.64031E-01 1.56130E-01-7.48869E-02 1.81039E-02 8.16142E-03-5.65720E-03 2.08933E-04 7.44009E-05 4.00915E-04



 n o d a l   p r i n t   o u t   f o r   t i m e  s t e p   47005                              ( at time 2.3499648E+01 )

 nodal point  x-disp     y-disp      z-disp      x-vel       y-vel       z-vel      x-accl      y-accl      z-accl      x-coor      y-coor      z-coor
    22626  4.78824E+00 1.50542E-01-2.10777E+01 2.78913E-01-1.20022E-01 4.41407E-01 1.84285E-02-1.25669E-02-8.68460E-03 5.27524E+01-2.18792E+01-1.37392E+01



 n o d a l   p r i n t   o u t   f o r   t i m e  s t e p   47005                              ( at time 2.3499648E+01 )

 nodal point  x-rot      y-rot       z-rot       x-rot vel   y-rot vel   z-rot vel   x-rot acc   y-rot acc   z-rot acc
    22626  2.65842E-01 1.56947E-01-7.54505E-02 1.81129E-02 8.17162E-03-5.62210E-03 9.01975E-05 1.02026E-04 3.51029E-04



 n o d a l   p r i n t   o u t   f o r   t i m e  s t e p   47205                              ( at time 2.3599638E+01 )

 nodal point  x-disp     y-disp      z-disp      x-vel       y-vel       z-vel      x-accl      y-accl      z-accl      x-coor      y-coor      z-coor
    22626  4.81619E+00 1.38450E-01-2.10336E+01 2.80316E-01-1.21623E-01 4.39788E-01 1.40301E-02-1.60046E-02-1.61910E-02 5.27804E+01-2.18913E+01-1.36951E+01



 n o d a l   p r i n t   o u t   f o r   t i m e  s t e p   47205                              ( at time 2.3599638E+01 )

 nodal point  x-rot      y-rot       z-rot       x-rot vel   y-rot vel   z-rot vel   x-rot acc   y-rot acc   z-rot acc
    22626  2.67654E-01 1.57764E-01-7.60107E-02 1.81209E-02 8.17400E-03-5.58117E-03 8.06615E-05 2.37607E-05 4.09357E-04



 n o d a l   p r i n t   o u t   f o r   t i m e  s t e p   47405                              ( at time 2.3699628E+01 )

 nodal point  x-disp     y-disp      z-disp      x-vel       y-vel       z-vel      x-accl      y-accl      z-accl      x-coor      y-coor      z-coor
    22626  4.84427E+00 1.26251E-01-2.09897E+01 2.81522E-01-1.22507E-01 4.39220E-01 1.20645E-02-8.84763E-03-5.67905E-03 5.28085E+01-2.19035E+01-1.36512E+01



 n o d a l   p r i n t   o u t   f o r   t i m e  s t e p   47405                              ( at time 2.3699628E+01 )

 nodal point  x-rot      y-rot       z-rot       x-rot vel   y-rot vel   z-rot vel   x-rot acc   y-rot acc   z-rot acc
    22626  2.69467E-01 1.58582E-01-7.65679E-02 1.81453E-02 8.18884E-03-5.55664E-03 2.43694E-04 1.48438E-04 2.45314E-04



 n o d a l   p r i n t   o u t   f o r   t i m e  s t e p   47605                              ( at time 2.3799618E+01 )

 nodal point  x-disp     y-disp      z-disp      x-vel       y-vel       z-vel      x-accl      y-accl      z-accl      x-coor      y-coor      z-coor
    22626  4.87247E+00 1.13964E-01-2.09459E+01 2.82547E-01-1.23081E-01 4.37430E-01 1.02460E-02-5.74131E-03-1.79030E-02 5.28367E+01-2.19158E+01-1.36074E+01



 n o d a l   p r i n t   o u t   f o r   t i m e  s t e p   47605                              ( at time 2.3799618E+01 )

 nodal point  x-rot      y-rot       z-rot       x-rot vel   y-rot vel   z-rot vel   x-rot acc   y-rot acc   z-rot acc
    22626  2.71282E-01 1.59401E-01-7.71218E-02 1.81559E-02 8.18359E-03-5.52012E-03 1.05791E-04-5.25138E-05 3.65291E-04



 n o d a l   p r i n t   o u t   f o r   t i m e  s t e p   47805                              ( at time 2.3899608E+01 )

 nodal point  x-disp     y-disp      z-disp      x-vel       y-vel       z-vel      x-accl      y-accl      z-accl      x-coor      y-coor      z-coor
    22626  4.90078E+00 1.01634E-01-2.09022E+01 2.83737E-01-1.23712E-01 4.36279E-01 1.19074E-02-6.31100E-03-1.15119E-02 5.28650E+01-2.19282E+01-1.35637E+01



 n o d a l   p r i n t   o u t   f o r   t i m e  s t e p   47805                              ( at time 2.3899608E+01 )

 nodal point  x-rot      y-rot       z-rot       x-rot vel   y-rot vel   z-rot vel   x-rot acc   y-rot acc   z-rot acc
    22626  2.73098E-01 1.60220E-01-7.76722E-02 1.81647E-02 8.19597E-03-5.48937E-03 8.83720E-05 1.23877E-04 3.07486E-04



 n o d a l   p r i n t   o u t   f o r   t i m e  s t e p   48005                              ( at time 2.3999598E+01 )

 nodal point  x-disp     y-disp      z-disp      x-vel       y-vel       z-vel      x-accl      y-accl      z-accl      x-coor      y-coor      z-coor
    22626  4.92924E+00 8.92425E-02-2.08586E+01 2.85324E-01-1.24115E-01 4.35055E-01 1.58643E-02-4.02093E-03-1.22346E-02 5.28934E+01-2.19405E+01-1.35201E+01



 n o d a l   p r i n t   o u t   f o r   t i m e  s t e p   48005                              ( at time 2.3999598E+01 )

 nodal point  x-rot      y-rot       z-rot       x-rot vel   y-rot vel   z-rot vel   x-rot acc   y-rot acc   z-rot acc
    22626  2.74915E-01 1.61039E-01-7.82196E-02 1.81830E-02 8.20341E-03-5.45742E-03 1.82895E-04 7.43743E-05 3.19493E-04



 n o d a l   p r i n t   o u t   f o r   t i m e  s t e p   48205                              ( at time 2.4099588E+01 )

 nodal point  x-disp     y-disp      z-disp      x-vel       y-vel       z-vel      x-accl      y-accl      z-accl      x-coor      y-coor      z-coor
    22626  4.95785E+00 7.68379E-02-2.08152E+01 2.86717E-01-1.24038E-01 4.33916E-01 1.39312E-02 7.65170E-04-1.13930E-02 5.29220E+01-2.19530E+01-1.34767E+01



 n o d a l   p r i n t   o u t   f o r   t i m e  s t e p   48205                              ( at time 2.4099588E+01 )

 nodal point  x-rot      y-rot       z-rot       x-rot vel   y-rot vel   z-rot vel   x-rot acc   y-rot acc   z-rot acc
    22626  2.76733E-01 1.61860E-01-7.87633E-02 1.81933E-02 8.20797E-03-5.41583E-03 1.03274E-04 4.56483E-05 4.16013E-04



 n o d a l   p r i n t   o u t   f o r   t i m e  s t e p   48405                              ( at time 2.4199578E+01 )

 nodal point  x-disp     y-disp      z-disp      x-vel       y-vel       z-vel      x-accl      y-accl      z-accl      x-coor      y-coor      z-coor
    22626  4.98664E+00 6.44394E-02-2.07719E+01 2.88810E-01-1.23704E-01 4.32741E-01 2.09402E-02 3.33808E-03-1.17556E-02 5.29508E+01-2.19654E+01-1.34334E+01



 n o d a l   p r i n t   o u t   f o r   t i m e  s t e p   48405                              ( at time 2.4199578E+01 )

 nodal point  x-rot      y-rot       z-rot       x-rot vel   y-rot vel   z-rot vel   x-rot acc   y-rot acc   z-rot acc
    22626  2.78552E-01 1.62681E-01-7.93029E-02 1.81874E-02 8.21514E-03-5.37592E-03-5.93132E-05 7.16918E-05 3.99144E-04



 n o d a l   p r i n t   o u t   f o r   t i m e  s t e p   48605                              ( at time 2.4299568E+01 )

 nodal point  x-disp     y-disp      z-disp      x-vel       y-vel       z-vel      x-accl      y-accl      z-accl      x-coor      y-coor      z-coor
    22626  5.01560E+00 5.21013E-02-2.07287E+01 2.90425E-01-1.22899E-01 4.31336E-01 1.61421E-02 8.05019E-03-1.40528E-02 5.29798E+01-2.19777E+01-1.33902E+01



 n o d a l   p r i n t   o u t   f o r   t i m e  s t e p   48605                              ( at time 2.4299568E+01 )

 nodal point  x-rot      y-rot       z-rot       x-rot vel   y-rot vel   z-rot vel   x-rot acc   y-rot acc   z-rot acc
    22626  2.80371E-01 1.63503E-01-7.98386E-02 1.81951E-02 8.23278E-03-5.33967E-03 7.73441E-05 1.76409E-04 3.62462E-04



 n o d a l   p r i n t   o u t   f o r   t i m e  s t e p   48805                              ( at time 2.4399558E+01 )

 nodal point  x-disp     y-disp      z-disp      x-vel       y-vel       z-vel      x-accl      y-accl      z-accl      x-coor      y-coor      z-coor
    22626  5.04471E+00 3.98382E-02-2.06856E+01 2.91975E-01-1.22403E-01 4.30491E-01 1.55070E-02 4.96172E-03-8.44705E-03 5.30089E+01-2.19900E+01-1.33471E+01



 n o d a l   p r i n t   o u t   f o r   t i m e  s t e p   48805                              ( at time 2.4399558E+01 )

 nodal point  x-rot      y-rot       z-rot       x-rot vel   y-rot vel   z-rot vel   x-rot acc   y-rot acc   z-rot acc
    22626  2.82190E-01 1.64326E-01-8.03704E-02 1.81906E-02 8.23316E-03-5.29700E-03-4.53409E-05 3.73495E-06 4.26748E-04



 n o d a l   p r i n t   o u t   f o r   t i m e  s t e p   49006                              ( at time 2.4500048E+01 )

 nodal point  x-disp     y-disp      z-disp      x-vel       y-vel       z-vel      x-accl      y-accl      z-accl      x-coor      y-coor      z-coor
    22626  5.07416E+00 2.75701E-02-2.06424E+01 2.94036E-01-1.21822E-01 4.29208E-01 2.05096E-02 5.78408E-03-1.27711E-02 5.30383E+01-2.20022E+01-1.33039E+01



 n o d a l   p r i n t   o u t   f o r   t i m e  s t e p   49006                              ( at time 2.4500048E+01 )

 nodal point  x-rot      y-rot       z-rot       x-rot vel   y-rot vel   z-rot vel   x-rot acc   y-rot acc   z-rot acc
    22626  2.84018E-01 1.65154E-01-8.09009E-02 1.81917E-02 8.24876E-03-5.25991E-03 1.08064E-05 1.55256E-04 3.69096E-04



 n o d a l   p r i n t   o u t   f o r   t i m e  s t e p   49206                              ( at time 2.4600038E+01 )

 nodal point  x-disp     y-disp      z-disp      x-vel       y-vel       z-vel      x-accl      y-accl      z-accl      x-coor      y-coor      z-coor
    22626  5.10364E+00 1.54745E-02-2.05995E+01 2.95771E-01-1.20198E-01 4.28484E-01 1.73543E-02 1.62431E-02-7.23249E-03 5.30678E+01-2.20143E+01-1.32610E+01



 n o d a l   p r i n t   o u t   f o r   t i m e  s t e p   49206                              ( at time 2.4600038E+01 )

 nodal point  x-rot      y-rot       z-rot       x-rot vel   y-rot vel   z-rot vel   x-rot acc   y-rot acc   z-rot acc
    22626  2.85837E-01 1.65980E-01-8.14256E-02 1.81811E-02 8.26114E-03-5.22730E-03-1.06460E-04 1.23821E-04 3.26179E-04



 n o d a l   p r i n t   o u t   f o r   t i m e  s t e p   49406                              ( at time 2.4700028E+01 )

 nodal point  x-disp     y-disp      z-disp      x-vel       y-vel       z-vel      x-accl      y-accl      z-accl      x-coor      y-coor      z-coor
    22626  5.13327E+00 3.50723E-03-2.05567E+01 2.97196E-01-1.19119E-01 4.27517E-01 1.42471E-02 1.07874E-02-9.67729E-03 5.30975E+01-2.20263E+01-1.32182E+01



 n o d a l   p r i n t   o u t   f o r   t i m e  s t e p   49406                              ( at time 2.4700028E+01 )

 nodal point  x-rot      y-rot       z-rot       x-rot vel   y-rot vel   z-rot vel   x-rot acc   y-rot acc   z-rot acc
    22626  2.87655E-01 1.66806E-01-8.19460E-02 1.81769E-02 8.27178E-03-5.18162E-03-4.11690E-05 1.06415E-04 4.56860E-04



 n o d a l   p r i n t   o u t   f o r   t i m e  s t e p   49606                              ( at time 2.4800018E+01 )

 nodal point  x-disp     y-disp      z-disp      x-vel       y-vel       z-vel      x-accl      y-accl      z-accl      x-coor      y-coor      z-coor
    22626  5.16309E+00-8.30734E-03-2.05140E+01 2.99140E-01-1.17460E-01 4.26749E-01 1.94448E-02 1.65895E-02-7.68404E-03 5.31273E+01-2.20381E+01-1.31755E+01



 n o d a l   p r i n t   o u t   f o r   t i m e  s t e p   49606                              ( at time 2.4800018E+01 )

 nodal point  x-rot      y-rot       z-rot       x-rot vel   y-rot vel   z-rot vel   x-rot acc   y-rot acc   z-rot acc
    22626  2.89472E-01 1.67634E-01-8.24628E-02 1.81659E-02 8.28422E-03-5.15348E-03-1.10782E-04 1.24436E-04 2.81397E-04



 n o d a l   p r i n t   o u t   f o r   t i m e  s t e p   49806                              ( at time 2.4900008E+01 )

 nodal point  x-disp     y-disp      z-disp      x-vel       y-vel       z-vel      x-accl      y-accl      z-accl      x-coor      y-coor      z-coor
    22626  5.19309E+00-1.99855E-02-2.04713E+01 3.00963E-01-1.16078E-01 4.25877E-01 1.82345E-02 1.38209E-02-8.71665E-03 5.31573E+01-2.20498E+01-1.31328E+01



 n o d a l   p r i n t   o u t   f o r   t i m e  s t e p   49806                              ( at time 2.4900008E+01 )

 nodal point  x-rot      y-rot       z-rot       x-rot vel   y-rot vel   z-rot vel   x-rot acc   y-rot acc   z-rot acc
    22626  2.91287E-01 1.68463E-01-8.29762E-02 1.81496E-02 8.30216E-03-5.11101E-03-1.62627E-04 1.79383E-04 4.24693E-04



 n o d a l   p r i n t   o u t   f o r   t i m e  s t e p   50006                              ( at time 2.4999998E+01 )

 nodal point  x-disp     y-disp      z-disp      x-vel       y-vel       z-vel      x-accl      y-accl      z-accl      x-coor      y-coor      z-coor
    22626  5.22327E+00-3.14968E-02-2.04288E+01 3.02608E-01-1.14243E-01 4.25431E-01 1.64429E-02 1.83550E-02-4.46509E-03 5.31874E+01-2.20613E+01-1.30903E+01



 n o d a l   p r i n t   o u t   f o r   t i m e  s t e p   50006                              ( at time 2.4999998E+01 )

 nodal point  x-rot      y-rot       z-rot       x-rot vel   y-rot vel   z-rot vel   x-rot acc   y-rot acc   z-rot acc
    22626  2.93101E-01 1.69294E-01-8.34854E-02 1.81334E-02 8.31819E-03-5.07282E-03-1.62326E-04 1.60305E-04 3.81961E-04
