 LSTC 50th% Full_FE H-III Dummy (Beta Version, February 17, 2019)        
                    ls-dyna smp s R16 R16.0_619_d222963 date 03/18/2025

{BEGIN LEGEND}
 Entity #        Title
    22626                                                                                     
{END LEGEND}




 n o d a l   p r i n t   o u t   f o r   t i m e  s t e p       1                              ( at time 0.0000000E+00 )

 nodal point  x-disp     y-disp      z-disp      x-vel       y-vel       z-vel      x-accl      y-accl      z-accl      x-coor      y-coor      z-coor
    22626  0.00000E+00 0.00000E+00 0.00000E+00 0.00000E+00 0.00000E+00 0.00000E+00 0.00000E+00 0.00000E+00 0.00000E+00 4.65938E+00-2.81908E+01-4.49817E+01



 n o d a l   p r i n t   o u t   f o r   t i m e  s t e p       1                              ( at time 0.0000000E+00 )

 nodal point  x-rot      y-rot       z-rot       x-rot vel   y-rot vel   z-rot vel   x-rot acc   y-rot acc   z-rot acc
    22626  0.00000E+00 0.00000E+00 0.00000E+00 0.00000E+00 0.00000E+00 0.00000E+00 0.00000E+00 0.00000E+00 0.00000E+00



 n o d a l   p r i n t   o u t   f o r   t i m e  s t e p     201                              ( at time 9.9989993E-02 )

 nodal point  x-disp     y-disp      z-disp      x-vel       y-vel       z-vel      x-accl      y-accl      z-accl      x-coor      y-coor      z-coor
    22626  2.73575E-07 1.73669E-06-5.34278E-05 4.19752E-05 2.55596E-04-1.46819E-03 4.19794E-04 2.55621E-03-1.46834E-02 4.65938E+00-2.81908E+01-4.49818E+01



 n o d a l   p r i n t   o u t   f o r   t i m e  s t e p     201                              ( at time 9.9989993E-02 )

 nodal point  x-rot      y-rot       z-rot       x-rot vel   y-rot vel   z-rot vel   x-rot acc   y-rot acc   z-rot acc
    22626 -5.98981E-08-8.38467E-09-5.45921E-09-5.86955E-06-9.69950E-07-9.27110E-07-5.87014E-05-9.70047E-06-9.27203E-06



 n o d a l   p r i n t   o u t   f o r   t i m e  s t e p     401                              ( at time 1.9997999E-01 )

 nodal point  x-disp     y-disp      z-disp      x-vel       y-vel       z-vel      x-accl      y-accl      z-accl      x-coor      y-coor      z-coor
    22626  1.73125E-05 3.61745E-04-6.67598E-04 3.04512E-05 7.81072E-03-1.21532E-02-1.15251E-04 7.55588E-02-1.06860E-01 4.65939E+00-2.81905E+01-4.49824E+01



 n o d a l   p r i n t   o u t   f o r   t i m e  s t e p     401                              ( at time 1.9997999E-01 )

 nodal point  x-rot      y-rot       z-rot       x-rot vel   y-rot vel   z-rot vel   x-rot acc   y-rot acc   z-rot acc
    22626 -2.82008E-06-3.37185E-07-3.34621E-07-3.93823E-05-1.76069E-06-2.29118E-06-3.35161E-04-7.90817E-06-1.36420E-05



 n o d a l   p r i n t   o u t   f o r   t i m e  s t e p     601                              ( at time 2.9996998E-01 )

 nodal point  x-disp     y-disp      z-disp      x-vel       y-vel       z-vel      x-accl      y-accl      z-accl      x-coor      y-coor      z-coor
    22626  2.73753E-05 1.24008E-03-2.33844E-03 4.23464E-04 8.44927E-03-1.92555E-02 3.93052E-03 6.38615E-03-7.10306E-02 4.65940E+00-2.81896E+01-4.49841E+01



 n o d a l   p r i n t   o u t   f o r   t i m e  s t e p     601                              ( at time 2.9996998E-01 )

 nodal point  x-rot      y-rot       z-rot       x-rot vel   y-rot vel   z-rot vel   x-rot acc   y-rot acc   z-rot acc
    22626 -5.38407E-06-3.90586E-07-6.42073E-07-1.54665E-05-5.48560E-06-6.67973E-06 2.39181E-04-3.72529E-05-4.38899E-05



 n o d a l   p r i n t   o u t   f o r   t i m e  s t e p     801                              ( at time 3.9995997E-01 )

 nodal point  x-disp     y-disp      z-disp      x-vel       y-vel       z-vel      x-accl      y-accl      z-accl      x-coor      y-coor      z-coor
    22626  2.60272E-05 2.16245E-03-4.28287E-03-3.15938E-04 1.07420E-02-2.10844E-02-7.39476E-03 2.29301E-02-1.82909E-02 4.65940E+00-2.81887E+01-4.49860E+01



 n o d a l   p r i n t   o u t   f o r   t i m e  s t e p     801                              ( at time 3.9995997E-01 )

 nodal point  x-rot      y-rot       z-rot       x-rot vel   y-rot vel   z-rot vel   x-rot acc   y-rot acc   z-rot acc
    22626 -7.61681E-06-1.25020E-06-9.80702E-07-4.48036E-05-6.23031E-06-1.46415E-06-2.93400E-04-7.44779E-06 5.21610E-05



 n o d a l   p r i n t   o u t   f o r   t i m e  s t e p    1001                              ( at time 4.9994997E-01 )

 nodal point  x-disp     y-disp      z-disp      x-vel       y-vel       z-vel      x-accl      y-accl      z-accl      x-coor      y-coor      z-coor
    22626  3.68090E-06 3.43655E-03-6.74476E-03-2.39006E-04 1.41513E-02-2.87088E-02 7.69401E-04 3.40961E-02-7.62513E-02 4.65938E+00-2.81874E+01-4.49885E+01



 n o d a l   p r i n t   o u t   f o r   t i m e  s t e p    1001                              ( at time 4.9994997E-01 )

 nodal point  x-rot      y-rot       z-rot       x-rot vel   y-rot vel   z-rot vel   x-rot acc   y-rot acc   z-rot acc
    22626 -1.35606E-05-1.16558E-06-9.50119E-07-8.42130E-05 3.23354E-06 4.11962E-06-3.94133E-04 9.46479E-05 5.58433E-05



 n o d a l   p r i n t   o u t   f o r   t i m e  s t e p    1201                              ( at time 5.9993996E-01 )

 nodal point  x-disp     y-disp      z-disp      x-vel       y-vel       z-vel      x-accl      y-accl      z-accl      x-coor      y-coor      z-coor
    22626 -8.40483E-07 5.01225E-03-9.71616E-03 4.45885E-05 1.66995E-02-3.09908E-02 2.83622E-03 2.54846E-02-2.28223E-02 4.65937E+00-2.81858E+01-4.49914E+01



 n o d a l   p r i n t   o u t   f o r   t i m e  s t e p    1201                              ( at time 5.9993996E-01 )

 nodal point  x-rot      y-rot       z-rot       x-rot vel   y-rot vel   z-rot vel   x-rot acc   y-rot acc   z-rot acc
    22626 -2.02871E-05-8.87269E-07-9.58250E-07-5.90906E-05 3.93084E-06-2.03134E-06 2.51249E-04 6.97371E-06-6.15157E-05



 n o d a l   p r i n t   o u t   f o r   t i m e  s t e p    1401                              ( at time 6.9992995E-01 )

 nodal point  x-disp     y-disp      z-disp      x-vel       y-vel       z-vel      x-accl      y-accl      z-accl      x-coor      y-coor      z-coor
    22626 -5.10353E-05 6.85040E-03-1.31711E-02-4.90764E-04 1.96618E-02-3.89656E-02-5.35406E-03 2.96260E-02-7.97560E-02 4.65932E+00-2.81840E+01-4.49949E+01



 n o d a l   p r i n t   o u t   f o r   t i m e  s t e p    1401                              ( at time 6.9992995E-01 )

 nodal point  x-rot      y-rot       z-rot       x-rot vel   y-rot vel   z-rot vel   x-rot acc   y-rot acc   z-rot acc
    22626 -2.62101E-05-9.01639E-07-6.32258E-07-7.08969E-05 3.21742E-07 3.86239E-06-1.18075E-04-3.60946E-05 5.89431E-05



 n o d a l   p r i n t   o u t   f o r   t i m e  s t e p    1601                              ( at time 7.9991994E-01 )

 nodal point  x-disp     y-disp      z-disp      x-vel       y-vel       z-vel      x-accl      y-accl      z-accl      x-coor      y-coor      z-coor
    22626 -8.02554E-05 8.98680E-03-1.74642E-02-4.95372E-04 2.21650E-02-4.51180E-02-4.60864E-05 2.50339E-02-6.15305E-02 4.65929E+00-2.81818E+01-4.49992E+01



 n o d a l   p r i n t   o u t   f o r   t i m e  s t e p    1601                              ( at time 7.9991994E-01 )

 nodal point  x-rot      y-rot       z-rot       x-rot vel   y-rot vel   z-rot vel   x-rot acc   y-rot acc   z-rot acc
    22626 -3.43987E-05-8.78225E-07-5.14929E-07-9.19127E-05-4.82352E-06 1.51885E-06-2.10179E-04-5.14578E-05-2.34377E-05



 n o d a l   p r i n t   o u t   f o r   t i m e  s t e p    1801                              ( at time 8.9990994E-01 )

 nodal point  x-disp     y-disp      z-disp      x-vel       y-vel       z-vel      x-accl      y-accl      z-accl      x-coor      y-coor      z-coor
    22626 -1.16831E-04 1.12542E-02-2.19906E-02-2.89694E-04 2.40431E-02-4.55871E-02 2.05699E-03 1.87836E-02-4.69102E-03 4.65926E+00-2.81796E+01-4.50037E+01



 n o d a l   p r i n t   o u t   f o r   t i m e  s t e p    1801                              ( at time 8.9990994E-01 )

 nodal point  x-rot      y-rot       z-rot       x-rot vel   y-rot vel   z-rot vel   x-rot acc   y-rot acc   z-rot acc
    22626 -4.28184E-05-9.58259E-07-5.02492E-07-8.25478E-05 1.98380E-06-6.59721E-07 9.36590E-05 6.80801E-05-2.17879E-05



 n o d a l   p r i n t   o u t   f o r   t i m e  s t e p    2001                              ( at time 9.9989993E-01 )

 nodal point  x-disp     y-disp      z-disp      x-vel       y-vel       z-vel      x-accl      y-accl      z-accl      x-coor      y-coor      z-coor
    22626 -1.52092E-04 1.37912E-02-2.67304E-02-3.42538E-05 2.65013E-02-5.00326E-02 2.55466E-03 2.45836E-02-4.44601E-02 4.65922E+00-2.81770E+01-4.50084E+01



 n o d a l   p r i n t   o u t   f o r   t i m e  s t e p    2001                              ( at time 9.9989993E-01 )

 nodal point  x-rot      y-rot       z-rot       x-rot vel   y-rot vel   z-rot vel   x-rot acc   y-rot acc   z-rot acc
    22626 -5.18510E-05-9.08473E-07-4.37414E-07-1.06001E-04 1.21093E-06-3.05847E-06-2.34553E-04-7.72948E-06-2.39899E-05



 n o d a l   p r i n t   o u t   f o r   t i m e  s t e p    2201                              ( at time 1.0998899E+00 )

 nodal point  x-disp     y-disp      z-disp      x-vel       y-vel       z-vel      x-accl      y-accl      z-accl      x-coor      y-coor      z-coor
    22626 -1.59795E-04 1.65322E-02-3.20558E-02-3.46049E-04 2.88862E-02-5.60763E-02-3.11827E-03 2.38522E-02-6.04423E-02 4.65921E+00-2.81743E+01-4.50138E+01



 n o d a l   p r i n t   o u t   f o r   t i m e  s t e p    2201                              ( at time 1.0998899E+00 )

 nodal point  x-rot      y-rot       z-rot       x-rot vel   y-rot vel   z-rot vel   x-rot acc   y-rot acc   z-rot acc
    22626 -6.29459E-05-1.00471E-06-7.49412E-07-1.03732E-04-7.57824E-06-2.07477E-06 2.26868E-05-8.79005E-05 9.83796E-06



 n o d a l   p r i n t   o u t   f o r   t i m e  s t e p    2401                              ( at time 1.1998799E+00 )

 nodal point  x-disp     y-disp      z-disp      x-vel       y-vel       z-vel      x-accl      y-accl      z-accl      x-coor      y-coor      z-coor
    22626 -1.89784E-04 1.94752E-02-3.79327E-02-1.97266E-04 3.02257E-02-6.12097E-02 1.48798E-03 1.33963E-02-5.13398E-02 4.65919E+00-2.81714E+01-4.50197E+01



 n o d a l   p r i n t   o u t   f o r   t i m e  s t e p    2401                              ( at time 1.1998799E+00 )

 nodal point  x-rot      y-rot       z-rot       x-rot vel   y-rot vel   z-rot vel   x-rot acc   y-rot acc   z-rot acc
    22626 -7.29528E-05-1.61459E-06-9.90802E-07-1.01344E-04-7.23741E-06-2.97657E-06 2.38855E-05 3.40865E-06-9.01886E-06



 n o d a l   p r i n t   o u t   f o r   t i m e  s t e p    2601                              ( at time 1.2998699E+00 )

 nodal point  x-disp     y-disp      z-disp      x-vel       y-vel       z-vel      x-accl      y-accl      z-accl      x-coor      y-coor      z-coor
    22626 -2.23878E-04 2.26249E-02-4.42079E-02-2.45519E-04 3.26017E-02-6.40506E-02-4.82574E-04 2.37616E-02-2.84118E-02 4.65915E+00-2.81682E+01-4.50259E+01



 n o d a l   p r i n t   o u t   f o r   t i m e  s t e p    2601                              ( at time 1.2998699E+00 )

 nodal point  x-rot      y-rot       z-rot       x-rot vel   y-rot vel   z-rot vel   x-rot acc   y-rot acc   z-rot acc
    22626 -8.39958E-05-2.17105E-06-1.24551E-06-1.29265E-04 4.42872E-08-1.48223E-06-2.79238E-04 7.28242E-05 1.49449E-05



 n o d a l   p r i n t   o u t   f o r   t i m e  s t e p    2801                              ( at time 1.3998599E+00 )

 nodal point  x-disp     y-disp      z-disp      x-vel       y-vel       z-vel      x-accl      y-accl      z-accl      x-coor      y-coor      z-coor
    22626 -2.51465E-04 2.59924E-02-5.07120E-02-4.50077E-04 3.45179E-02-6.66692E-02-2.04578E-03 1.91641E-02-2.61884E-02 4.65912E+00-2.81648E+01-4.50324E+01



 n o d a l   p r i n t   o u t   f o r   t i m e  s t e p    2801                              ( at time 1.3998599E+00 )

 nodal point  x-rot      y-rot       z-rot       x-rot vel   y-rot vel   z-rot vel   x-rot acc   y-rot acc   z-rot acc
    22626 -9.73968E-05-2.01160E-06-1.34503E-06-1.36879E-04-2.53287E-07 1.75478E-06-7.61450E-05-2.97604E-06 3.23733E-05



 n o d a l   p r i n t   o u t   f o r   t i m e  s t e p    3001                              ( at time 1.4998499E+00 )

 nodal point  x-disp     y-disp      z-disp      x-vel       y-vel       z-vel      x-accl      y-accl      z-accl      x-coor      y-coor      z-coor
    22626 -2.96328E-04 2.95911E-02-5.77242E-02-4.49184E-04 3.72783E-02-7.39888E-02 8.93228E-06 2.76066E-02-7.32030E-02 4.65908E+00-2.81612E+01-4.50394E+01



 n o d a l   p r i n t   o u t   f o r   t i m e  s t e p    3001                              ( at time 1.4998499E+00 )

 nodal point  x-rot      y-rot       z-rot       x-rot vel   y-rot vel   z-rot vel   x-rot acc   y-rot acc   z-rot acc
    22626 -1.10708E-04-2.03107E-06-1.27032E-06-1.28805E-04-9.99918E-07-1.70179E-06 8.07479E-05-7.46706E-06-3.45692E-05



 n o d a l   p r i n t   o u t   f o r   t i m e  s t e p    3201                              ( at time 1.5998399E+00 )

 nodal point  x-disp     y-disp      z-disp      x-vel       y-vel       z-vel      x-accl      y-accl      z-accl      x-coor      y-coor      z-coor
    22626 -3.60123E-04 3.34891E-02-6.54465E-02-5.83327E-04 4.05411E-02-7.97018E-02-1.34157E-03 3.26313E-02-5.71361E-02 4.65901E+00-2.81573E+01-4.50472E+01



 n o d a l   p r i n t   o u t   f o r   t i m e  s t e p    3201                              ( at time 1.5998399E+00 )

 nodal point  x-rot      y-rot       z-rot       x-rot vel   y-rot vel   z-rot vel   x-rot acc   y-rot acc   z-rot acc
    22626 -1.23312E-04-2.14862E-06-1.09731E-06-1.34635E-04-2.92697E-06 3.14933E-06-5.83044E-05-1.92724E-05 4.85161E-05



 n o d a l   p r i n t   o u t   f o r   t i m e  s t e p    3401                              ( at time 1.6998299E+00 )

 nodal point  x-disp     y-disp      z-disp      x-vel       y-vel       z-vel      x-accl      y-accl      z-accl      x-coor      y-coor      z-coor
    22626 -4.21704E-04 3.76416E-02-7.35822E-02-7.28501E-04 4.22408E-02-8.25939E-02-1.45188E-03 1.69993E-02-2.89243E-02 4.65895E+00-2.81532E+01-4.50553E+01



 n o d a l   p r i n t   o u t   f o r   t i m e  s t e p    3401                              ( at time 1.6998299E+00 )

 nodal point  x-rot      y-rot       z-rot       x-rot vel   y-rot vel   z-rot vel   x-rot acc   y-rot acc   z-rot acc
    22626 -1.37610E-04-2.15270E-06-9.08878E-07-1.47703E-04 1.57088E-06 3.96172E-06-1.30701E-04 4.49830E-05 8.12475E-06



 n o d a l   p r i n t   o u t   f o r   t i m e  s t e p    3601                              ( at time 1.7998199E+00 )

 nodal point  x-disp     y-disp      z-disp      x-vel       y-vel       z-vel      x-accl      y-accl      z-accl      x-coor      y-coor      z-coor
    22626 -4.84832E-04 4.19001E-02-8.19598E-02-5.10191E-04 4.32826E-02-8.48740E-02 2.18331E-03 1.04184E-02-2.28030E-02 4.65889E+00-2.81489E+01-4.50637E+01



 n o d a l   p r i n t   o u t   f o r   t i m e  s t e p    3601                              ( at time 1.7998199E+00 )

 nodal point  x-rot      y-rot       z-rot       x-rot vel   y-rot vel   z-rot vel   x-rot acc   y-rot acc   z-rot acc
    22626 -1.52822E-04-2.06434E-06-7.77508E-07-1.49848E-04 1.49444E-06-1.50994E-06-2.14499E-05-7.64518E-07-5.47222E-05



 n o d a l   p r i n t   o u t   f o r   t i m e  s t e p    3801                              ( at time 1.8998099E+00 )

 nodal point  x-disp     y-disp      z-disp      x-vel       y-vel       z-vel      x-accl      y-accl      z-accl      x-coor      y-coor      z-coor
    22626 -5.44113E-04 4.63775E-02-9.06358E-02-5.22033E-04 4.60782E-02-8.88697E-02-1.18428E-04 2.79595E-02-3.99609E-02 4.65883E+00-2.81445E+01-4.50724E+01



 n o d a l   p r i n t   o u t   f o r   t i m e  s t e p    3801                              ( at time 1.8998099E+00 )

 nodal point  x-rot      y-rot       z-rot       x-rot vel   y-rot vel   z-rot vel   x-rot acc   y-rot acc   z-rot acc
    22626 -1.67676E-04-1.85524E-06-6.47689E-07-1.49787E-04-1.48038E-06-4.59827E-07 6.07021E-07-2.97512E-05 1.05022E-05



 n o d a l   p r i n t   o u t   f o r   t i m e  s t e p    4001                              ( at time 1.9997999E+00 )

 nodal point  x-disp     y-disp      z-disp      x-vel       y-vel       z-vel      x-accl      y-accl      z-accl      x-coor      y-coor      z-coor
    22626 -5.94964E-04 5.10271E-02-9.97453E-02-5.47644E-04 4.71669E-02-9.31141E-02-2.56132E-04 1.08875E-02-4.24478E-02 4.65878E+00-2.81398E+01-4.50815E+01



 n o d a l   p r i n t   o u t   f o r   t i m e  s t e p    4001                              ( at time 1.9997999E+00 )

 nodal point  x-rot      y-rot       z-rot       x-rot vel   y-rot vel   z-rot vel   x-rot acc   y-rot acc   z-rot acc
    22626 -1.82769E-04-2.09017E-06-6.98113E-07-1.56207E-04-4.64231E-06-1.42449E-07-6.42044E-05-3.16225E-05 3.17410E-06



 n o d a l   p r i n t   o u t   f o r   t i m e  s t e p    4201                              ( at time 2.0997899E+00 )

 nodal point  x-disp     y-disp      z-disp      x-vel       y-vel       z-vel      x-accl      y-accl      z-accl      x-coor      y-coor      z-coor
    22626 -6.48991E-04 5.57836E-02-1.09162E-01-5.56265E-04 4.81936E-02-9.53026E-02-8.62217E-05 1.02680E-02-2.18874E-02 4.65873E+00-2.81350E+01-4.50909E+01



 n o d a l   p r i n t   o u t   f o r   t i m e  s t e p    4201                              ( at time 2.0997899E+00 )

 nodal point  x-rot      y-rot       z-rot       x-rot vel   y-rot vel   z-rot vel   x-rot acc   y-rot acc   z-rot acc
    22626 -1.97948E-04-2.48111E-06-8.61570E-07-1.49898E-04-1.56349E-06 2.03632E-06 6.30954E-05 3.07914E-05 2.17899E-05



 n o d a l   p r i n t   o u t   f o r   t i m e  s t e p    4401                              ( at time 2.1997798E+00 )

 nodal point  x-disp     y-disp      z-disp      x-vel       y-vel       z-vel      x-accl      y-accl      z-accl      x-coor      y-coor      z-coor
    22626 -7.07757E-04 6.06673E-02-1.18761E-01-4.96605E-04 4.91594E-02-9.67349E-02 5.96660E-04 9.65935E-03-1.43247E-02 4.65867E+00-2.81302E+01-4.51005E+01



 n o d a l   p r i n t   o u t   f o r   t i m e  s t e p    4401                              ( at time 2.1997798E+00 )

 nodal point  x-rot      y-rot       z-rot       x-rot vel   y-rot vel   z-rot vel   x-rot acc   y-rot acc   z-rot acc
    22626 -2.13318E-04-2.58854E-06-8.59582E-07-1.59147E-04-1.55225E-06-1.08297E-06-9.24977E-05 1.12415E-07-3.11960E-05



 n o d a l   p r i n t   o u t   f o r   t i m e  s t e p    4601                              ( at time 2.2997698E+00 )

 nodal point  x-disp     y-disp      z-disp      x-vel       y-vel       z-vel      x-accl      y-accl      z-accl      x-coor      y-coor      z-coor
    22626 -7.62879E-04 6.56143E-02-1.28510E-01-6.46105E-04 5.01853E-02-9.87411E-02-1.49514E-03 1.02602E-02-2.00637E-02 4.65861E+00-2.81252E+01-4.51102E+01



 n o d a l   p r i n t   o u t   f o r   t i m e  s t e p    4601                              ( at time 2.2997698E+00 )

 nodal point  x-rot      y-rot       z-rot       x-rot vel   y-rot vel   z-rot vel   x-rot acc   y-rot acc   z-rot acc
    22626 -2.29837E-04-2.52140E-06-8.67440E-07-1.61616E-04 8.51375E-07-9.46649E-07-2.46903E-05 2.40386E-05 1.36336E-06



 n o d a l   p r i n t   o u t   f o r   t i m e  s t e p    4801                              ( at time 2.3997598E+00 )

 nodal point  x-disp     y-disp      z-disp      x-vel       y-vel       z-vel      x-accl      y-accl      z-accl      x-coor      y-coor      z-coor
    22626 -8.37312E-04 7.07390E-02-1.38609E-01-7.68371E-04 5.20312E-02-1.03262E-01-1.22279E-03 1.84604E-02-4.52186E-02 4.65854E+00-2.81201E+01-4.51203E+01



 n o d a l   p r i n t   o u t   f o r   t i m e  s t e p    4801                              ( at time 2.3997598E+00 )

 nodal point  x-rot      y-rot       z-rot       x-rot vel   y-rot vel   z-rot vel   x-rot acc   y-rot acc   z-rot acc
    22626 -2.45591E-04-2.51366E-06-5.95317E-07-1.55159E-04-1.29396E-08 4.20093E-06 6.45724E-05-8.64402E-06 5.14810E-05



 n o d a l   p r i n t   o u t   f o r   t i m e  s t e p    5001                              ( at time 2.4997498E+00 )

 nodal point  x-disp     y-disp      z-disp      x-vel       y-vel       z-vel      x-accl      y-accl      z-accl      x-coor      y-coor      z-coor
    22626 -9.18567E-04 7.60401E-02-1.49106E-01-9.21773E-04 5.34352E-02-1.05956E-01-1.53418E-03 1.40417E-02-2.69344E-02 4.65846E+00-2.81148E+01-4.51308E+01



 n o d a l   p r i n t   o u t   f o r   t i m e  s t e p    5001                              ( at time 2.4997498E+00 )

 nodal point  x-rot      y-rot       z-rot       x-rot vel   y-rot vel   z-rot vel   x-rot acc   y-rot acc   z-rot acc
    22626 -2.61160E-04-2.39282E-06-3.32373E-07-1.54718E-04 1.70920E-06 4.39785E-06 4.41374E-06 1.72231E-05 1.96933E-06



 n o d a l   p r i n t   o u t   f o r   t i m e  s t e p    5201                              ( at time 2.5997398E+00 )

 nodal point  x-disp     y-disp      z-disp      x-vel       y-vel       z-vel      x-accl      y-accl      z-accl      x-coor      y-coor      z-coor
    22626 -1.00929E-03 8.13921E-02-1.59710E-01-9.90471E-04 5.34904E-02-1.06026E-01-6.87041E-04 5.51809E-04-7.02437E-04 4.65837E+00-2.81094E+01-4.51414E+01



 n o d a l   p r i n t   o u t   f o r   t i m e  s t e p    5201                              ( at time 2.5997398E+00 )

 nodal point  x-rot      y-rot       z-rot       x-rot vel   y-rot vel   z-rot vel   x-rot acc   y-rot acc   z-rot acc
    22626 -2.76671E-04-2.06536E-06 5.93752E-08-1.51725E-04 5.11463E-06 4.94774E-06 2.99324E-05 3.40578E-05 5.49943E-06



 n o d a l   p r i n t   o u t   f o r   t i m e  s t e p    5401                              ( at time 2.6997298E+00 )

 nodal point  x-disp     y-disp      z-disp      x-vel       y-vel       z-vel      x-accl      y-accl      z-accl      x-coor      y-coor      z-coor
    22626 -1.10744E-03 8.67281E-02-1.70314E-01-8.16268E-04 5.35649E-02-1.06228E-01 1.74219E-03 7.45504E-04-2.02311E-03 4.65827E+00-2.81041E+01-4.51520E+01



 n o d a l   p r i n t   o u t   f o r   t i m e  s t e p    5401                              ( at time 2.6997298E+00 )

 nodal point  x-rot      y-rot       z-rot       x-rot vel   y-rot vel   z-rot vel   x-rot acc   y-rot acc   z-rot acc
    22626 -2.92386E-04-1.62690E-06 5.84258E-07-1.63023E-04 5.35792E-06 3.54954E-06-1.12989E-04 2.43315E-06-1.39833E-05



 n o d a l   p r i n t   o u t   f o r   t i m e  s t e p    5601                              ( at time 2.7997198E+00 )

 nodal point  x-disp     y-disp      z-disp      x-vel       y-vel       z-vel      x-accl      y-accl      z-accl      x-coor      y-coor      z-coor
    22626 -1.19449E-03 9.21212E-02-1.80982E-01-8.86356E-04 5.42813E-02-1.07486E-01-7.00950E-04 7.16427E-03-1.25833E-02 4.65818E+00-2.80987E+01-4.51627E+01



 n o d a l   p r i n t   o u t   f o r   t i m e  s t e p    5601                              ( at time 2.7997198E+00 )

 nodal point  x-rot      y-rot       z-rot       x-rot vel   y-rot vel   z-rot vel   x-rot acc   y-rot acc   z-rot acc
    22626 -3.07871E-04-1.11488E-06 1.00088E-06-1.44682E-04 3.14390E-06 4.44449E-06 1.83433E-04-2.21425E-05 8.95036E-06



 n o d a l   p r i n t   o u t   f o r   t i m e  s t e p    5801                              ( at time 2.8997098E+00 )

 nodal point  x-disp     y-disp      z-disp      x-vel       y-vel       z-vel      x-accl      y-accl      z-accl      x-coor      y-coor      z-coor
    22626 -1.27569E-03 9.75420E-02-1.91832E-01-7.38295E-04 5.41897E-02-1.09469E-01 1.48076E-03-9.16030E-04-1.98319E-02 4.65810E+00-2.80933E+01-4.51736E+01



 n o d a l   p r i n t   o u t   f o r   t i m e  s t e p    5801                              ( at time 2.8997098E+00 )

 nodal point  x-rot      y-rot       z-rot       x-rot vel   y-rot vel   z-rot vel   x-rot acc   y-rot acc   z-rot acc
    22626 -3.21822E-04-9.20863E-07 1.30034E-06-1.40102E-04 5.59746E-07 3.60609E-06 4.57975E-05-2.58442E-05-8.38484E-06



 n o d a l   p r i n t   o u t   f o r   t i m e  s t e p    6001                              ( at time 2.9996998E+00 )

 nodal point  x-disp     y-disp      z-disp      x-vel       y-vel       z-vel      x-accl      y-accl      z-accl      x-coor      y-coor      z-coor
    22626 -1.35925E-03 1.02933E-01-2.02795E-01-7.26886E-04 5.35797E-02-1.09335E-01 1.14101E-04-6.10062E-03 1.34891E-03 4.65802E+00-2.80879E+01-4.51845E+01



 n o d a l   p r i n t   o u t   f o r   t i m e  s t e p    6001                              ( at time 2.9996998E+00 )

 nodal point  x-rot      y-rot       z-rot       x-rot vel   y-rot vel   z-rot vel   x-rot acc   y-rot acc   z-rot acc
    22626 -3.36597E-04-8.81869E-07 1.48359E-06-1.50113E-04 3.59220E-07 2.42902E-06-1.00114E-04-2.00546E-06-1.17719E-05



 n o d a l   p r i n t   o u t   f o r   t i m e  s t e p    6201                              ( at time 3.0996898E+00 )

 nodal point  x-disp     y-disp      z-disp      x-vel       y-vel       z-vel      x-accl      y-accl      z-accl      x-coor      y-coor      z-coor
    22626 -1.42814E-03 1.08282E-01-2.13683E-01-7.44792E-04 5.35992E-02-1.08915E-01-1.79078E-04 1.95560E-04 4.19778E-03 4.65795E+00-2.80825E+01-4.51954E+01



 n o d a l   p r i n t   o u t   f o r   t i m e  s t e p    6201                              ( at time 3.0996898E+00 )

 nodal point  x-rot      y-rot       z-rot       x-rot vel   y-rot vel   z-rot vel   x-rot acc   y-rot acc   z-rot acc
    22626 -3.51634E-04-8.08255E-07 1.74272E-06-1.49272E-04 7.37726E-08 4.50333E-06 8.40909E-06-2.85476E-06 2.07453E-05



 n o d a l   p r i n t   o u t   f o r   t i m e  s t e p    6401                              ( at time 3.1996798E+00 )

 nodal point  x-disp     y-disp      z-disp      x-vel       y-vel       z-vel      x-accl      y-accl      z-accl      x-coor      y-coor      z-coor
    22626 -1.49383E-03 1.13660E-01-2.24665E-01-6.50105E-04 5.40024E-02-1.10854E-01 9.46971E-04 4.03202E-03-1.93961E-02 4.65788E+00-2.80772E+01-4.52064E+01



 n o d a l   p r i n t   o u t   f o r   t i m e  s t e p    6401                              ( at time 3.1996798E+00 )

 nodal point  x-rot      y-rot       z-rot       x-rot vel   y-rot vel   z-rot vel   x-rot acc   y-rot acc   z-rot acc
    22626 -3.66475E-04-6.83451E-07 1.89234E-06-1.42031E-04 1.55425E-06 1.22147E-06 7.24165E-05 1.48062E-05-3.28219E-05



 n o d a l   p r i n t   o u t   f o r   t i m e  s t e p    6601                              ( at time 3.2996698E+00 )

 nodal point  x-disp     y-disp      z-disp      x-vel       y-vel       z-vel      x-accl      y-accl      z-accl      x-coor      y-coor      z-coor
    22626 -1.57200E-03 1.19081E-01-2.35856E-01-8.25205E-04 5.43035E-02-1.12737E-01-1.75118E-03 3.01105E-03-1.88310E-02 4.65780E+00-2.80717E+01-4.52176E+01



 n o d a l   p r i n t   o u t   f o r   t i m e  s t e p    6601                              ( at time 3.2996698E+00 )

 nodal point  x-rot      y-rot       z-rot       x-rot vel   y-rot vel   z-rot vel   x-rot acc   y-rot acc   z-rot acc
    22626 -3.80619E-04-5.12182E-07 2.15064E-06-1.37897E-04 2.44040E-06 2.68749E-06 4.13385E-05 8.86241E-06 1.46617E-05



 n o d a l   p r i n t   o u t   f o r   t i m e  s t e p    6801                              ( at time 3.3996598E+00 )

 nodal point  x-disp     y-disp      z-disp      x-vel       y-vel       z-vel      x-accl      y-accl      z-accl      x-coor      y-coor      z-coor
    22626 -1.65943E-03 1.24510E-01-2.47149E-01-9.66806E-04 5.40626E-02-1.13022E-01-1.41614E-03-2.40868E-03-2.85192E-03 4.65772E+00-2.80663E+01-4.52289E+01



 n o d a l   p r i n t   o u t   f o r   t i m e  s t e p    6801                              ( at time 3.3996598E+00 )

 nodal point  x-rot      y-rot       z-rot       x-rot vel   y-rot vel   z-rot vel   x-rot acc   y-rot acc   z-rot acc
    22626 -3.94342E-04-3.65708E-07 2.50178E-06-1.36821E-04 3.62509E-06 6.16524E-06 1.07669E-05 1.18481E-05 3.47809E-05



 n o d a l   p r i n t   o u t   f o r   t i m e  s t e p    7001                              ( at time 3.4996498E+00 )

 nodal point  x-disp     y-disp      z-disp      x-vel       y-vel       z-vel      x-accl      y-accl      z-accl      x-coor      y-coor      z-coor
    22626 -1.75274E-03 1.29862E-01-2.58387E-01-9.62295E-04 5.30984E-02-1.11673E-01 4.51103E-05-9.64292E-03 1.34938E-02 4.65762E+00-2.80610E+01-4.52401E+01



 n o d a l   p r i n t   o u t   f o r   t i m e  s t e p    7001                              ( at time 3.4996498E+00 )

 nodal point  x-rot      y-rot       z-rot       x-rot vel   y-rot vel   z-rot vel   x-rot acc   y-rot acc   z-rot acc
    22626 -4.08262E-04-2.79819E-08 2.95349E-06-1.37159E-04 4.57147E-06 4.24359E-06-3.38192E-06 9.46472E-06-1.92184E-05



 n o d a l   p r i n t   o u t   f o r   t i m e  s t e p    7201                              ( at time 3.5996397E+00 )

 nodal point  x-disp     y-disp      z-disp      x-vel       y-vel       z-vel      x-accl      y-accl      z-accl      x-coor      y-coor      z-coor
    22626 -1.84497E-03 1.35128E-01-2.69483E-01-8.09946E-04 5.20845E-02-1.10685E-01 1.52364E-03-1.01409E-02 9.87875E-03 4.65753E+00-2.80557E+01-4.52512E+01



 n o d a l   p r i n t   o u t   f o r   t i m e  s t e p    7201                              ( at time 3.5996397E+00 )

 nodal point  x-rot      y-rot       z-rot       x-rot vel   y-rot vel   z-rot vel   x-rot acc   y-rot acc   z-rot acc
    22626 -4.21651E-04 6.05652E-07 3.50967E-06-1.34580E-04 6.00066E-06 3.42407E-06 2.57883E-05 1.42934E-05-8.19608E-06



 n o d a l   p r i n t   o u t   f o r   t i m e  s t e p    7401                              ( at time 3.6996297E+00 )

 nodal point  x-disp     y-disp      z-disp      x-vel       y-vel       z-vel      x-accl      y-accl      z-accl      x-coor      y-coor      z-coor
    22626 -1.92953E-03 1.40290E-01-2.80549E-01-8.08292E-04 5.11595E-02-1.10731E-01 1.65384E-05-9.25092E-03-4.61982E-04 4.65745E+00-2.80505E+01-4.52623E+01



 n o d a l   p r i n t   o u t   f o r   t i m e  s t e p    7401                              ( at time 3.6996297E+00 )

 nodal point  x-rot      y-rot       z-rot       x-rot vel   y-rot vel   z-rot vel   x-rot acc   y-rot acc   z-rot acc
    22626 -4.34730E-04 1.09318E-06 3.92428E-06-1.26848E-04 2.88459E-06 3.65799E-06 7.73339E-05-3.11638E-05 2.33945E-06



 n o d a l   p r i n t   o u t   f o r   t i m e  s t e p    7601                              ( at time 3.7996197E+00 )

 nodal point  x-disp     y-disp      z-disp      x-vel       y-vel       z-vel      x-accl      y-accl      z-accl      x-coor      y-coor      z-coor
    22626 -2.00950E-03 1.45339E-01-2.91589E-01-7.72379E-04 4.97874E-02-1.09912E-01 3.59173E-04-1.37220E-02 8.19043E-03 4.65737E+00-2.80455E+01-4.52733E+01



 n o d a l   p r i n t   o u t   f o r   t i m e  s t e p    7601                              ( at time 3.7996197E+00 )

 nodal point  x-rot      y-rot       z-rot       x-rot vel   y-rot vel   z-rot vel   x-rot acc   y-rot acc   z-rot acc
    22626 -4.46960E-04 1.21464E-06 4.24538E-06-1.23890E-04-6.64850E-08 2.01039E-06 2.95773E-05-2.95138E-05-1.64776E-05



 n o d a l   p r i n t   o u t   f o r   t i m e  s t e p    7801                              ( at time 3.8996097E+00 )

 nodal point  x-disp     y-disp      z-disp      x-vel       y-vel       z-vel      x-accl      y-accl      z-accl      x-coor      y-coor      z-coor
    22626 -2.07528E-03 1.50235E-01-3.02490E-01-5.77436E-04 4.80377E-02-1.07941E-01 1.94962E-03-1.74985E-02 1.97145E-02 4.65730E+00-2.80406E+01-4.52842E+01



 n o d a l   p r i n t   o u t   f o r   t i m e  s t e p    7801                              ( at time 3.8996097E+00 )

 nodal point  x-rot      y-rot       z-rot       x-rot vel   y-rot vel   z-rot vel   x-rot acc   y-rot acc   z-rot acc
    22626 -4.59353E-04 1.21466E-06 4.43735E-06-1.29397E-04 1.17386E-06 1.77897E-06-5.50747E-05 1.24047E-05-2.31450E-06



 n o d a l   p r i n t   o u t   f o r   t i m e  s t e p    8001                              ( at time 3.9995997E+00 )

 nodal point  x-disp     y-disp      z-disp      x-vel       y-vel       z-vel      x-accl      y-accl      z-accl      x-coor      y-coor      z-coor
    22626 -2.12376E-03 1.54945E-01-3.13147E-01-4.50557E-04 4.63968E-02-1.05333E-01 1.26892E-03-1.64104E-02 2.60824E-02 4.65725E+00-2.80359E+01-4.52949E+01



 n o d a l   p r i n t   o u t   f o r   t i m e  s t e p    8001                              ( at time 3.9995997E+00 )

 nodal point  x-rot      y-rot       z-rot       x-rot vel   y-rot vel   z-rot vel   x-rot acc   y-rot acc   z-rot acc
    22626 -4.71972E-04 1.20313E-06 4.47567E-06-1.20277E-04-2.11365E-07 1.48104E-06 9.12131E-05-1.38537E-05-2.97954E-06



 n o d a l   p r i n t   o u t   f o r   t i m e  s t e p    8201                              ( at time 4.0995897E+00 )

 nodal point  x-disp     y-disp      z-disp      x-vel       y-vel       z-vel      x-accl      y-accl      z-accl      x-coor      y-coor      z-coor
    22626 -2.17225E-03 1.59503E-01-3.23623E-01-4.41809E-04 4.47512E-02-1.04352E-01 8.74796E-05-1.64578E-02 9.81621E-03 4.65720E+00-2.80313E+01-4.53053E+01



 n o d a l   p r i n t   o u t   f o r   t i m e  s t e p    8201                              ( at time 4.0995897E+00 )

 nodal point  x-rot      y-rot       z-rot       x-rot vel   y-rot vel   z-rot vel   x-rot acc   y-rot acc   z-rot acc
    22626 -4.83068E-04 1.14261E-06 4.53743E-06-1.05889E-04-8.86812E-07 1.14231E-06 1.43897E-04-6.75514E-06-3.38767E-06



 n o d a l   p r i n t   o u t   f o r   t i m e  s t e p    8401                              ( at time 4.1995797E+00 )

 nodal point  x-disp     y-disp      z-disp      x-vel       y-vel       z-vel      x-accl      y-accl      z-accl      x-coor      y-coor      z-coor
    22626 -2.22318E-03 1.63912E-01-3.33997E-01-6.03059E-04 4.34076E-02-1.02912E-01-1.61266E-03-1.34372E-02 1.43964E-02 4.65715E+00-2.80269E+01-4.53157E+01



 n o d a l   p r i n t   o u t   f o r   t i m e  s t e p    8401                              ( at time 4.1995797E+00 )

 nodal point  x-rot      y-rot       z-rot       x-rot vel   y-rot vel   z-rot vel   x-rot acc   y-rot acc   z-rot acc
    22626 -4.93525E-04 1.07974E-06 4.53885E-06-1.01732E-04 3.79391E-07 5.76255E-07 4.15687E-05 1.26633E-05-5.66111E-06



 n o d a l   p r i n t   o u t   f o r   t i m e  s t e p    8601                              ( at time 4.2995697E+00 )

 nodal point  x-disp     y-disp      z-disp      x-vel       y-vel       z-vel      x-accl      y-accl      z-accl      x-coor      y-coor      z-coor
    22626 -2.28461E-03 1.68169E-01-3.44179E-01-6.27133E-04 4.15322E-02-1.00478E-01-2.40761E-04-1.87567E-02 2.43431E-02 4.65709E+00-2.80227E+01-4.53259E+01



 n o d a l   p r i n t   o u t   f o r   t i m e  s t e p    8601                              ( at time 4.2995697E+00 )

 nodal point  x-rot      y-rot       z-rot       x-rot vel   y-rot vel   z-rot vel   x-rot acc   y-rot acc   z-rot acc
    22626 -5.03273E-04 1.16211E-06 4.76521E-06-9.19071E-05 2.37224E-06 2.95346E-06 9.82613E-05 1.99305E-05 2.37745E-05



 n o d a l   p r i n t   o u t   f o r   t i m e  s t e p    8801                              ( at time 4.3995597E+00 )

 nodal point  x-disp     y-disp      z-disp      x-vel       y-vel       z-vel      x-accl      y-accl      z-accl      x-coor      y-coor      z-coor
    22626 -2.35003E-03 1.72184E-01-3.54042E-01-5.56370E-04 3.88247E-02-9.68472E-02 7.07706E-04-2.70777E-02 3.63134E-02 4.65702E+00-2.80186E+01-4.53358E+01



 n o d a l   p r i n t   o u t   f o r   t i m e  s t e p    8801                              ( at time 4.3995597E+00 )

 nodal point  x-rot      y-rot       z-rot       x-rot vel   y-rot vel   z-rot vel   x-rot acc   y-rot acc   z-rot acc
    22626 -5.12223E-04 1.49588E-06 5.03948E-06-8.62509E-05 3.72338E-06 2.95611E-06 5.65671E-05 1.35128E-05 2.64508E-08



 n o d a l   p r i n t   o u t   f o r   t i m e  s t e p    9001                              ( at time 4.4995497E+00 )

 nodal point  x-disp     y-disp      z-disp      x-vel       y-vel       z-vel      x-accl      y-accl      z-accl      x-coor      y-coor      z-coor
    22626 -2.41217E-03 1.75981E-01-3.63600E-01-6.32644E-04 3.72350E-02-9.47255E-02-7.62817E-04-1.58976E-02 2.12187E-02 4.65696E+00-2.80148E+01-4.53453E+01



 n o d a l   p r i n t   o u t   f o r   t i m e  s t e p    9001                              ( at time 4.4995497E+00 )

 nodal point  x-rot      y-rot       z-rot       x-rot vel   y-rot vel   z-rot vel   x-rot acc   y-rot acc   z-rot acc
    22626 -5.20994E-04 1.90206E-06 5.40975E-06-8.32514E-05 2.47249E-06 3.05207E-06 2.99984E-05-1.25101E-05 9.59757E-07



 n o d a l   p r i n t   o u t   f o r   t i m e  s t e p    9201                              ( at time 4.5995397E+00 )

 nodal point  x-disp     y-disp      z-disp      x-vel       y-vel       z-vel      x-accl      y-accl      z-accl      x-coor      y-coor      z-coor
    22626 -2.46501E-03 1.79637E-01-3.72998E-01-4.37030E-04 3.59266E-02-9.31543E-02 1.95634E-03-1.30854E-02 1.57135E-02 4.65691E+00-2.80112E+01-4.53547E+01



 n o d a l   p r i n t   o u t   f o r   t i m e  s t e p    9201                              ( at time 4.5995397E+00 )

 nodal point  x-rot      y-rot       z-rot       x-rot vel   y-rot vel   z-rot vel   x-rot acc   y-rot acc   z-rot acc
    22626 -5.28599E-04 2.16720E-06 5.71938E-06-6.93773E-05 1.02663E-06 2.98668E-06 1.38755E-04-1.44601E-05-6.54031E-07



 n o d a l   p r i n t   o u t   f o r   t i m e  s t e p    9401                              ( at time 4.6995297E+00 )

 nodal point  x-disp     y-disp      z-disp      x-vel       y-vel       z-vel      x-accl      y-accl      z-accl      x-coor      y-coor      z-coor
    22626 -2.50110E-03 1.83138E-01-3.82181E-01-2.36372E-04 3.42165E-02-9.04940E-02 2.00678E-03-1.71031E-02 2.66063E-02 4.65687E+00-2.80077E+01-4.53639E+01



 n o d a l   p r i n t   o u t   f o r   t i m e  s t e p    9401                              ( at time 4.6995297E+00 )

 nodal point  x-rot      y-rot       z-rot       x-rot vel   y-rot vel   z-rot vel   x-rot acc   y-rot acc   z-rot acc
    22626 -5.35603E-04 2.31946E-06 6.09957E-06-7.18898E-05 2.85605E-06 6.82733E-06-2.51273E-05 1.82960E-05 3.84104E-05



 n o d a l   p r i n t   o u t   f o r   t i m e  s t e p    9601                              ( at time 4.7995197E+00 )

 nodal point  x-disp     y-disp      z-disp      x-vel       y-vel       z-vel      x-accl      y-accl      z-accl      x-coor      y-coor      z-coor
    22626 -2.50611E-03 1.86487E-01-3.91077E-01 6.59563E-05 3.30023E-02-8.73528E-02 3.02359E-03-1.21430E-02 3.14150E-02 4.65687E+00-2.80043E+01-4.53728E+01



 n o d a l   p r i n t   o u t   f o r   t i m e  s t e p    9601                              ( at time 4.7995197E+00 )

 nodal point  x-rot      y-rot       z-rot       x-rot vel   y-rot vel   z-rot vel   x-rot acc   y-rot acc   z-rot acc
    22626 -5.42653E-04 2.44934E-06 6.73763E-06-6.72602E-05 1.74934E-06 5.39298E-06 4.63011E-05-1.10682E-05-1.43449E-05



 n o d a l   p r i n t   o u t   f o r   t i m e  s t e p    9801                              ( at time 4.8995097E+00 )

 nodal point  x-disp     y-disp      z-disp      x-vel       y-vel       z-vel      x-accl      y-accl      z-accl      x-coor      y-coor      z-coor
    22626 -2.50754E-03 1.89762E-01-3.99669E-01-2.17193E-04 3.26303E-02-8.45701E-02-2.83178E-03-3.72086E-03 2.78295E-02 4.65687E+00-2.80011E+01-4.53814E+01



 n o d a l   p r i n t   o u t   f o r   t i m e  s t e p    9801                              ( at time 4.8995097E+00 )

 nodal point  x-rot      y-rot       z-rot       x-rot vel   y-rot vel   z-rot vel   x-rot acc   y-rot acc   z-rot acc
    22626 -5.48869E-04 2.30909E-06 6.70178E-06-5.29767E-05-2.55959E-06-3.25088E-06 1.42849E-04-4.30937E-05-8.64474E-05



 n o d a l   p r i n t   o u t   f o r   t i m e  s t e p   10001                              ( at time 4.9994997E+00 )

 nodal point  x-disp     y-disp      z-disp      x-vel       y-vel       z-vel      x-accl      y-accl      z-accl      x-coor      y-coor      z-coor
    22626 -2.51723E-03 1.93014E-01-4.08053E-01 1.43953E-04 3.27682E-02-8.32993E-02 3.61181E-03 1.37991E-03 1.27094E-02 4.65686E+00-2.79978E+01-4.53898E+01



 n o d a l   p r i n t   o u t   f o r   t i m e  s t e p   10001                              ( at time 4.9994997E+00 )

 nodal point  x-rot      y-rot       z-rot       x-rot vel   y-rot vel   z-rot vel   x-rot acc   y-rot acc   z-rot acc
    22626 -5.53708E-04 2.27125E-06 6.62914E-06-4.24284E-05 1.88913E-06 1.61885E-06 1.05492E-04 4.44915E-05 4.87020E-05



 n o d a l   p r i n t   o u t   f o r   t i m e  s t e p   10202                              ( at time 5.0999896E+00 )

 nodal point  x-disp     y-disp      z-disp      x-vel       y-vel       z-vel      x-accl      y-accl      z-accl      x-coor      y-coor      z-coor
    22626 -2.49221E-03 1.96344E-01-4.16362E-01 2.01238E-04 3.34512E-02-8.18728E-02 5.70051E-04 6.79660E-03 1.41957E-02 4.65688E+00-2.79945E+01-4.53981E+01



 n o d a l   p r i n t   o u t   f o r   t i m e  s t e p   10202                              ( at time 5.0999896E+00 )

 nodal point  x-rot      y-rot       z-rot       x-rot vel   y-rot vel   z-rot vel   x-rot acc   y-rot acc   z-rot acc
    22626 -5.58051E-04 2.48600E-06 6.96563E-06-4.24085E-05 2.46773E-06 2.01378E-06 1.98136E-07 5.75781E-06 3.93001E-06



 n o d a l   p r i n t   o u t   f o r   t i m e  s t e p   10402                              ( at time 5.1999796E+00 )

 nodal point  x-disp     y-disp      z-disp      x-vel       y-vel       z-vel      x-accl      y-accl      z-accl      x-coor      y-coor      z-coor
    22626 -2.50322E-03 1.99749E-01-4.24414E-01-3.61194E-04 3.45707E-02-7.89840E-02-5.62486E-03 1.11961E-02 2.88910E-02 4.65687E+00-2.79911E+01-4.54061E+01



 n o d a l   p r i n t   o u t   f o r   t i m e  s t e p   10402                              ( at time 5.1999796E+00 )

 nodal point  x-rot      y-rot       z-rot       x-rot vel   y-rot vel   z-rot vel   x-rot acc   y-rot acc   z-rot acc
    22626 -5.62854E-04 2.47135E-06 6.93318E-06-5.35136E-05 3.19129E-07-2.58292E-06-1.11062E-04-2.14881E-05-4.59714E-05



 n o d a l   p r i n t   o u t   f o r   t i m e  s t e p   10602                              ( at time 5.2999696E+00 )

 nodal point  x-disp     y-disp      z-disp      x-vel       y-vel       z-vel      x-accl      y-accl      z-accl      x-coor      y-coor      z-coor
    22626 -2.51715E-03 2.03271E-01-4.32150E-01 2.20092E-04 3.62066E-02-7.61680E-02 5.81344E-03 1.63604E-02 2.81621E-02 4.65686E+00-2.79876E+01-4.54139E+01



 n o d a l   p r i n t   o u t   f o r   t i m e  s t e p   10602                              ( at time 5.2999696E+00 )

 nodal point  x-rot      y-rot       z-rot       x-rot vel   y-rot vel   z-rot vel   x-rot acc   y-rot acc   z-rot acc
    22626 -5.68690E-04 2.78426E-06 7.01712E-06-6.42049E-05 8.29157E-06 5.32617E-06-1.06923E-04 7.97325E-05 7.90989E-05



 n o d a l   p r i n t   o u t   f o r   t i m e  s t e p   10802                              ( at time 5.3999596E+00 )

 nodal point  x-disp     y-disp      z-disp      x-vel       y-vel       z-vel      x-accl      y-accl      z-accl      x-coor      y-coor      z-coor
    22626 -2.48687E-03 2.07076E-01-4.39669E-01 1.82397E-04 3.97788E-02-7.43831E-02-3.76986E-04 3.57254E-02 1.78509E-02 4.65689E+00-2.79838E+01-4.54214E+01



 n o d a l   p r i n t   o u t   f o r   t i m e  s t e p   10802                              ( at time 5.3999596E+00 )

 nodal point  x-rot      y-rot       z-rot       x-rot vel   y-rot vel   z-rot vel   x-rot acc   y-rot acc   z-rot acc
    22626 -5.76374E-04 3.66578E-06 7.60884E-06-8.76890E-05 4.41041E-06 3.65532E-06-2.34865E-04-3.88155E-05-1.67101E-05



 n o d a l   p r i n t   o u t   f o r   t i m e  s t e p   11002                              ( at time 5.4999496E+00 )

 nodal point  x-disp     y-disp      z-disp      x-vel       y-vel       z-vel      x-accl      y-accl      z-accl      x-coor      y-coor      z-coor
    22626 -2.48923E-03 2.11249E-01-4.46973E-01-2.66617E-04 4.40923E-02-7.16633E-02-4.49059E-03 4.31391E-02 2.72005E-02 4.65689E+00-2.79796E+01-4.54287E+01



 n o d a l   p r i n t   o u t   f o r   t i m e  s t e p   11002                              ( at time 5.4999496E+00 )

 nodal point  x-rot      y-rot       z-rot       x-rot vel   y-rot vel   z-rot vel   x-rot acc   y-rot acc   z-rot acc
    22626 -5.86868E-04 3.58148E-06 7.25714E-06-1.25259E-04-6.65647E-06-8.84294E-06-3.75735E-04-1.10680E-04-1.24995E-04



 n o d a l   p r i n t   o u t   f o r   t i m e  s t e p   11202                              ( at time 5.5999396E+00 )

 nodal point  x-disp     y-disp      z-disp      x-vel       y-vel       z-vel      x-accl      y-accl      z-accl      x-coor      y-coor      z-coor
    22626 -2.50575E-03 2.15923E-01-4.53968E-01 1.88036E-04 4.95662E-02-6.81746E-02 4.54699E-03 5.47446E-02 3.48906E-02 4.65687E+00-2.79749E+01-4.54357E+01



 n o d a l   p r i n t   o u t   f o r   t i m e  s t e p   11202                              ( at time 5.5999396E+00 )

 nodal point  x-rot      y-rot       z-rot       x-rot vel   y-rot vel   z-rot vel   x-rot acc   y-rot acc   z-rot acc
    22626 -6.01721E-04 3.08372E-06 6.29203E-06-1.70579E-04 2.04477E-06-4.78720E-06-4.53253E-04 8.70213E-05 4.05614E-05



 n o d a l   p r i n t   o u t   f o r   t i m e  s t e p   11402                              ( at time 5.6999296E+00 )

 nodal point  x-disp     y-disp      z-disp      x-vel       y-vel       z-vel      x-accl      y-accl      z-accl      x-coor      y-coor      z-coor
    22626 -2.43658E-03 2.21185E-01-4.60619E-01 1.37471E-03 5.63674E-02-6.47786E-02 1.18679E-02 6.80187E-02 3.39635E-02 4.65694E+00-2.79696E+01-4.54423E+01



 n o d a l   p r i n t   o u t   f o r   t i m e  s t e p   11402                              ( at time 5.6999296E+00 )

 nodal point  x-rot      y-rot       z-rot       x-rot vel   y-rot vel   z-rot vel   x-rot acc   y-rot acc   z-rot acc
    22626 -6.21481E-04 3.68327E-06 6.61729E-06-2.26876E-04 1.10534E-05 1.58574E-05-5.63020E-04 9.00953E-05 2.06466E-04



 n o d a l   p r i n t   o u t   f o r   t i m e  s t e p   11602                              ( at time 5.7999195E+00 )

 nodal point  x-disp     y-disp      z-disp      x-vel       y-vel       z-vel      x-accl      y-accl      z-accl      x-coor      y-coor      z-coor
    22626 -2.29399E-03 2.27225E-01-4.66889E-01 1.25356E-03 6.46380E-02-6.06092E-02-1.21163E-03 8.27146E-02 4.16986E-02 4.65708E+00-2.79636E+01-4.54486E+01



 n o d a l   p r i n t   o u t   f o r   t i m e  s t e p   11602                              ( at time 5.7999195E+00 )

 nodal point  x-rot      y-rot       z-rot       x-rot vel   y-rot vel   z-rot vel   x-rot acc   y-rot acc   z-rot acc
    22626 -6.47798E-04 4.24993E-06 7.68473E-06-2.98433E-04-1.75612E-06 4.36526E-06-7.15638E-04-1.28109E-04-1.14933E-04



 n o d a l   p r i n t   o u t   f o r   t i m e  s t e p   11802                              ( at time 5.8999095E+00 )

 nodal point  x-disp     y-disp      z-disp      x-vel       y-vel       z-vel      x-accl      y-accl      z-accl      x-coor      y-coor      z-coor
    22626 -2.17999E-03 2.34188E-01-4.72827E-01 9.73623E-04 7.48682E-02-5.83445E-02-2.79963E-03 1.02313E-01 2.26494E-02 4.65720E+00-2.79566E+01-4.54545E+01



 n o d a l   p r i n t   o u t   f o r   t i m e  s t e p   11802                              ( at time 5.8999095E+00 )

 nodal point  x-rot      y-rot       z-rot       x-rot vel   y-rot vel   z-rot vel   x-rot acc   y-rot acc   z-rot acc
    22626 -6.82048E-04 4.18430E-06 7.52628E-06-3.86734E-04 2.51714E-06-3.44592E-06-8.83105E-04 4.27369E-05-7.81197E-05



 n o d a l   p r i n t   o u t   f o r   t i m e  s t e p   12002                              ( at time 5.9998995E+00 )

 nodal point  x-disp     y-disp      z-disp      x-vel       y-vel       z-vel      x-accl      y-accl      z-accl      x-coor      y-coor      z-coor
    22626 -2.06354E-03 2.42220E-01-4.78596E-01 1.54357E-03 8.59852E-02-5.64656E-02 5.70006E-03 1.11181E-01 1.87906E-02 4.65731E+00-2.79486E+01-4.54603E+01



 n o d a l   p r i n t   o u t   f o r   t i m e  s t e p   12002                              ( at time 5.9998995E+00 )

 nodal point  x-rot      y-rot       z-rot       x-rot vel   y-rot vel   z-rot vel   x-rot acc   y-rot acc   z-rot acc
    22626 -7.25385E-04 4.77853E-06 7.90783E-06-4.82109E-04 7.17734E-06 7.07765E-06-9.53849E-04 4.66068E-05 1.05246E-04



 n o d a l   p r i n t   o u t   f o r   t i m e  s t e p   12202                              ( at time 6.0998895E+00 )

 nodal point  x-disp     y-disp      z-disp      x-vel       y-vel       z-vel      x-accl      y-accl      z-accl      x-coor      y-coor      z-coor
    22626 -1.88467E-03 2.51439E-01-4.84057E-01 1.68549E-03 9.85272E-02-5.26601E-02 1.41930E-03 1.25432E-01 3.80590E-02 4.65749E+00-2.79394E+01-4.54658E+01



 n o d a l   p r i n t   o u t   f o r   t i m e  s t e p   12202                              ( at time 6.0998895E+00 )

 nodal point  x-rot      y-rot       z-rot       x-rot vel   y-rot vel   z-rot vel   x-rot acc   y-rot acc   z-rot acc
    22626 -7.79060E-04 5.15669E-06 8.58757E-06-5.92120E-04 3.86940E-06 5.60179E-06-1.10022E-03-3.30826E-05-1.47600E-05



 n o d a l   p r i n t   o u t   f o r   t i m e  s t e p   12402                              ( at time 6.1998795E+00 )

 nodal point  x-disp     y-disp      z-disp      x-vel       y-vel       z-vel      x-accl      y-accl      z-accl      x-coor      y-coor      z-coor
    22626 -1.73632E-03 2.62012E-01-4.89238E-01 1.16648E-03 1.13093E-01-5.14141E-02-5.19064E-03 1.45676E-01 1.24609E-02 4.65764E+00-2.79288E+01-4.54710E+01



 n o d a l   p r i n t   o u t   f o r   t i m e  s t e p   12402                              ( at time 6.1998795E+00 )

 nodal point  x-rot      y-rot       z-rot       x-rot vel   y-rot vel   z-rot vel   x-rot acc   y-rot acc   z-rot acc
    22626 -8.43883E-04 5.55947E-06 8.77271E-06-7.10252E-04 3.23295E-06 8.42089E-07-1.18143E-03-6.36511E-06-4.76018E-05



 n o d a l   p r i n t   o u t   f o r   t i m e  s t e p   12602                              ( at time 6.2998695E+00 )

 nodal point  x-disp     y-disp      z-disp      x-vel       y-vel       z-vel      x-accl      y-accl      z-accl      x-coor      y-coor      z-coor
    22626 -1.62678E-03 2.74103E-01-4.94306E-01 1.14834E-03 1.28390E-01-5.01726E-02-1.81379E-04 1.52984E-01 1.24160E-02 4.65775E+00-2.79167E+01-4.54760E+01



 n o d a l   p r i n t   o u t   f o r   t i m e  s t e p   12602                              ( at time 6.2998695E+00 )

 nodal point  x-rot      y-rot       z-rot       x-rot vel   y-rot vel   z-rot vel   x-rot acc   y-rot acc   z-rot acc
    22626 -9.20574E-04 6.22328E-06 8.92583E-06-8.35975E-04 9.04623E-06-9.92566E-07-1.25736E-03 5.81386E-05-1.83484E-05



 n o d a l   p r i n t   o u t   f o r   t i m e  s t e p   12802                              ( at time 6.3998595E+00 )

 nodal point  x-disp     y-disp      z-disp      x-vel       y-vel       z-vel      x-accl      y-accl      z-accl      x-coor      y-coor      z-coor
    22626 -1.50929E-03 2.87787E-01-4.99226E-01 1.18829E-03 1.45487E-01-4.86820E-02 3.99561E-04 1.70989E-01 1.49074E-02 4.65787E+00-2.79030E+01-4.54809E+01



 n o d a l   p r i n t   o u t   f o r   t i m e  s t e p   12802                              ( at time 6.3998595E+00 )

 nodal point  x-rot      y-rot       z-rot       x-rot vel   y-rot vel   z-rot vel   x-rot acc   y-rot acc   z-rot acc
    22626 -1.00980E-03 7.68069E-06 9.20505E-06-9.71833E-04 8.75650E-06-3.26967E-06-1.35872E-03-2.89763E-06-2.27733E-05



 n o d a l   p r i n t   o u t   f o r   t i m e  s t e p   13002                              ( at time 6.4998495E+00 )

 nodal point  x-disp     y-disp      z-disp      x-vel       y-vel       z-vel      x-accl      y-accl      z-accl      x-coor      y-coor      z-coor
    22626 -1.40503E-03 3.03198E-01-5.03933E-01 6.10468E-04 1.62715E-01-4.57300E-02-5.77882E-03 1.72294E-01 2.95233E-02 4.65797E+00-2.78876E+01-4.54857E+01



 n o d a l   p r i n t   o u t   f o r   t i m e  s t e p   13002                              ( at time 6.4998495E+00 )

 nodal point  x-rot      y-rot       z-rot       x-rot vel   y-rot vel   z-rot vel   x-rot acc   y-rot acc   z-rot acc
    22626 -1.11337E-03 8.07691E-06 8.43294E-06-1.11859E-03 2.03822E-06-1.73510E-05-1.46776E-03-6.71896E-05-1.40828E-04



 n o d a l   p r i n t   o u t   f o r   t i m e  s t e p   13202                              ( at time 6.5998395E+00 )

 nodal point  x-disp     y-disp      z-disp      x-vel       y-vel       z-vel      x-accl      y-accl      z-accl      x-coor      y-coor      z-coor
    22626 -1.37991E-03 3.20400E-01-5.08414E-01 4.61999E-04 1.81620E-01-4.42901E-02-1.48484E-03 1.89070E-01 1.43999E-02 4.65800E+00-2.78704E+01-4.54901E+01



 n o d a l   p r i n t   o u t   f o r   t i m e  s t e p   13202                              ( at time 6.5998395E+00 )

 nodal point  x-rot      y-rot       z-rot       x-rot vel   y-rot vel   z-rot vel   x-rot acc   y-rot acc   z-rot acc
    22626 -1.23183E-03 8.45386E-06 6.11489E-06-1.26076E-03 9.04106E-06-2.72227E-05-1.42180E-03 7.00352E-05-9.87260E-05



 n o d a l   p r i n t   o u t   f o r   t i m e  s t e p   13402                              ( at time 6.6998295E+00 )

 nodal point  x-disp     y-disp      z-disp      x-vel       y-vel       z-vel      x-accl      y-accl      z-accl      x-coor      y-coor      z-coor
    22626 -1.29717E-03 3.39598E-01-5.12825E-01 9.99914E-04 2.02627E-01-4.36845E-02 5.37970E-03 2.10090E-01 6.05723E-03 4.65808E+00-2.78512E+01-4.54945E+01



 n o d a l   p r i n t   o u t   f o r   t i m e  s t e p   13402                              ( at time 6.6998295E+00 )

 nodal point  x-rot      y-rot       z-rot       x-rot vel   y-rot vel   z-rot vel   x-rot acc   y-rot acc   z-rot acc
    22626 -1.36559E-03 9.35205E-06 3.71146E-06-1.41393E-03 9.06577E-07-3.22869E-05-1.53190E-03-8.13531E-05-5.06477E-05



 n o d a l   p r i n t   o u t   f o r   t i m e  s t e p   13602                              ( at time 6.7998195E+00 )

 nodal point  x-disp     y-disp      z-disp      x-vel       y-vel       z-vel      x-accl      y-accl      z-accl      x-coor      y-coor      z-coor
    22626 -1.24464E-03 3.60939E-01-5.17218E-01-4.54362E-04 2.24367E-01-4.35840E-02-1.45442E-02 2.17423E-01 1.00526E-03 4.65813E+00-2.78299E+01-4.54989E+01



 n o d a l   p r i n t   o u t   f o r   t i m e  s t e p   13602                              ( at time 6.7998195E+00 )

 nodal point  x-rot      y-rot       z-rot       x-rot vel   y-rot vel   z-rot vel   x-rot acc   y-rot acc   z-rot acc
    22626 -1.51571E-03 8.58019E-06-6.51816E-07-1.58685E-03-2.15894E-05-6.06760E-05-1.72937E-03-2.24983E-04-2.83920E-04



 n o d a l   p r i n t   o u t   f o r   t i m e  s t e p   13802                              ( at time 6.8998095E+00 )

 nodal point  x-disp     y-disp      z-disp      x-vel       y-vel       z-vel      x-accl      y-accl      z-accl      x-coor      y-coor      z-coor
    22626 -1.27941E-03 3.84496E-01-5.21567E-01-3.42223E-06 2.47391E-01-4.34178E-02 4.50985E-03 2.30262E-01 1.66209E-03 4.65810E+00-2.78063E+01-4.55033E+01



 n o d a l   p r i n t   o u t   f o r   t i m e  s t e p   13802                              ( at time 6.8998095E+00 )

 nodal point  x-rot      y-rot       z-rot       x-rot vel   y-rot vel   z-rot vel   x-rot acc   y-rot acc   z-rot acc
    22626 -1.68296E-03 6.66864E-06-6.25410E-06-1.76092E-03-1.21716E-05-5.24112E-05-1.74083E-03 9.41875E-05 8.26562E-05



 n o d a l   p r i n t   o u t   f o r   t i m e  s t e p   14002                              ( at time 6.9997995E+00 )

 nodal point  x-disp     y-disp      z-disp      x-vel       y-vel       z-vel      x-accl      y-accl      z-accl      x-coor      y-coor      z-coor
    22626 -1.26869E-03 4.10480E-01-5.25952E-01 3.56378E-04 2.72056E-01-4.47122E-02 3.59837E-03 2.46675E-01-1.29454E-02 4.65811E+00-2.77803E+01-4.55077E+01



 n o d a l   p r i n t   o u t   f o r   t i m e  s t e p   14002                              ( at time 6.9997995E+00 )

 nodal point  x-rot      y-rot       z-rot       x-rot vel   y-rot vel   z-rot vel   x-rot acc   y-rot acc   z-rot acc
    22626 -1.86768E-03 6.02129E-06-1.09298E-05-1.93896E-03-1.36588E-06-4.95394E-05-1.78055E-03 1.08068E-04 2.87216E-05



 n o d a l   p r i n t   o u t   f o r   t i m e  s t e p   14202                              ( at time 7.0997895E+00 )

 nodal point  x-disp     y-disp      z-disp      x-vel       y-vel       z-vel      x-accl      y-accl      z-accl      x-coor      y-coor      z-coor
    22626 -1.30920E-03 4.38996E-01-5.30387E-01-9.05758E-04 2.97995E-01-4.46707E-02-1.26226E-02 2.59416E-01 4.15000E-04 4.65807E+00-2.77518E+01-4.55121E+01



 n o d a l   p r i n t   o u t   f o r   t i m e  s t e p   14202                              ( at time 7.0997895E+00 )

 nodal point  x-rot      y-rot       z-rot       x-rot vel   y-rot vel   z-rot vel   x-rot acc   y-rot acc   z-rot acc
    22626 -2.06924E-03 4.94324E-06-1.68646E-05-2.10596E-03-2.13884E-05-6.38929E-05-1.67018E-03-2.00244E-04-1.43549E-04



 n o d a l   p r i n t   o u t   f o r   t i m e  s t e p   14402                              ( at time 7.1997794E+00 )

 nodal point  x-disp     y-disp      z-disp      x-vel       y-vel       z-vel      x-accl      y-accl      z-accl      x-coor      y-coor      z-coor
    22626 -1.42840E-03 4.70147E-01-5.34908E-01-1.32867E-03 3.24881E-01-4.61686E-02-4.22957E-03 2.68883E-01-1.49803E-02 4.65795E+00-2.77207E+01-4.55166E+01



 n o d a l   p r i n t   o u t   f o r   t i m e  s t e p   14402                              ( at time 7.1997794E+00 )

 nodal point  x-rot      y-rot       z-rot       x-rot vel   y-rot vel   z-rot vel   x-rot acc   y-rot acc   z-rot acc
    22626 -2.28870E-03 2.67810E-06-2.32745E-05-2.29277E-03-2.26666E-05-6.44345E-05-1.86828E-03-1.27832E-05-5.41604E-06



 n o d a l   p r i n t   o u t   f o r   t i m e  s t e p   14602                              ( at time 7.2997694E+00 )

 nodal point  x-disp     y-disp      z-disp      x-vel       y-vel       z-vel      x-accl      y-accl      z-accl      x-coor      y-coor      z-coor
    22626 -1.54416E-03 5.03968E-01-5.39538E-01-9.87535E-04 3.51657E-01-4.62349E-02 3.41172E-03 2.67794E-01-6.63653E-04 4.65783E+00-2.76869E+01-4.55213E+01



 n o d a l   p r i n t   o u t   f o r   t i m e  s t e p   14602                              ( at time 7.2997694E+00 )

 nodal point  x-rot      y-rot       z-rot       x-rot vel   y-rot vel   z-rot vel   x-rot acc   y-rot acc   z-rot acc
    22626 -2.52671E-03 1.66975E-06-2.94180E-05-2.46956E-03-1.79669E-06-6.27096E-05-1.76807E-03 2.08720E-04 1.72501E-05



 n o d a l   p r i n t   o u t   f o r   t i m e  s t e p   14802                              ( at time 7.3997594E+00 )

 nodal point  x-disp     y-disp      z-disp      x-vel       y-vel       z-vel      x-accl      y-accl      z-accl      x-coor      y-coor      z-coor
    22626 -1.62184E-03 5.40568E-01-5.44120E-01-8.66434E-04 3.80043E-01-4.54999E-02 1.21113E-03 2.83887E-01 7.35108E-03 4.65775E+00-2.76503E+01-4.55258E+01



 n o d a l   p r i n t   o u t   f o r   t i m e  s t e p   14802                              ( at time 7.3997594E+00 )

 nodal point  x-rot      y-rot       z-rot       x-rot vel   y-rot vel   z-rot vel   x-rot acc   y-rot acc   z-rot acc
    22626 -2.78272E-03 4.54157E-07-3.59968E-05-2.66164E-03-1.88570E-05-6.96281E-05-1.92105E-03-1.70620E-04-6.91915E-05



 n o d a l   p r i n t   o u t   f o r   t i m e  s t e p   15002                              ( at time 7.4997494E+00 )

 nodal point  x-disp     y-disp      z-disp      x-vel       y-vel       z-vel      x-accl      y-accl      z-accl      x-coor      y-coor      z-coor
    22626 -1.76226E-03 5.79928E-01-5.48642E-01-1.72728E-03 4.07208E-01-4.55840E-02-8.60927E-03 2.71678E-01-8.40693E-04 4.65761E+00-2.76109E+01-4.55304E+01



 n o d a l   p r i n t   o u t   f o r   t i m e  s t e p   15002                              ( at time 7.4997494E+00 )

 nodal point  x-rot      y-rot       z-rot       x-rot vel   y-rot vel   z-rot vel   x-rot acc   y-rot acc   z-rot acc
    22626 -3.05828E-03-2.49339E-06-4.37097E-05-2.85259E-03-2.82335E-05-8.02583E-05-1.90963E-03-9.37739E-05-1.06312E-04



 n o d a l   p r i n t   o u t   f o r   t i m e  s t e p   15202                              ( at time 7.5997394E+00 )

 nodal point  x-disp     y-disp      z-disp      x-vel       y-vel       z-vel      x-accl      y-accl      z-accl      x-coor      y-coor      z-coor
    22626 -1.92870E-03 6.22137E-01-5.53250E-01-1.35004E-03 4.37153E-01-4.60273E-02 3.77280E-03 2.99472E-01-4.43421E-03 4.65745E+00-2.75687E+01-4.55350E+01



 n o d a l   p r i n t   o u t   f o r   t i m e  s t e p   15202                              ( at time 7.5997394E+00 )

 nodal point  x-rot      y-rot       z-rot       x-rot vel   y-rot vel   z-rot vel   x-rot acc   y-rot acc   z-rot acc
    22626 -3.35249E-03-4.35955E-06-5.17176E-05-3.03521E-03-1.93678E-05-7.98679E-05-1.82643E-03 8.86662E-05 3.90438E-06



 n o d a l   p r i n t   o u t   f o r   t i m e  s t e p   15402                              ( at time 7.6997294E+00 )

 nodal point  x-disp     y-disp      z-disp      x-vel       y-vel       z-vel      x-accl      y-accl      z-accl      x-coor      y-coor      z-coor
    22626 -2.04560E-03 6.67286E-01-5.57821E-01-1.49108E-03 4.66127E-01-4.53987E-02-1.41057E-03 2.89777E-01 6.28721E-03 4.65733E+00-2.75235E+01-4.55395E+01



 n o d a l   p r i n t   o u t   f o r   t i m e  s t e p   15402                              ( at time 7.6997294E+00 )

 nodal point  x-rot      y-rot       z-rot       x-rot vel   y-rot vel   z-rot vel   x-rot acc   y-rot acc   z-rot acc
    22626 -3.66672E-03-6.43481E-06-5.97279E-05-3.24667E-03-3.05109E-05-7.86201E-05-2.11480E-03-1.11442E-04 1.24794E-05



 n o d a l   p r i n t   o u t   f o r   t i m e  s t e p   15602                              ( at time 7.7997194E+00 )

 nodal point  x-disp     y-disp      z-disp      x-vel       y-vel       z-vel      x-accl      y-accl      z-accl      x-coor      y-coor      z-coor
    22626 -2.24080E-03 7.15425E-01-5.62410E-01-2.51788E-03 4.96580E-01-4.64077E-02-1.02690E-02 3.04561E-01-1.00909E-02 4.65713E+00-2.74754E+01-4.55441E+01



 n o d a l   p r i n t   o u t   f o r   t i m e  s t e p   15602                              ( at time 7.7997194E+00 )

 nodal point  x-rot      y-rot       z-rot       x-rot vel   y-rot vel   z-rot vel   x-rot acc   y-rot acc   z-rot acc
    22626 -4.00153E-03-9.67037E-06-6.86008E-05-3.44945E-03-2.98927E-05-8.75972E-05-2.02797E-03 6.18181E-06-8.97801E-05



 n o d a l   p r i n t   o u t   f o r   t i m e  s t e p   15802                              ( at time 7.8997094E+00 )

 nodal point  x-disp     y-disp      z-disp      x-vel       y-vel       z-vel      x-accl      y-accl      z-accl      x-coor      y-coor      z-coor
    22626 -2.48684E-03 7.66648E-01-5.66990E-01-2.06660E-03 5.27274E-01-4.56704E-02 4.51320E-03 3.06966E-01 7.37362E-03 4.65689E+00-2.74242E+01-4.55487E+01



 n o d a l   p r i n t   o u t   f o r   t i m e  s t e p   15802                              ( at time 7.8997094E+00 )

 nodal point  x-rot      y-rot       z-rot       x-rot vel   y-rot vel   z-rot vel   x-rot acc   y-rot acc   z-rot acc
    22626 -4.35602E-03-1.24476E-05-7.78774E-05-3.65565E-03-1.56320E-05-8.75421E-05-2.06225E-03 1.42622E-04 5.50409E-07



 n o d a l   p r i n t   o u t   f o r   t i m e  s t e p   16002                              ( at time 7.9996994E+00 )

 nodal point  x-disp     y-disp      z-disp      x-vel       y-vel       z-vel      x-accl      y-accl      z-accl      x-coor      y-coor      z-coor
    22626 -2.70021E-03 8.20963E-01-5.71509E-01-2.11653E-03 5.58892E-01-4.54474E-02-4.99367E-04 3.16210E-01 2.23014E-03 4.65667E+00-2.73699E+01-4.55532E+01



 n o d a l   p r i n t   o u t   f o r   t i m e  s t e p   16002                              ( at time 7.9996994E+00 )

 nodal point  x-rot      y-rot       z-rot       x-rot vel   y-rot vel   z-rot vel   x-rot acc   y-rot acc   z-rot acc
    22626 -4.73141E-03-1.45788E-05-8.61408E-05-3.86315E-03-2.40099E-05-8.41072E-05-2.07517E-03-8.37870E-05 3.43526E-05



 n o d a l   p r i n t   o u t   f o r   t i m e  s t e p   16202                              ( at time 8.0996894E+00 )

 nodal point  x-disp     y-disp      z-disp      x-vel       y-vel       z-vel      x-accl      y-accl      z-accl      x-coor      y-coor      z-coor
    22626 -2.96432E-03 8.78436E-01-5.76024E-01-3.49158E-03 5.90331E-01-4.46359E-02-1.37519E-02 3.14421E-01 8.11614E-03 4.65641E+00-2.73124E+01-4.55577E+01



 n o d a l   p r i n t   o u t   f o r   t i m e  s t e p   16202                              ( at time 8.0996894E+00 )

 nodal point  x-rot      y-rot       z-rot       x-rot vel   y-rot vel   z-rot vel   x-rot acc   y-rot acc   z-rot acc
    22626 -5.12802E-03-1.71673E-05-9.49229E-05-4.07780E-03-2.56213E-05-9.61479E-05-2.14674E-03-1.61159E-05-1.20420E-04



 n o d a l   p r i n t   o u t   f o r   t i m e  s t e p   16402                              ( at time 8.1996794E+00 )

 nodal point  x-disp     y-disp      z-disp      x-vel       y-vel       z-vel      x-accl      y-accl      z-accl      x-coor      y-coor      z-coor
    22626 -3.27451E-03 9.39013E-01-5.80373E-01-2.95464E-03 6.21225E-01-4.22502E-02 5.36996E-03 3.08976E-01 2.38590E-02 4.65610E+00-2.72518E+01-4.55621E+01



 n o d a l   p r i n t   o u t   f o r   t i m e  s t e p   16402                              ( at time 8.1996794E+00 )

 nodal point  x-rot      y-rot       z-rot       x-rot vel   y-rot vel   z-rot vel   x-rot acc   y-rot acc   z-rot acc
    22626 -5.54677E-03-1.94878E-05-1.04380E-04-4.29402E-03-1.98515E-05-8.87021E-05-2.16243E-03 5.77037E-05 7.44656E-05



 n o d a l   p r i n t   o u t   f o r   t i m e  s t e p   16602                              ( at time 8.2996694E+00 )

 nodal point  x-disp     y-disp      z-disp      x-vel       y-vel       z-vel      x-accl      y-accl      z-accl      x-coor      y-coor      z-coor
    22626 -3.56565E-03 1.00271E+00-5.84458E-01-2.64381E-03 6.53052E-01-3.93876E-02 3.10862E-03 3.18297E-01 2.86290E-02 4.65581E+00-2.71881E+01-4.55662E+01



 n o d a l   p r i n t   o u t   f o r   t i m e  s t e p   16602                              ( at time 8.2996694E+00 )

 nodal point  x-rot      y-rot       z-rot       x-rot vel   y-rot vel   z-rot vel   x-rot acc   y-rot acc   z-rot acc
    22626 -5.98692E-03-2.17081E-05-1.13009E-04-4.51113E-03-2.01331E-05-8.84264E-05-2.17130E-03-2.81654E-06 2.75750E-06



 n o d a l   p r i n t   o u t   f o r   t i m e  s t e p   16802                              ( at time 8.3996594E+00 )

 nodal point  x-disp     y-disp      z-disp      x-vel       y-vel       z-vel      x-accl      y-accl      z-accl      x-coor      y-coor      z-coor
    22626 -3.84450E-03 1.06957E+00-5.88287E-01-3.03874E-03 6.84164E-01-3.69826E-02-3.94968E-03 3.11150E-01 2.40518E-02 4.65553E+00-2.71213E+01-4.55700E+01



 n o d a l   p r i n t   o u t   f o r   t i m e  s t e p   16802                              ( at time 8.3996594E+00 )

 nodal point  x-rot      y-rot       z-rot       x-rot vel   y-rot vel   z-rot vel   x-rot acc   y-rot acc   z-rot acc
    22626 -6.44903E-03-2.43183E-05-1.22535E-04-4.72766E-03-2.73798E-05-1.00427E-04-2.16552E-03-7.24736E-05-1.20021E-04



 n o d a l   p r i n t   o u t   f o r   t i m e  s t e p   17002                              ( at time 8.4996494E+00 )

 nodal point  x-disp     y-disp      z-disp      x-vel       y-vel       z-vel      x-accl      y-accl      z-accl      x-coor      y-coor      z-coor
    22626 -4.15910E-03 1.13956E+00-5.91832E-01-3.30599E-03 7.15769E-01-3.33118E-02-2.67273E-03 3.16083E-01 3.67126E-02 4.65522E+00-2.70513E+01-4.55736E+01



 n o d a l   p r i n t   o u t   f o r   t i m e  s t e p   17002                              ( at time 8.4996494E+00 )

 nodal point  x-rot      y-rot       z-rot       x-rot vel   y-rot vel   z-rot vel   x-rot acc   y-rot acc   z-rot acc
    22626 -6.93319E-03-2.67941E-05-1.32183E-04-4.95170E-03-2.79537E-05-9.74739E-05-2.24066E-03-5.73976E-06 2.95370E-05



 n o d a l   p r i n t   o u t   f o r   t i m e  s t e p   17202                              ( at time 8.5996394E+00 )

 nodal point  x-disp     y-disp      z-disp      x-vel       y-vel       z-vel      x-accl      y-accl      z-accl      x-coor      y-coor      z-coor
    22626 -4.44966E-03 1.21270E+00-5.94942E-01-2.89583E-03 7.46951E-01-2.89079E-02 4.10201E-03 3.11850E-01 4.40426E-02 4.65493E+00-2.69781E+01-4.55767E+01



 n o d a l   p r i n t   o u t   f o r   t i m e  s t e p   17202                              ( at time 8.5996394E+00 )

 nodal point  x-rot      y-rot       z-rot       x-rot vel   y-rot vel   z-rot vel   x-rot acc   y-rot acc   z-rot acc
    22626 -7.44007E-03-2.94711E-05-1.41700E-04-5.18210E-03-2.55830E-05-9.56773E-05-2.30422E-03 2.37094E-05 1.79673E-05



 n o d a l   p r i n t   o u t   f o r   t i m e  s t e p   17402                              ( at time 8.6996293E+00 )

 nodal point  x-disp     y-disp      z-disp      x-vel       y-vel       z-vel      x-accl      y-accl      z-accl      x-coor      y-coor      z-coor
    22626 -4.74847E-03 1.28896E+00-5.97591E-01-2.83583E-03 7.77949E-01-2.36901E-02 5.99992E-04 3.10012E-01 5.21827E-02 4.65463E+00-2.69019E+01-4.55793E+01



 n o d a l   p r i n t   o u t   f o r   t i m e  s t e p   17402                              ( at time 8.6996293E+00 )

 nodal point  x-rot      y-rot       z-rot       x-rot vel   y-rot vel   z-rot vel   x-rot acc   y-rot acc   z-rot acc
    22626 -7.96925E-03-3.16635E-05-1.51076E-04-5.40311E-03-1.96456E-05-9.10044E-05-2.21030E-03 5.93796E-05 4.67330E-05



 n o d a l   p r i n t   o u t   f o r   t i m e  s t e p   17602                              ( at time 8.7996193E+00 )

 nodal point  x-disp     y-disp      z-disp      x-vel       y-vel       z-vel      x-accl      y-accl      z-accl      x-coor      y-coor      z-coor
    22626 -5.04910E-03 1.36834E+00-5.99615E-01-3.13405E-03 8.09530E-01-1.73298E-02-2.98252E-03 3.15842E-01 6.36095E-02 4.65433E+00-2.68225E+01-4.55813E+01



 n o d a l   p r i n t   o u t   f o r   t i m e  s t e p   17602                              ( at time 8.7996193E+00 )

 nodal point  x-rot      y-rot       z-rot       x-rot vel   y-rot vel   z-rot vel   x-rot acc   y-rot acc   z-rot acc
    22626 -8.52054E-03-3.35033E-05-1.59754E-04-5.62315E-03-1.40850E-05-8.70836E-05-2.20068E-03 5.56111E-05 3.92121E-05



 n o d a l   p r i n t   o u t   f o r   t i m e  s t e p   17802                              ( at time 8.8996093E+00 )

 nodal point  x-disp     y-disp      z-disp      x-vel       y-vel       z-vel      x-accl      y-accl      z-accl      x-coor      y-coor      z-coor
    22626 -5.36583E-03 1.45083E+00-6.01034E-01-3.08890E-03 8.39664E-01-1.13263E-02 4.51567E-04 3.01365E-01 6.00413E-02 4.65401E+00-2.67400E+01-4.55828E+01



 n o d a l   p r i n t   o u t   f o r   t i m e  s t e p   17802                              ( at time 8.8996093E+00 )

 nodal point  x-rot      y-rot       z-rot       x-rot vel   y-rot vel   z-rot vel   x-rot acc   y-rot acc   z-rot acc
    22626 -9.09300E-03-3.45588E-05-1.67956E-04-5.82023E-03-1.33692E-05-8.62509E-05-1.97093E-03 7.15855E-06 8.32796E-06



 n o d a l   p r i n t   o u t   f o r   t i m e  s t e p   18002                              ( at time 8.9995993E+00 )

 nodal point  x-disp     y-disp      z-disp      x-vel       y-vel       z-vel      x-accl      y-accl      z-accl      x-coor      y-coor      z-coor
    22626 -5.68644E-03 1.53637E+00-6.01823E-01-3.67708E-03 8.71285E-01-3.82884E-03-5.88241E-03 3.16245E-01 7.49822E-02 4.65369E+00-2.66545E+01-4.55835E+01



 n o d a l   p r i n t   o u t   f o r   t i m e  s t e p   18002                              ( at time 8.9995993E+00 )

 nodal point  x-rot      y-rot       z-rot       x-rot vel   y-rot vel   z-rot vel   x-rot acc   y-rot acc   z-rot acc
    22626 -9.68679E-03-3.57338E-05-1.75645E-04-6.04063E-03-1.16789E-05-7.12647E-05-2.20425E-03 1.69050E-05 1.49877E-04



 n o d a l   p r i n t   o u t   f o r   t i m e  s t e p   18202                              ( at time 9.0995893E+00 )

 nodal point  x-disp     y-disp      z-disp      x-vel       y-vel       z-vel      x-accl      y-accl      z-accl      x-coor      y-coor      z-coor
    22626 -6.01429E-03 1.62496E+00-6.01764E-01-3.07371E-03 9.00770E-01 5.38711E-03 6.03436E-03 2.94879E-01 9.21688E-02 4.65336E+00-2.65659E+01-4.55835E+01



 n o d a l   p r i n t   o u t   f o r   t i m e  s t e p   18202                              ( at time 9.0995893E+00 )

 nodal point  x-rot      y-rot       z-rot       x-rot vel   y-rot vel   z-rot vel   x-rot acc   y-rot acc   z-rot acc
    22626 -1.03024E-02-3.65171E-05-1.82769E-04-6.25060E-03-2.74945E-06-6.95310E-05-2.09993E-03 8.93036E-05 1.73385E-05



 n o d a l   p r i n t   o u t   f o r   t i m e  s t e p   18402                              ( at time 9.1995793E+00 )

 nodal point  x-disp     y-disp      z-disp      x-vel       y-vel       z-vel      x-accl      y-accl      z-accl      x-coor      y-coor      z-coor
    22626 -6.34041E-03 1.71653E+00-6.00821E-01-3.13826E-03 9.31029E-01 1.35005E-02-6.45616E-04 3.02624E-01 8.11418E-02 4.65303E+00-2.64743E+01-4.55825E+01



 n o d a l   p r i n t   o u t   f o r   t i m e  s t e p   18402                              ( at time 9.1995793E+00 )

 nodal point  x-rot      y-rot       z-rot       x-rot vel   y-rot vel   z-rot vel   x-rot acc   y-rot acc   z-rot acc
    22626 -1.09383E-02-3.69866E-05-1.89675E-04-6.45032E-03-3.91275E-06-6.54213E-05-1.99739E-03-1.16342E-05 4.11010E-05



 n o d a l   p r i n t   o u t   f o r   t i m e  s t e p   18602                              ( at time 9.2995693E+00 )

 nodal point  x-disp     y-disp      z-disp      x-vel       y-vel       z-vel      x-accl      y-accl      z-accl      x-coor      y-coor      z-coor
    22626 -6.65824E-03 1.81112E+00-5.99018E-01-3.27525E-03 9.60070E-01 2.26048E-02-1.36996E-03 2.90436E-01 9.10527E-02 4.65272E+00-2.63797E+01-4.55807E+01



 n o d a l   p r i n t   o u t   f o r   t i m e  s t e p   18602                              ( at time 9.2995693E+00 )

 nodal point  x-rot      y-rot       z-rot       x-rot vel   y-rot vel   z-rot vel   x-rot acc   y-rot acc   z-rot acc
    22626 -1.15940E-02-3.81447E-05-1.96658E-04-6.65291E-03-1.63160E-05-6.91740E-05-2.02611E-03-1.24045E-04-3.75308E-05



 n o d a l   p r i n t   o u t   f o r   t i m e  s t e p   18802                              ( at time 9.3995593E+00 )

 nodal point  x-disp     y-disp      z-disp      x-vel       y-vel       z-vel      x-accl      y-accl      z-accl      x-coor      y-coor      z-coor
    22626 -6.97415E-03 1.90864E+00-5.96220E-01-2.90995E-03 9.89378E-01 3.28072E-02 3.65334E-03 2.93113E-01 1.02034E-01 4.65240E+00-2.62822E+01-4.55779E+01



 n o d a l   p r i n t   o u t   f o r   t i m e  s t e p   18802                              ( at time 9.3995593E+00 )

 nodal point  x-rot      y-rot       z-rot       x-rot vel   y-rot vel   z-rot vel   x-rot acc   y-rot acc   z-rot acc
    22626 -1.22693E-02-3.96758E-05-2.03322E-04-6.84736E-03-1.36041E-05-6.27848E-05-1.94472E-03 2.71215E-05 6.38993E-05



 n o d a l   p r i n t   o u t   f o r   t i m e  s t e p   19002                              ( at time 9.4995493E+00 )

 nodal point  x-disp     y-disp      z-disp      x-vel       y-vel       z-vel      x-accl      y-accl      z-accl      x-coor      y-coor      z-coor
    22626 -7.24334E-03 2.00909E+00-5.92374E-01-2.50353E-03 1.01908E+00 4.37298E-02 4.06459E-03 2.97073E-01 1.09237E-01 4.65213E+00-2.61817E+01-4.55741E+01



 n o d a l   p r i n t   o u t   f o r   t i m e  s t e p   19002                              ( at time 9.4995493E+00 )

 nodal point  x-rot      y-rot       z-rot       x-rot vel   y-rot vel   z-rot vel   x-rot acc   y-rot acc   z-rot acc
    22626 -1.29633E-02-4.01979E-05-2.09461E-04-7.02774E-03-1.93419E-06-5.50519E-05-1.80399E-03 1.16711E-04 7.73368E-05



 n o d a l   p r i n t   o u t   f o r   t i m e  s t e p   19202                              ( at time 9.5995393E+00 )

 nodal point  x-disp     y-disp      z-disp      x-vel       y-vel       z-vel      x-accl      y-accl      z-accl      x-coor      y-coor      z-coor
    22626 -7.51632E-03 2.11241E+00-5.87497E-01-2.89795E-03 1.04759E+00 5.44506E-02-3.94453E-03 2.85084E-01 1.07217E-01 4.65186E+00-2.60784E+01-4.55692E+01



 n o d a l   p r i n t   o u t   f o r   t i m e  s t e p   19202                              ( at time 9.5995393E+00 )

 nodal point  x-rot      y-rot       z-rot       x-rot vel   y-rot vel   z-rot vel   x-rot acc   y-rot acc   z-rot acc
    22626 -1.36746E-02-4.16844E-05-2.15425E-04-7.18913E-03-2.17575E-05-5.41780E-05-1.61405E-03-1.98251E-04 8.73952E-06



 n o d a l   p r i n t   o u t   f o r   t i m e  s t e p   19402                              ( at time 9.6995293E+00 )

 nodal point  x-disp     y-disp      z-disp      x-vel       y-vel       z-vel      x-accl      y-accl      z-accl      x-coor      y-coor      z-coor
    22626 -7.81156E-03 2.21855E+00-5.81446E-01-2.68292E-03 1.07523E+00 6.59134E-02 2.15049E-03 2.76446E-01 1.14640E-01 4.65156E+00-2.59723E+01-4.55632E+01



 n o d a l   p r i n t   o u t   f o r   t i m e  s t e p   19402                              ( at time 9.6995293E+00 )

 nodal point  x-rot      y-rot       z-rot       x-rot vel   y-rot vel   z-rot vel   x-rot acc   y-rot acc   z-rot acc
    22626 -1.44016E-02-4.31345E-05-2.20571E-04-7.34790E-03-5.05408E-07-4.97977E-05-1.58786E-03 2.12543E-04 4.38071E-05



 n o d a l   p r i n t   o u t   f o r   t i m e  s t e p   19602                              ( at time 9.7995193E+00 )

 nodal point  x-disp     y-disp      z-disp      x-vel       y-vel       z-vel      x-accl      y-accl      z-accl      x-coor      y-coor      z-coor
    22626 -8.07928E-03 2.32750E+00-5.74291E-01-3.07528E-03 1.10318E+00 7.65750E-02-3.92399E-03 2.79504E-01 1.06627E-01 4.65130E+00-2.58633E+01-4.55560E+01



 n o d a l   p r i n t   o u t   f o r   t i m e  s t e p   19602                              ( at time 9.7995193E+00 )

 nodal point  x-rot      y-rot       z-rot       x-rot vel   y-rot vel   z-rot vel   x-rot acc   y-rot acc   z-rot acc
    22626 -1.51443E-02-4.31764E-05-2.25418E-04-7.50547E-03-9.76632E-06-5.57428E-05-1.57585E-03-9.26185E-05-5.94568E-05



 n o d a l   p r i n t   o u t   f o r   t i m e  s t e p   19802                              ( at time 9.8995093E+00 )

 nodal point  x-disp     y-disp      z-disp      x-vel       y-vel       z-vel      x-accl      y-accl      z-accl      x-coor      y-coor      z-coor
    22626 -8.39924E-03 2.43918E+00-5.65957E-01-3.72978E-03 1.13001E+00 9.01906E-02-6.54571E-03 2.68343E-01 1.36170E-01 4.65098E+00-2.57517E+01-4.55477E+01



 n o d a l   p r i n t   o u t   f o r   t i m e  s t e p   19802                              ( at time 9.8995093E+00 )

 nodal point  x-rot      y-rot       z-rot       x-rot vel   y-rot vel   z-rot vel   x-rot acc   y-rot acc   z-rot acc
    22626 -1.59023E-02-4.48629E-05-2.30810E-04-7.64604E-03-2.28518E-05-5.36745E-05-1.40579E-03-1.30868E-04 2.06848E-05



 n o d a l   p r i n t   o u t   f o r   t i m e  s t e p   20003                              ( at time 9.9999992E+00 )

 nodal point  x-disp     y-disp      z-disp      x-vel       y-vel       z-vel      x-accl      y-accl      z-accl      x-coor      y-coor      z-coor
[...]
    22626 -4.25640E-02-9.94760E-05-3.65683E-04-1.00852E-02 3.42824E-05 9.35860E-06 3.72567E-05 2.37669E-04 1.05710E-04



 n o d a l   p r i n t   o u t   f o r   t i m e  s t e p   25803                              ( at time 1.2899709E+01 )

 nodal point  x-disp     y-disp      z-disp      x-vel       y-vel       z-vel      x-accl      y-accl      z-accl      x-coor      y-coor      z-coor
    22626 -3.15905E-02 6.51154E+00 9.23470E-01-7.51188E-03 1.42551E+00 1.06054E+00 7.55559E-03-3.27739E-02 4.52128E-01 4.62778E+00-2.16793E+01-4.40583E+01



 n o d a l   p r i n t   o u t   f o r   t i m e  s t e p   25803                              ( at time 1.2899709E+01 )

 nodal point  x-rot      y-rot       z-rot       x-rot vel   y-rot vel   z-rot vel   x-rot acc   y-rot acc   z-rot acc
    22626 -4.35742E-02-9.76309E-05-3.66309E-04-1.01239E-02 1.40936E-05-6.30624E-08-3.87413E-04-2.01908E-04-9.42261E-05



 n o d a l   p r i n t   o u t   f o r   t i m e  s t e p   26003                              ( at time 1.2999699E+01 )

 nodal point  x-disp     y-disp      z-disp      x-vel       y-vel       z-vel      x-accl      y-accl      z-accl      x-coor      y-coor      z-coor
    22626 -3.24443E-02 6.65378E+00 1.03159E+00-9.32055E-03 1.42083E+00 1.10104E+00-1.80885E-02-4.68599E-02 4.05056E-01 4.62693E+00-2.15371E+01-4.39501E+01



 n o d a l   p r i n t   o u t   f o r   t i m e  s t e p   26003                              ( at time 1.2999699E+01 )

 nodal point  x-rot      y-rot       z-rot       x-rot vel   y-rot vel   z-rot vel   x-rot acc   y-rot acc   z-rot acc
    22626 -4.45858E-02-9.77508E-05-3.66624E-04-1.01549E-02-9.03961E-06-6.87921E-06-3.10050E-04-2.31356E-04-6.81683E-05



 n o d a l   p r i n t   o u t   f o r   t i m e  s t e p   26203                              ( at time 1.3099689E+01 )

 nodal point  x-disp     y-disp      z-disp      x-vel       y-vel       z-vel      x-accl      y-accl      z-accl      x-coor      y-coor      z-coor
    22626 -3.33205E-02 6.79585E+00 1.14378E+00-8.00801E-03 1.41989E+00 1.14216E+00 1.31266E-02-9.31119E-03 4.11210E-01 4.62605E+00-2.13950E+01-4.38379E+01



 n o d a l   p r i n t   o u t   f o r   t i m e  s t e p   26203                              ( at time 1.3099689E+01 )

 nodal point  x-rot      y-rot       z-rot       x-rot vel   y-rot vel   z-rot vel   x-rot acc   y-rot acc   z-rot acc
    22626 -4.56013E-02-9.81868E-05-3.69766E-04-1.02045E-02 1.44413E-06-2.94958E-05-4.96240E-04 1.04848E-04-2.26189E-04



 n o d a l   p r i n t   o u t   f o r   t i m e  s t e p   26403                              ( at time 1.3199679E+01 )

 nodal point  x-disp     y-disp      z-disp      x-vel       y-vel       z-vel      x-accl      y-accl      z-accl      x-coor      y-coor      z-coor
    22626 -3.41576E-02 6.93759E+00 1.26022E+00-8.21071E-03 1.41450E+00 1.18547E+00-2.02713E-03-5.39853E-02 4.33202E-01 4.62522E+00-2.12532E+01-4.37215E+01



 n o d a l   p r i n t   o u t   f o r   t i m e  s t e p   26403                              ( at time 1.3199679E+01 )

 nodal point  x-rot      y-rot       z-rot       x-rot vel   y-rot vel   z-rot vel   x-rot acc   y-rot acc   z-rot acc
    22626 -4.66191E-02-9.68470E-05-3.71598E-04-1.01881E-02 2.01902E-05 2.03055E-06 1.63723E-04 1.87478E-04 3.15292E-04



 n o d a l   p r i n t   o u t   f o r   t i m e  s t e p   26603                              ( at time 1.3299669E+01 )

 nodal point  x-disp     y-disp      z-disp      x-vel       y-vel       z-vel      x-accl      y-accl      z-accl      x-coor      y-coor      z-coor
    22626 -3.49958E-02 7.07889E+00 1.38091E+00-8.39301E-03 1.41253E+00 1.22717E+00-1.82319E-03-1.96536E-02 4.16960E-01 4.62438E+00-2.11119E+01-4.36008E+01



 n o d a l   p r i n t   o u t   f o r   t i m e  s t e p   26603                              ( at time 1.3299669E+01 )

 nodal point  x-rot      y-rot       z-rot       x-rot vel   y-rot vel   z-rot vel   x-rot acc   y-rot acc   z-rot acc
    22626 -4.76385E-02-9.75672E-05-3.73192E-04-1.02492E-02-2.59935E-05-4.36869E-05-6.11093E-04-4.61883E-04-4.57221E-04



 n o d a l   p r i n t   o u t   f o r   t i m e  s t e p   26803                              ( at time 1.3399659E+01 )

 nodal point  x-disp     y-disp      z-disp      x-vel       y-vel       z-vel      x-accl      y-accl      z-accl      x-coor      y-coor      z-coor
    22626 -3.58709E-02 7.22002E+00 1.50555E+00-9.28388E-03 1.40961E+00 1.26545E+00-8.90962E-03-2.92414E-02 3.82907E-01 4.62350E+00-2.09708E+01-4.34762E+01



 n o d a l   p r i n t   o u t   f o r   t i m e  s t e p   26803                              ( at time 1.3399659E+01 )

 nodal point  x-rot      y-rot       z-rot       x-rot vel   y-rot vel   z-rot vel   x-rot acc   y-rot acc   z-rot acc
    22626 -4.86648E-02-9.83560E-05-3.77668E-04-1.02802E-02-5.54942E-06-5.61743E-05-3.09715E-04 2.04461E-04-1.24886E-04



 n o d a l   p r i n t   o u t   f o r   t i m e  s t e p   27003                              ( at time 1.3499649E+01 )

 nodal point  x-disp     y-disp      z-disp      x-vel       y-vel       z-vel      x-accl      y-accl      z-accl      x-coor      y-coor      z-coor
    22626 -3.68709E-02 7.36086E+00 1.63425E+00-9.01487E-03 1.40594E+00 1.30834E+00 2.69036E-03-3.66701E-02 4.28913E-01 4.62250E+00-2.08300E+01-4.33475E+01



 n o d a l   p r i n t   o u t   f o r   t i m e  s t e p   27003                              ( at time 1.3499649E+01 )

 nodal point  x-rot      y-rot       z-rot       x-rot vel   y-rot vel   z-rot vel   x-rot acc   y-rot acc   z-rot acc
    22626 -4.96904E-02-1.00044E-04-3.82424E-04-1.02852E-02-3.41219E-05-7.08055E-05-5.02872E-05-2.85754E-04-1.46327E-04



 n o d a l   p r i n t   o u t   f o r   t i m e  s t e p   27203                              ( at time 1.3599639E+01 )

 nodal point  x-disp     y-disp      z-disp      x-vel       y-vel       z-vel      x-accl      y-accl      z-accl      x-coor      y-coor      z-coor
    22626 -3.77839E-02 7.50128E+00 1.76717E+00-9.79171E-03 1.40379E+00 1.34770E+00-7.76913E-03-2.15087E-02 3.93697E-01 4.62159E+00-2.06896E+01-4.32145E+01



 n o d a l   p r i n t   o u t   f o r   t i m e  s t e p   27203                              ( at time 1.3599639E+01 )

 nodal point  x-rot      y-rot       z-rot       x-rot vel   y-rot vel   z-rot vel   x-rot acc   y-rot acc   z-rot acc
    22626 -5.07207E-02-1.02426E-04-3.87472E-04-1.03625E-02-1.82899E-05-4.69899E-05-7.72517E-04 1.58336E-04 2.38180E-04



 n o d a l   p r i n t   o u t   f o r   t i m e  s t e p   27403                              ( at time 1.3699629E+01 )

 nodal point  x-disp     y-disp      z-disp      x-vel       y-vel       z-vel      x-accl      y-accl      z-accl      x-coor      y-coor      z-coor
    22626 -3.86360E-02 7.64148E+00 1.90384E+00-9.82540E-03 1.40205E+00 1.38637E+00-3.36931E-04-1.74170E-02 3.86666E-01 4.62074E+00-2.05493E+01-4.30779E+01



 n o d a l   p r i n t   o u t   f o r   t i m e  s t e p   27403                              ( at time 1.3699629E+01 )

 nodal point  x-rot      y-rot       z-rot       x-rot vel   y-rot vel   z-rot vel   x-rot acc   y-rot acc   z-rot acc
    22626 -5.17565E-02-1.03603E-04-3.93542E-04-1.03768E-02-2.85355E-05-1.00613E-04-1.42907E-04-1.02466E-04-5.36285E-04



 n o d a l   p r i n t   o u t   f o r   t i m e  s t e p   27603                              ( at time 1.3799619E+01 )

 nodal point  x-disp     y-disp      z-disp      x-vel       y-vel       z-vel      x-accl      y-accl      z-accl      x-coor      y-coor      z-coor
    22626 -3.98513E-02 7.78150E+00 2.04453E+00-1.23336E-02 1.39679E+00 1.42670E+00-2.50848E-02-5.26052E-02 4.03396E-01 4.61952E+00-2.04093E+01-4.29372E+01



 n o d a l   p r i n t   o u t   f o r   t i m e  s t e p   27603                              ( at time 1.3799619E+01 )

 nodal point  x-rot      y-rot       z-rot       x-rot vel   y-rot vel   z-rot vel   x-rot acc   y-rot acc   z-rot acc
    22626 -5.27934E-02-1.10884E-04-4.05627E-04-1.03957E-02-8.40788E-05-1.40720E-04-1.89450E-04-5.55489E-04-4.01110E-04



 n o d a l   p r i n t   o u t   f o r   t i m e  s t e p   27803                              ( at time 1.3899609E+01 )

 nodal point  x-disp     y-disp      z-disp      x-vel       y-vel       z-vel      x-accl      y-accl      z-accl      x-coor      y-coor      z-coor
    22626 -4.10039E-02 7.92105E+00 2.18901E+00-1.12368E-02 1.39441E+00 1.46304E+00 1.09689E-02-2.38252E-02 3.63401E-01 4.61837E+00-2.02698E+01-4.27927E+01



 n o d a l   p r i n t   o u t   f o r   t i m e  s t e p   27803                              ( at time 1.3899609E+01 )

 nodal point  x-rot      y-rot       z-rot       x-rot vel   y-rot vel   z-rot vel   x-rot acc   y-rot acc   z-rot acc
    22626 -5.38348E-02-1.17713E-04-4.16789E-04-1.04781E-02-5.31711E-05-1.07359E-04-8.23493E-04 3.09108E-04 3.33647E-04



 n o d a l   p r i n t   o u t   f o r   t i m e  s t e p   28003                              ( at time 1.3999599E+01 )

 nodal point  x-disp     y-disp      z-disp      x-vel       y-vel       z-vel      x-accl      y-accl      z-accl      x-coor      y-coor      z-coor
    22626 -4.19418E-02 8.06052E+00 2.33722E+00-9.67053E-03 1.39487E+00 1.50073E+00 1.56647E-02 4.67348E-03 3.76986E-01 4.61743E+00-2.01303E+01-4.26445E+01



 n o d a l   p r i n t   o u t   f o r   t i m e  s t e p   28003                              ( at time 1.3999599E+01 )

 nodal point  x-rot      y-rot       z-rot       x-rot vel   y-rot vel   z-rot vel   x-rot acc   y-rot acc   z-rot acc
    22626 -5.48832E-02-1.22523E-04-4.28283E-04-1.05025E-02-6.91519E-05-1.31316E-04-2.44497E-04-1.59824E-04-2.39598E-04



 n o d a l   p r i n t   o u t   f o r   t i m e  s t e p   28203                              ( at time 1.4099589E+01 )

 nodal point  x-disp     y-disp      z-disp      x-vel       y-vel       z-vel      x-accl      y-accl      z-accl      x-coor      y-coor      z-coor
    22626 -4.32332E-02 8.19989E+00 2.48899E+00-1.38827E-02 1.39291E+00 1.53563E+00-4.21256E-02-1.96272E-02 3.49029E-01 4.61614E+00-1.99909E+01-4.24927E+01



 n o d a l   p r i n t   o u t   f o r   t i m e  s t e p   28203                              ( at time 1.4099589E+01 )

 nodal point  x-rot      y-rot       z-rot       x-rot vel   y-rot vel   z-rot vel   x-rot acc   y-rot acc   z-rot acc
    22626 -5.59329E-02-1.32304E-04-4.43479E-04-1.05157E-02-1.11117E-04-1.74320E-04-1.31990E-04-4.19692E-04-4.30083E-04



 n o d a l   p r i n t   o u t   f o r   t i m e  s t e p   28403                              ( at time 1.4199579E+01 )

 nodal point  x-disp     y-disp      z-disp      x-vel       y-vel       z-vel      x-accl      y-accl      z-accl      x-coor      y-coor      z-coor
    22626 -4.46821E-02 8.33894E+00 2.64433E+00-1.50584E-02 1.39118E+00 1.57036E+00-1.17586E-02-1.72907E-02 3.47323E-01 4.61469E+00-1.98519E+01-4.23374E+01



 n o d a l   p r i n t   o u t   f o r   t i m e  s t e p   28403                              ( at time 1.4199579E+01 )

 nodal point  x-rot      y-rot       z-rot       x-rot vel   y-rot vel   z-rot vel   x-rot acc   y-rot acc   z-rot acc
    22626 -5.69849E-02-1.45675E-04-4.64308E-04-1.05692E-02-1.24496E-04-2.00372E-04-5.34717E-04-1.33799E-04-2.60544E-04



 n o d a l   p r i n t   o u t   f o r   t i m e  s t e p   28603                              ( at time 1.4299569E+01 )

 nodal point  x-disp     y-disp      z-disp      x-vel       y-vel       z-vel      x-accl      y-accl      z-accl      x-coor      y-coor      z-coor
    22626 -4.60927E-02 8.47806E+00 2.80291E+00-1.42852E-02 1.39218E+00 1.60162E+00 7.73369E-03 9.99313E-03 3.12648E-01 4.61328E+00-1.97128E+01-4.21788E+01



 n o d a l   p r i n t   o u t   f o r   t i m e  s t e p   28603                              ( at time 1.4299569E+01 )

 nodal point  x-rot      y-rot       z-rot       x-rot vel   y-rot vel   z-rot vel   x-rot acc   y-rot acc   z-rot acc
    22626 -5.80445E-02-1.56825E-04-4.85859E-04-1.06663E-02-1.03473E-04-1.99749E-04-9.71356E-04 2.10255E-04 6.23496E-06



 n o d a l   p r i n t   o u t   f o r   t i m e  s t e p   28803                              ( at time 1.4399559E+01 )

 nodal point  x-disp     y-disp      z-disp      x-vel       y-vel       z-vel      x-accl      y-accl      z-accl      x-coor      y-coor      z-coor
    22626 -4.75928E-02 8.61726E+00 2.96474E+00-1.52123E-02 1.39213E+00 1.63400E+00-9.27205E-03-5.36496E-04 3.23760E-01 4.61178E+00-1.95736E+01-4.20170E+01



 n o d a l   p r i n t   o u t   f o r   t i m e  s t e p   28803                              ( at time 1.4399559E+01 )

 nodal point  x-rot      y-rot       z-rot       x-rot vel   y-rot vel   z-rot vel   x-rot acc   y-rot acc   z-rot acc
    22626 -5.91098E-02-1.71361E-04-5.08332E-04-1.06623E-02-1.71423E-04-2.40194E-04 4.04421E-05-6.79576E-04-4.04489E-04



 n o d a l   p r i n t   o u t   f o r   t i m e  s t e p   29003                              ( at time 1.4499549E+01 )

 nodal point  x-disp     y-disp      z-disp      x-vel       y-vel       z-vel      x-accl      y-accl      z-accl      x-coor      y-coor      z-coor
    22626 -4.92747E-02 8.75649E+00 3.12950E+00-1.74803E-02 1.39202E+00 1.66162E+00-2.26827E-02-1.06465E-03 2.76267E-01 4.61010E+00-1.94343E+01-4.18522E+01



 n o d a l   p r i n t   o u t   f o r   t i m e  s t e p   29003                              ( at time 1.4499549E+01 )

 nodal point  x-rot      y-rot       z-rot       x-rot vel   y-rot vel   z-rot vel   x-rot acc   y-rot acc   z-rot acc
    22626 -6.01751E-02-1.87965E-04-5.33651E-04-1.06747E-02-1.58273E-04-2.71602E-04-1.24940E-04 1.31515E-04-3.14114E-04



 n o d a l   p r i n t   o u t   f o r   t i m e  s t e p   29203                              ( at time 1.4599539E+01 )

 nodal point  x-disp     y-disp      z-disp      x-vel       y-vel       z-vel      x-accl      y-accl      z-accl      x-coor      y-coor      z-coor
    22626 -5.10865E-02 8.89565E+00 3.29715E+00-1.89337E-02 1.39288E+00 1.69261E+00-1.45351E-02 8.63401E-03 3.09887E-01 4.60829E+00-1.92952E+01-4.16846E+01



 n o d a l   p r i n t   o u t   f o r   t i m e  s t e p   29203                              ( at time 1.4599539E+01 )

 nodal point  x-rot      y-rot       z-rot       x-rot vel   y-rot vel   z-rot vel   x-rot acc   y-rot acc   z-rot acc
    22626 -6.12487E-02-2.05440E-04-5.65386E-04-1.07711E-02-1.95725E-04-3.33434E-04-9.63644E-04-3.74558E-04-6.18385E-04



 n o d a l   p r i n t   o u t   f o r   t i m e  s t e p   29403                              ( at time 1.4699529E+01 )

 nodal point  x-disp     y-disp      z-disp      x-vel       y-vel       z-vel      x-accl      y-accl      z-accl      x-coor      y-coor      z-coor
    22626 -5.30733E-02 9.03515E+00 3.46760E+00-1.98846E-02 1.39780E+00 1.71638E+00-9.51032E-03 4.91788E-02 2.37779E-01 4.60630E+00-1.91557E+01-4.15141E+01



 n o d a l   p r i n t   o u t   f o r   t i m e  s t e p   29403                              ( at time 1.4699529E+01 )

 nodal point  x-rot      y-rot       z-rot       x-rot vel   y-rot vel   z-rot vel   x-rot acc   y-rot acc   z-rot acc
    22626 -6.23274E-02-2.27048E-04-5.99136E-04-1.08109E-02-2.19441E-04-3.05696E-04-3.98255E-04-2.37185E-04 2.77405E-04



 n o d a l   p r i n t   o u t   f o r   t i m e  s t e p   29604                              ( at time 1.4800019E+01 )

 nodal point  x-disp     y-disp      z-disp      x-vel       y-vel       z-vel      x-accl      y-accl      z-accl      x-coor      y-coor      z-coor
    22626 -5.50629E-02 9.17559E+00 3.64134E+00-2.00640E-02 1.39734E+00 1.74121E+00-1.78508E-03-4.57902E-03 2.47065E-01 4.60431E+00-1.90152E+01-4.13404E+01



 n o d a l   p r i n t   o u t   f o r   t i m e  s t e p   29604                              ( at time 1.4800019E+01 )

 nodal point  x-rot      y-rot       z-rot       x-rot vel   y-rot vel   z-rot vel   x-rot acc   y-rot acc   z-rot acc
    22626 -6.34152E-02-2.49744E-04-6.33304E-04-1.08789E-02-2.33030E-04-3.75064E-04-6.76463E-04-1.35227E-04-6.90291E-04



 n o d a l   p r i n t   o u t   f o r   t i m e  s t e p   29804                              ( at time 1.4900009E+01 )

 nodal point  x-disp     y-disp      z-disp      x-vel       y-vel       z-vel      x-accl      y-accl      z-accl      x-coor      y-coor      z-coor
    22626 -5.72532E-02 9.31552E+00 3.81681E+00-2.35225E-02 1.40069E+00 1.76576E+00-3.45882E-02 3.34666E-02 2.45575E-01 4.60212E+00-1.88753E+01-4.11649E+01



 n o d a l   p r i n t   o u t   f o r   t i m e  s t e p   29804                              ( at time 1.4900009E+01 )

 nodal point  x-rot      y-rot       z-rot       x-rot vel   y-rot vel   z-rot vel   x-rot acc   y-rot acc   z-rot acc
    22626 -6.45031E-02-2.72604E-04-6.73061E-04-1.09180E-02-2.47935E-04-4.23796E-04-3.91437E-04-1.49063E-04-4.87364E-04



 n o d a l   p r i n t   o u t   f o r   t i m e  s t e p   30004                              ( at time 1.4999999E+01 )

 nodal point  x-disp     y-disp      z-disp      x-vel       y-vel       z-vel      x-accl      y-accl      z-accl      x-coor      y-coor      z-coor
    22626 -5.96958E-02 9.45592E+00 3.99438E+00-2.50306E-02 1.40602E+00 1.78638E+00-1.50835E-02 5.33051E-02 2.06163E-01 4.59968E+00-1.87349E+01-4.09873E+01



 n o d a l   p r i n t   o u t   f o r   t i m e  s t e p   30004                              ( at time 1.4999999E+01 )

 nodal point  x-rot      y-rot       z-rot       x-rot vel   y-rot vel   z-rot vel   x-rot acc   y-rot acc   z-rot acc
    22626 -6.55955E-02-2.99638E-04-7.16161E-04-1.09692E-02-3.07642E-04-4.57522E-04-5.11720E-04-5.97127E-04-3.37302E-04



 n o d a l   p r i n t   o u t   f o r   t i m e  s t e p   30204                              ( at time 1.5099989E+01 )

 nodal point  x-disp     y-disp      z-disp      x-vel       y-vel       z-vel      x-accl      y-accl      z-accl      x-coor      y-coor      z-coor
    22626 -6.22060E-02 9.59662E+00 4.17417E+00-2.63661E-02 1.40955E+00 1.80815E+00-1.33558E-02 3.53301E-02 2.17685E-01 4.59717E+00-1.85942E+01-4.08075E+01



 n o d a l   p r i n t   o u t   f o r   t i m e  s t e p   30204                              ( at time 1.5099989E+01 )

 nodal point  x-rot      y-rot       z-rot       x-rot vel   y-rot vel   z-rot vel   x-rot acc   y-rot acc   z-rot acc
    22626 -6.66938E-02-3.29586E-04-7.62963E-04-1.10419E-02-2.93522E-04-4.83812E-04-7.27436E-04 1.41210E-04-2.62918E-04



 n o d a l   p r i n t   o u t   f o r   t i m e  s t e p   30404                              ( at time 1.5199979E+01 )

 nodal point  x-disp     y-disp      z-disp      x-vel       y-vel       z-vel      x-accl      y-accl      z-accl      x-coor      y-coor      z-coor
    22626 -6.49524E-02 9.73777E+00 4.35584E+00-2.81926E-02 1.41449E+00 1.82617E+00-1.82669E-02 4.93767E-02 1.80282E-01 4.59442E+00-1.84531E+01-4.06259E+01



 n o d a l   p r i n t   o u t   f o r   t i m e  s t e p   30404                              ( at time 1.5199979E+01 )

 nodal point  x-rot      y-rot       z-rot       x-rot vel   y-rot vel   z-rot vel   x-rot acc   y-rot acc   z-rot acc
    22626 -6.77990E-02-3.60192E-04-8.13384E-04-1.10839E-02-3.26953E-04-5.45764E-04-4.19817E-04-3.34341E-04-6.19584E-04



 n o d a l   p r i n t   o u t   f o r   t i m e  s t e p   30604                              ( at time 1.5299969E+01 )

 nodal point  x-disp     y-disp      z-disp      x-vel       y-vel       z-vel      x-accl      y-accl      z-accl      x-coor      y-coor      z-coor
    22626 -6.80215E-02 9.87951E+00 4.53924E+00-3.21481E-02 1.42122E+00 1.84203E+00-3.95586E-02 6.72873E-02 1.58579E-01 4.59135E+00-1.83113E+01-4.04425E+01



 n o d a l   p r i n t   o u t   f o r   t i m e  s t e p   30604                              ( at time 1.5299969E+01 )

 nodal point  x-rot      y-rot       z-rot       x-rot vel   y-rot vel   z-rot vel   x-rot acc   y-rot acc   z-rot acc
    22626 -6.89086E-02-3.94833E-04-8.69617E-04-1.11262E-02-3.69843E-04-5.91066E-04-4.23133E-04-4.28947E-04-4.53072E-04
