 LSTC 50th% Full_FE H-III Dummy (Beta Version, February 17, 2019)        
                    ls-dyna smp s R16 R16.0_619_d222963 date 03/18/2025

{BEGIN LEGEND}
 Entity #        Title
        1     Upper_Neck_Force_INJURY                                              
{END LEGEND}



 line#1  section#     time        x-force     y-force     z-force    magnitude
 line#2  resultant  moments       x-moment    y-moment    z-moment   magnitude
 line#3  centroids                x           y           z            area  
           1    0.00000E+00     0.0000E+00  0.0000E+00  0.0000E+00  0.0000E+00
ac ID =   33377                 0.0000E+00  0.0000E+00  0.0000E+00  0.0000E+00
                               -3.7437E-01  1.0501E+01 -4.6940E+01  0.0000E+00

           1    1.00490E-01     1.3629E-04 -4.9880E-03  2.5983E-01  2.5988E-01
ac ID =   33377                 4.2544E-01 -1.2521E+00 -2.7100E-02  1.3227E+00
                               -3.7387E-01  1.0590E+01 -4.6886E+01  2.5147E+03

           1    2.00480E-01    -4.4285E-02  6.0451E-04  4.4117E-01  4.4339E-01
ac ID =   33377                 3.0759E-01 -1.5969E+00  2.0047E-02  1.6263E+00
                               -3.7386E-01  1.0591E+01 -4.6888E+01  2.5147E+03

           1    3.00470E-01     1.4883E-02 -3.2823E-03  2.1778E-01  2.1832E-01
ac ID =   33377                 2.7791E-02 -3.3870E-01  6.5341E-02  3.4606E-01
                               -3.7382E-01  1.0591E+01 -4.6889E+01  2.5147E+03

           1    4.00460E-01     2.9973E-03  1.0630E-02  8.8157E-02  8.8846E-02
ac ID =   33377                -4.9727E-01 -9.4262E-01  9.2691E-04  1.0657E+00
                               -3.7384E-01  1.0592E+01 -4.6890E+01  2.5147E+03

           1    5.00450E-01    -4.0870E-02  4.3528E-03  1.6159E-01  1.6673E-01
ac ID =   33377                -3.9667E-01 -1.5047E+00 -1.1260E-01  1.5602E+00
                               -3.7385E-01  1.0594E+01 -4.6893E+01  2.5147E+03

           1    6.00440E-01    -1.0804E-02  4.0493E-03  3.4358E-01  3.4378E-01
ac ID =   33377                 9.8143E-02 -1.3240E+00 -4.0310E-02  1.3283E+00
                               -3.7385E-01  1.0595E+01 -4.6897E+01  2.5147E+03

           1    7.00430E-01     2.6544E-03 -5.6592E-03  2.9387E-01  2.9393E-01
ac ID =   33377                 1.3908E-01 -5.0089E-01  7.8023E-02  5.2566E-01
                               -3.7389E-01  1.0597E+01 -4.6901E+01  2.5147E+03

           1    8.00420E-01    -3.1099E-02 -1.0701E-03  1.0051E-01  1.0522E-01
ac ID =   33377                 8.5292E-02 -1.0557E+00  4.8668E-02  1.0603E+00
                               -3.7394E-01  1.0599E+01 -4.6905E+01  2.5147E+03

           1    9.00410E-01    -3.9163E-02  6.4035E-04  6.2135E-02  7.3450E-02
ac ID =   33377                 8.7634E-02 -1.0779E+00 -1.7322E-03  1.0814E+00
                               -3.7399E-01  1.0601E+01 -4.6909E+01  2.5147E+03

           1    1.00040E+00     1.5132E-02 -3.8446E-03  2.2088E-01  2.2144E-01
ac ID =   33377                 3.7291E-01 -2.9028E-01 -5.6532E-02  4.7594E-01
                               -3.7400E-01  1.0604E+01 -4.6915E+01  2.5147E+03

           1    1.10039E+00     4.0460E-04 -3.3674E-03  2.7114E-01  2.7117E-01
ac ID =   33377                 3.4610E-01 -8.8352E-01 -5.6421E-02  9.5057E-01
                               -3.7401E-01  1.0607E+01 -4.6921E+01  2.5147E+03

           1    1.20038E+00    -3.2346E-02 -4.0177E-04  1.2882E-01  1.3282E-01
ac ID =   33377                -1.5345E-01 -1.1783E+00  1.0783E-02  1.1883E+00
                               -3.7403E-01  1.0610E+01 -4.6927E+01  2.5147E+03

           1    1.30037E+00    -1.0148E-02  4.8936E-03  7.4884E-02  7.5727E-02
ac ID =   33377                -3.0207E-01 -8.8501E-01  1.7743E-02  9.3531E-01
                               -3.7407E-01  1.0612E+01 -4.6933E+01  2.5147E+03

           1    1.40036E+00     7.7413E-03  3.5830E-03  1.7357E-01  1.7378E-01
ac ID =   33377                -2.9028E-01 -8.3532E-01  2.8040E-02  8.8477E-01
                               -3.7409E-01  1.0616E+01 -4.6941E+01  2.5147E+03

           1    1.50035E+00    -2.6895E-02  1.1029E-03  3.2825E-01  3.2935E-01
ac ID =   33377                -2.0526E-02 -1.5771E+00 -4.5101E-02  1.5779E+00
                               -3.7413E-01  1.0620E+01 -4.6949E+01  2.5147E+03

           1    1.60034E+00    -1.9107E-02 -2.3938E-03  2.2137E-01  2.2220E-01
ac ID =   33377                -1.4333E-02 -1.3689E+00 -1.4158E-02  1.3690E+00
                               -3.7419E-01  1.0624E+01 -4.6957E+01  2.5147E+03

           1    1.70033E+00    -2.7034E-03 -2.7501E-04  5.8529E-02  5.8592E-02
ac ID =   33377                -4.4761E-02 -6.7240E-01  8.5512E-02  6.7929E-01
                               -3.7427E-01  1.0627E+01 -4.6965E+01  2.5147E+03

           1    1.80032E+00    -2.0169E-02  1.0580E-03  7.7895E-02  8.0471E-02
ac ID =   33377                 8.4731E-02 -1.1157E+00  1.2693E-01  1.1261E+00
                               -3.7434E-01  1.0632E+01 -4.6974E+01  2.5147E+03

           1    1.90031E+00    -7.5279E-03 -2.9369E-03  1.9141E-01  1.9158E-01
ac ID =   33377                 2.6775E-01 -8.2508E-01 -7.2796E-02  8.7049E-01
                               -3.7439E-01  1.0636E+01 -4.6984E+01  2.5147E+03

           1    2.00030E+00    -2.1073E-03 -4.5098E-03  1.5635E-01  1.5643E-01
ac ID =   33377                 2.0178E-01 -4.4191E-01 -1.4192E-01  5.0610E-01
                               -3.7444E-01  1.0641E+01 -4.6993E+01  2.5147E+03

           1    2.10029E+00    -2.5545E-02  2.5592E-03  2.9924E-03  2.5847E-02
ac ID =   33377                -7.5868E-02 -6.9111E-01  4.3985E-02  6.9665E-01
                               -3.7450E-01  1.0645E+01 -4.7003E+01  2.5147E+03

           1    2.20028E+00    -1.3104E-02  5.1514E-03  3.1481E-03  1.4428E-02
ac ID =   33377                -2.3697E-01 -6.5770E-01  2.4159E-02  6.9950E-01
                               -3.7456E-01  1.0650E+01 -4.7013E+01  2.5147E+03

           1    2.30027E+00     1.3070E-03  4.7083E-03  1.4884E-01  1.4892E-01
ac ID =   33377                -1.4940E-01 -8.1916E-01 -6.4773E-02  8.3519E-01
                               -3.7462E-01  1.0655E+01 -4.7024E+01  2.5147E+03

           1    2.40026E+00    -1.7308E-02 -1.5529E-03  1.8894E-01  1.8974E-01
ac ID =   33377                -1.5033E-01 -1.1890E+00  7.4872E-02  1.2008E+00
                               -3.7469E-01  1.0661E+01 -4.7035E+01  2.5147E+03

           1    2.50025E+00    -1.8630E-02  1.3723E-03  1.3619E-04  1.8680E-02
ac ID =   33377                -1.9501E-01 -8.9232E-01  1.2959E-01  9.2252E-01
                               -3.7479E-01  1.0665E+01 -4.7045E+01  2.5147E+03

           1    2.60024E+00    -6.9177E-03  5.9368E-03 -7.6505E-02  7.7046E-02
ac ID =   33377                -2.0917E-01 -1.8507E-01  3.7563E-02  2.8181E-01
                               -3.7490E-01  1.0671E+01 -4.7056E+01  2.5147E+03

           1    2.70023E+00    -1.2004E-02 -1.6006E-03  1.0078E-02  1.5755E-02
ac ID =   33377                 3.4175E-02 -2.1837E-01  3.7616E-02  2.2421E-01
                               -3.7501E-01  1.0676E+01 -4.7068E+01  2.5147E+03

           1    2.80022E+00    -5.4214E-03 -4.5876E-03  6.3226E-02  6.3623E-02
ac ID =   33377                 3.6419E-01 -1.3847E-01 -1.6306E-02  3.8997E-01
                               -3.7510E-01  1.0682E+01 -4.7079E+01  2.5147E+03

           1    2.90021E+00     5.1576E-03 -2.7601E-03 -1.0003E-02  1.1588E-02
ac ID =   33377                 1.4746E-01  3.1019E-01 -7.6156E-02  3.5179E-01
                               -3.7520E-01  1.0687E+01 -4.7090E+01  2.5147E+03

           1    3.00020E+00    -7.3545E-03  1.9210E-03 -8.8919E-02  8.9243E-02
ac ID =   33377                -3.9020E-02  7.3813E-02 -5.3573E-02  9.9202E-02
                               -3.7530E-01  1.0692E+01 -4.7101E+01  2.5147E+03

           1    3.10019E+00    -2.7406E-03  4.6579E-04 -8.7451E-03  9.1763E-03
ac ID =   33377                 4.0115E-02 -2.5240E-01 -3.1865E-02  2.5755E-01
                               -3.7538E-01  1.0698E+01 -4.7113E+01  2.5147E+03

           1    3.20018E+00     3.3303E-03  1.7164E-03  6.9817E-02  6.9918E-02
ac ID =   33377                -2.4528E-02 -3.4328E-01  2.3191E-02  3.4493E-01
                               -3.7545E-01  1.0703E+01 -4.7125E+01  2.5147E+03

           1    3.30017E+00     3.2757E-04  1.1630E-03  1.3546E-02  1.3600E-02
ac ID =   33377                -2.2829E-01 -3.6397E-01  1.1568E-01  4.4494E-01
                               -3.7554E-01  1.0708E+01 -4.7137E+01  2.5147E+03

           1    3.40016E+00    -2.7065E-03  3.0223E-03 -1.0092E-01  1.0100E-01
ac ID =   33377                -3.0660E-01 -2.9574E-02  1.1700E-01  3.2949E-01
                               -3.7565E-01  1.0713E+01 -4.7148E+01  2.5147E+03

           1    3.50015E+00    -5.0815E-03  3.1320E-03 -1.3208E-01  1.3221E-01
ac ID =   33377                -1.5791E-01  2.6827E-01  4.2621E-02  3.1420E-01
                               -3.7576E-01  1.0719E+01 -4.7160E+01  2.5147E+03

           1    3.60014E+00     5.7079E-03 -3.1997E-03 -5.2760E-02  5.3164E-02
ac ID =   33377                 1.2010E-01  7.3822E-01 -9.4117E-02  7.5382E-01
                               -3.7586E-01  1.0724E+01 -4.7172E+01  2.5147E+03

           1    3.70013E+00     1.0808E-02 -4.9399E-03 -4.6516E-02  4.8010E-02
ac ID =   33377                 3.1156E-01  8.6331E-01 -1.6749E-01  9.3297E-01
                               -3.7596E-01  1.0729E+01 -4.7183E+01  2.5147E+03

           1    3.80012E+00     7.6368E-03 -2.8013E-03 -1.2886E-01  1.2911E-01
ac ID =   33377                 2.5080E-01  1.0779E+00 -6.6304E-02  1.1087E+00
                               -3.7605E-01  1.0734E+01 -4.7195E+01  2.5147E+03

           1    3.90011E+00     8.6008E-03 -4.7080E-04 -1.8967E-01  1.8987E-01
ac ID =   33377                 1.6700E-01  1.1302E+00 -5.5254E-02  1.1438E+00
                               -3.7613E-01  1.0739E+01 -4.7206E+01  2.5147E+03

           1    4.00010E+00     2.3246E-03 -9.5150E-04 -1.3562E-01  1.3564E-01
ac ID =   33377                -2.7165E-02  7.1147E-01 -2.4890E-02  7.1243E-01
                               -3.7618E-01  1.0744E+01 -4.7217E+01  2.5147E+03

           1    4.10009E+00     4.2879E-03 -3.1960E-04 -9.7879E-02  9.7973E-02
ac ID =   33377                -7.1331E-02  5.4865E-01  2.8546E-03  5.5327E-01
                               -3.7623E-01  1.0748E+01 -4.7228E+01  2.5147E+03

           1    4.20008E+00    -1.8510E-03  2.8617E-03 -1.4144E-01  1.4148E-01
ac ID =   33377                -2.2464E-01  5.1952E-01  9.9950E-02  5.7477E-01
                               -3.7629E-01  1.0753E+01 -4.7239E+01  2.5147E+03

           1    4.30007E+00     2.0084E-03  4.9121E-03 -2.3853E-01  2.3859E-01
ac ID =   33377                -3.3795E-01  9.2333E-01  9.3132E-02  9.8763E-01
                               -3.7637E-01  1.0757E+01 -4.7249E+01  2.5147E+03

           1    4.40006E+00     1.2240E-02  4.1235E-03 -2.0635E-01  2.0676E-01
ac ID =   33377                -1.3018E-01  1.2319E+00  3.3377E-02  1.2392E+00
                               -3.7644E-01  1.0761E+01 -4.7259E+01  2.5147E+03

           1    4.50005E+00     8.5988E-03 -2.7207E-03 -1.2191E-01  1.2224E-01
ac ID =   33377                 2.2173E-01  9.9418E-01 -4.6120E-02  1.0197E+00
                               -3.7650E-01  1.0765E+01 -4.7269E+01  2.5147E+03

           1    4.60004E+00     1.1555E-02 -4.8742E-03 -1.6111E-01  1.6159E-01
ac ID =   33377                 3.1407E-01  1.0927E+00 -1.0653E-01  1.1419E+00
                               -3.7657E-01  1.0768E+01 -4.7279E+01  2.5147E+03

           1    4.70003E+00     1.3919E-02 -4.5809E-04 -2.3657E-01  2.3698E-01
ac ID =   33377                 2.5015E-01  1.0865E+00 -5.8980E-02  1.1165E+00
                               -3.7662E-01  1.0772E+01 -4.7288E+01  2.5147E+03

           1    4.80002E+00     1.2018E-02 -1.5546E-04 -2.6132E-01  2.6159E-01
ac ID =   33377                 1.1585E-01  1.0393E+00 -8.4473E-03  1.0457E+00
                               -3.7665E-01  1.0775E+01 -4.7297E+01  2.5147E+03

           1    4.90001E+00     1.6866E-02  6.2088E-04 -2.0312E-01  2.0382E-01
ac ID =   33377                 1.2600E-02  1.1069E+00 -1.5327E-02  1.1071E+00
                               -3.7666E-01  1.0778E+01 -4.7306E+01  2.5147E+03

           1    5.00000E+00     1.7557E-02 -1.2205E-03 -1.8287E-01  1.8372E-01
ac ID =   33377                -1.5231E-01  1.1660E+00  8.1325E-02  1.1787E+00
                               -3.7666E-01  1.0782E+01 -4.7315E+01  2.5147E+03

           1    5.10049E+00     1.9471E-02  5.5940E-03 -2.6016E-01  2.6095E-01
ac ID =   33377                -2.9983E-01  1.3246E+00  1.0009E-01  1.3618E+00
                               -3.7667E-01  1.0785E+01 -4.7323E+01  2.5147E+03

           1    5.20048E+00     2.7726E-02  7.4194E-03 -2.9083E-01  2.9224E-01
ac ID =   33377                -4.0620E-01  1.6861E+00 -8.3645E-04  1.7343E+00
                               -3.7667E-01  1.0788E+01 -4.7331E+01  2.5147E+03

           1    5.30047E+00     2.9627E-02 -3.8283E-04 -2.6269E-01  2.6435E-01
ac ID =   33377                -1.2478E-01  1.6331E+00 -4.9231E-02  1.6386E+00
                               -3.7669E-01  1.0792E+01 -4.7339E+01  2.5147E+03

           1    5.40046E+00     3.9600E-02 -4.8074E-04 -2.4738E-01  2.5053E-01
ac ID =   33377                 1.1149E-01  1.7079E+00 -8.9725E-02  1.7139E+00
                               -3.7668E-01  1.0795E+01 -4.7347E+01  2.5147E+03

           1    5.50045E+00     4.4786E-02  1.7585E-03 -3.2918E-01  3.3222E-01
ac ID =   33377                 3.8831E-02  1.8615E+00 -4.2585E-02  1.8624E+00
                               -3.7666E-01  1.0799E+01 -4.7355E+01  2.5147E+03

           1    5.60044E+00     4.2527E-02  2.3556E-04 -4.0490E-01  4.0713E-01
ac ID =   33377                 1.5861E-01  2.0550E+00  3.8924E-02  2.0615E+00
                               -3.7665E-01  1.0804E+01 -4.7362E+01  2.5147E+03

           1    5.70043E+00     4.6245E-02 -2.0579E-03 -4.1329E-01  4.1587E-01
ac ID =   33377                 1.4941E-01  2.0854E+00  8.8860E-02  2.0926E+00
                               -3.7658E-01  1.0809E+01 -4.7369E+01  2.5147E+03

           1    5.80042E+00     6.1428E-02  1.6474E-03 -3.7700E-01  3.8197E-01
ac ID =   33377                -9.4898E-02  2.2140E+00 -8.6427E-02  2.2177E+00
                               -3.7647E-01  1.0815E+01 -4.7377E+01  2.5147E+03

           1    5.90041E+00     6.9617E-02  6.9566E-03 -3.8565E-01  3.9195E-01
ac ID =   33377                -2.8468E-01  2.5587E+00 -7.9987E-02  2.5758E+00
                               -3.7639E-01  1.0822E+01 -4.7384E+01  2.5147E+03

           1    6.00040E+00     6.6249E-02  8.1672E-04 -4.5810E-01  4.6287E-01
ac ID =   33377                -1.6456E-01  2.5648E+00  1.0982E-01  2.5724E+00
                               -3.7627E-01  1.0830E+01 -4.7391E+01  2.5147E+03

           1    6.10039E+00     7.3569E-02  7.8282E-03 -4.5952E-01  4.6544E-01
ac ID =   33377                -3.9714E-01  2.5324E+00  1.1631E-01  2.5660E+00
                               -3.7612E-01  1.0839E+01 -4.7399E+01  2.5147E+03

           1    6.20038E+00     8.3367E-02  5.0300E-03 -4.2849E-01  4.3655E-01
ac ID =   33377                -3.0286E-01  2.4616E+00 -5.7280E-02  2.4808E+00
                               -3.7600E-01  1.0849E+01 -4.7407E+01  2.5147E+03

           1    6.30037E+00     7.8785E-02 -3.5209E-03 -4.5530E-01  4.6208E-01
ac ID =   33377                 1.3288E-02  2.3559E+00 -3.1953E-01  2.3775E+00
                               -3.7588E-01  1.0861E+01 -4.7415E+01  2.5147E+03

           1    6.40036E+00     8.1765E-02 -6.2024E-03 -5.4122E-01  5.4740E-01
ac ID =   33377                 7.9859E-02  2.5764E+00 -2.0970E-01  2.5862E+00
                               -3.7574E-01  1.0874E+01 -4.7423E+01  2.5147E+03

           1    6.50035E+00     1.0272E-01  7.9530E-03 -5.9149E-01  6.0039E-01
ac ID =   33377                -7.9724E-02  3.2523E+00 -4.8243E-02  3.2537E+00
                               -3.7566E-01  1.0889E+01 -4.7431E+01  2.5147E+03

           1    6.60034E+00     9.8988E-02  2.6744E-03 -5.6984E-01  5.7838E-01
ac ID =   33377                -6.9794E-02  3.1890E+00  1.6043E-01  3.1938E+00
                               -3.7552E-01  1.0907E+01 -4.7440E+01  2.5147E+03

           1    6.70033E+00     1.0457E-01 -3.8911E-03 -5.8501E-01  5.9430E-01
ac ID =   33377                -7.2362E-02  3.3371E+00 -3.0139E-02  3.3381E+00
                               -3.7533E-01  1.0925E+01 -4.7450E+01  2.5147E+03

           1    6.80032E+00     1.1710E-01  8.1118E-03 -6.3495E-01  6.4570E-01
ac ID =   33377                -4.4499E-01  3.6497E+00 -2.6744E-01  3.6865E+00
                               -3.7515E-01  1.0946E+01 -4.7460E+01  2.5147E+03

           1    6.90031E+00     1.1729E-01  1.3966E-02 -6.8543E-01  6.9553E-01
ac ID =   33377                -6.5365E-01  3.6233E+00 -6.6480E-02  3.6824E+00
                               -3.7497E-01  1.0970E+01 -4.7471E+01  2.5147E+03

           1    7.00030E+00     1.2250E-01  3.4295E-03 -6.9830E-01  7.0897E-01
ac ID =   33377                -4.1347E-01  3.7625E+00  1.2111E-02  3.7852E+00
                               -3.7476E-01  1.0995E+01 -4.7482E+01  2.5147E+03

           1    7.10029E+00     1.3732E-01  2.6055E-03 -7.2338E-01  7.3631E-01
ac ID =   33377                -5.8156E-01  3.9303E+00  6.4869E-03  3.9731E+00
                               -3.7455E-01  1.1023E+01 -4.7494E+01  2.5147E+03

           1    7.20028E+00     1.4087E-01  1.0699E-02 -7.9841E-01  8.1081E-01
ac ID =   33377                -4.8122E-01  4.3751E+00 -2.9146E-01  4.4111E+00
                               -3.7446E-01  1.1054E+01 -4.7507E+01  2.5147E+03

           1    7.30027E+00     1.3468E-01 -4.0020E-04 -8.8383E-01  8.9404E-01
ac ID =   33377                -6.0550E-02  4.5405E+00  2.9320E-02  4.5410E+00
                               -3.7430E-01  1.1087E+01 -4.7521E+01  2.5147E+03

           1    7.40026E+00     1.6274E-01 -8.9248E-05 -9.2484E-01  9.3904E-01
ac ID =   33377                -5.2587E-02  5.3426E+00  1.1943E-01  5.3442E+00
                               -3.7411E-01  1.1123E+01 -4.7535E+01  2.5147E+03

           1    7.50025E+00     1.6030E-01  3.8530E-03 -9.1306E-01  9.2704E-01
ac ID =   33377                -2.3775E-01  5.5173E+00  2.6824E-03  5.5224E+00
                               -3.7398E-01  1.1162E+01 -4.7551E+01  2.5147E+03

           1    7.60024E+00     1.5580E-01 -3.1170E-03 -9.6224E-01  9.7478E-01
ac ID =   33377                -1.2606E-01  5.3872E+00 -1.3796E-01  5.3905E+00
                               -3.7380E-01  1.1204E+01 -4.7566E+01  2.5147E+03

           1    7.70023E+00     1.6979E-01  1.1122E-04 -1.0210E+00  1.0350E+00
ac ID =   33377                -4.4819E-01  5.7259E+00 -2.2983E-01  5.7480E+00
                               -3.7361E-01  1.1248E+01 -4.7583E+01  2.5147E+03

           1    7.80022E+00     1.7332E-01  1.1888E-02 -1.0510E+00  1.0652E+00
ac ID =   33377                -5.4947E-01  5.6171E+00 -2.0593E-01  5.6477E+00
                               -3.7349E-01  1.1295E+01 -4.7600E+01  2.5147E+03

           1    7.90021E+00     1.7205E-01  9.9434E-03 -1.0885E+00  1.1021E+00
ac ID =   33377                -7.5498E-01  5.8481E+00 -1.7306E-03  5.8967E+00
                               -3.7336E-01  1.1346E+01 -4.7619E+01  2.5147E+03

           1    8.00020E+00     1.8290E-01 -1.0883E-03 -1.1229E+00  1.1377E+00
ac ID =   33377                -4.7723E-01  6.1799E+00 -8.5298E-02  6.1988E+00
                               -3.7322E-01  1.1399E+01 -4.7638E+01  2.5147E+03

           1    8.10019E+00     2.0427E-01  4.5230E-03 -1.2303E+00  1.2471E+00
ac ID =   33377                -4.7470E-01  6.9873E+00 -7.9362E-02  7.0039E+00
                               -3.7316E-01  1.1456E+01 -4.7657E+01  2.5147E+03

           1    8.20018E+00     1.9765E-01  1.0182E-02 -1.3010E+00  1.3159E+00
ac ID =   33377                -3.1825E-01  7.2907E+00  6.8504E-02  7.2979E+00
                               -3.7311E-01  1.1516E+01 -4.7678E+01  2.5147E+03

           1    8.30017E+00     2.0542E-01 -4.2991E-03 -1.3196E+00  1.3355E+00
ac ID =   33377                 1.7192E-02  7.4565E+00 -6.9405E-02  7.4569E+00
                               -3.7302E-01  1.1578E+01 -4.7699E+01  2.5147E+03

           1    8.40016E+00     2.1675E-01  3.1741E-03 -1.3615E+00  1.3787E+00
ac ID =   33377                -1.9150E-01  7.9763E+00 -1.8656E-01  7.9807E+00
                               -3.7295E-01  1.1644E+01 -4.7721E+01  2.5147E+03

           1    8.50015E+00     2.1254E-01 -2.5734E-04 -1.4445E+00  1.4600E+00
ac ID =   33377                -2.4618E-01  8.1339E+00 -8.0142E-02  8.1380E+00
                               -3.7287E-01  1.1713E+01 -4.7743E+01  2.5147E+03

           1    8.60014E+00     2.1875E-01  5.5641E-03 -1.5236E+00  1.5393E+00
ac ID =   33377                -4.0834E-01  8.5103E+00  7.1935E-02  8.5203E+00
                               -3.7280E-01  1.1785E+01 -4.7765E+01  2.5147E+03

           1    8.70013E+00     2.2678E-01  1.2371E-02 -1.5727E+00  1.5890E+00
ac ID =   33377                -7.5294E-01  8.7263E+00  1.3945E-01  8.7598E+00
                               -3.7275E-01  1.1860E+01 -4.7788E+01  2.5147E+03

           1    8.80012E+00     2.3260E-01  5.3201E-03 -1.6411E+00  1.6575E+00
ac ID =   33377                -7.0333E-01  9.0112E+00 -6.6879E-02  9.0389E+00
                               -3.7269E-01  1.1938E+01 -4.7812E+01  2.5147E+03

           1    8.90011E+00     2.3885E-01 -1.3696E-03 -1.7165E+00  1.7330E+00
ac ID =   33377                -6.0473E-01  9.5234E+00 -1.2089E-01  9.5434E+00
                               -3.7268E-01  1.2019E+01 -4.7835E+01  2.5147E+03

           1    9.00010E+00     2.5918E-01  7.4763E-03 -1.8143E+00  1.8327E+00
ac ID =   33377                -5.1155E-01  1.0041E+01  2.7965E-02  1.0054E+01
                               -3.7271E-01  1.2103E+01 -4.7859E+01  2.5147E+03

           1    9.10009E+00     2.5711E-01  1.9674E-03 -1.8769E+00  1.8945E+00
ac ID =   33377                -1.5156E-01  1.0601E+01  1.5339E-01  1.0603E+01
                               -3.7276E-01  1.2190E+01 -4.7882E+01  2.5147E+03

           1    9.20008E+00     2.6289E-01 -5.1402E-03 -1.9278E+00  1.9456E+00
ac ID =   33377                -1.7477E-01  1.0732E+01  4.4487E-02  1.0734E+01
                               -3.7279E-01  1.2281E+01 -4.7906E+01  2.5147E+03

           1    9.30007E+00     2.6444E-01 -2.2939E-03 -2.0153E+00  2.0326E+00
ac ID =   33377                -2.0650E-01  1.1125E+01 -1.8027E-01  1.1129E+01
                               -3.7285E-01  1.2373E+01 -4.7929E+01  2.5147E+03

           1    9.40006E+00     2.8095E-01  2.3009E-03 -2.0940E+00  2.1128E+00
ac ID =   33377                -2.7758E-01  1.1438E+01 -2.2456E-01  1.1443E+01
                               -3.7292E-01  1.2469E+01 -4.7952E+01  2.5147E+03

           1    9.50005E+00     2.8454E-01  3.4140E-03 -2.1708E+00  2.1894E+00
ac ID =   33377                -5.8552E-01  1.1914E+01 -7.5326E-02  1.1929E+01
                               -3.7293E-01  1.2568E+01 -4.7975E+01  2.5147E+03

           1    9.60004E+00     2.9422E-01  6.5980E-03 -2.2415E+00  2.2607E+00
ac ID =   33377                -7.7651E-01  1.2534E+01 -3.6823E-02  1.2558E+01
                               -3.7300E-01  1.2669E+01 -4.7998E+01  2.5147E+03

           1    9.70003E+00     3.0367E-01  9.1942E-03 -2.2949E+00  2.3149E+00
ac ID =   33377                -7.5462E-01  1.3145E+01  6.7885E-02  1.3167E+01
                               -3.7309E-01  1.2774E+01 -4.8020E+01  2.5147E+03

           1    9.80002E+00     3.1384E-01 -3.7993E-04 -2.3744E+00  2.3951E+00
ac ID =   33377                -6.8726E-01  1.3597E+01  1.4577E-01  1.3615E+01
                               -3.7314E-01  1.2881E+01 -4.8041E+01  2.5147E+03

           1    9.90001E+00     3.2080E-01  5.2282E-03 -2.4732E+00  2.4939E+00
ac ID =   33377                -5.1881E-01  1.4098E+01  1.3017E-01  1.4108E+01
                               -3.7329E-01  1.2990E+01 -4.8062E+01  2.5147E+03

           1    1.00005E+01     3.3586E-01 -2.6331E-03 -2.5485E+00  2.5705E+00
ac ID =   33377                -2.2394E-01  1.5074E+01  1.3571E-01  1.5076E+01
                               -3.7344E-01  1.3103E+01 -4.8082E+01  2.5147E+03

           1    1.01005E+01     3.3693E-01 -3.1460E-03 -2.6250E+00  2.6466E+00
ac ID =   33377                -3.6692E-01  1.5462E+01  7.4400E-02  1.5466E+01
                               -3.7356E-01  1.3218E+01 -4.8101E+01  2.5147E+03

           1    1.02005E+01     3.4364E-01  1.6133E-03 -2.7336E+00  2.7551E+00
ac ID =   33377                -5.3738E-01  1.6168E+01 -1.7285E-01  1.6178E+01
                               -3.7373E-01  1.3335E+01 -4.8119E+01  2.5147E+03

           1    1.03005E+01     3.5482E-01  2.0343E-04 -2.8101E+00  2.8324E+00
ac ID =   33377                -4.4416E-01  1.6873E+01 -1.1961E-01  1.6879E+01
                               -3.7394E-01  1.3455E+01 -4.8136E+01  2.5147E+03

           1    1.04005E+01     3.6595E-01  4.6203E-03 -2.8947E+00  2.9177E+00
ac ID =   33377                -8.0985E-01  1.7499E+01  9.5830E-02  1.7518E+01
                               -3.7412E-01  1.3576E+01 -4.8152E+01  2.5147E+03

           1    1.05004E+01     3.6628E-01 -5.1524E-04 -2.9434E+00  2.9661E+00
ac ID =   33377                -6.8202E-01  1.7880E+01  1.4254E-01  1.7893E+01
                               -3.7437E-01  1.3700E+01 -4.8166E+01  2.5147E+03

           1    1.06004E+01     3.8746E-01  1.1468E-02 -2.9986E+00  3.0235E+00
ac ID =   33377                -9.8849E-01  1.8555E+01  1.7843E-01  1.8583E+01
                               -3.7470E-01  1.3826E+01 -4.8178E+01  2.5147E+03

           1    1.07004E+01     3.8453E-01 -1.6603E-04 -3.0758E+00  3.0997E+00
ac ID =   33377                -7.3119E-01  1.9040E+01 -5.7085E-03  1.9054E+01
                               -3.7503E-01  1.3954E+01 -4.8189E+01  2.5147E+03

           1    1.08004E+01     3.8304E-01 -7.7644E-03 -3.1415E+00  3.1648E+00
ac ID =   33377                -4.4742E-01  1.9248E+01  6.0056E-02  1.9253E+01
                               -3.7542E-01  1.4083E+01 -4.8197E+01  2.5147E+03

           1    1.09004E+01     3.9348E-01  7.3066E-03 -3.2223E+00  3.2462E+00
ac ID =   33377                -5.3320E-01  1.9840E+01  9.0380E-02  1.9848E+01
                               -3.7597E-01  1.4214E+01 -4.8204E+01  2.5147E+03

           1    1.10004E+01     3.9997E-01 -7.8529E-04 -3.2713E+00  3.2957E+00
ac ID =   33377                -4.3019E-01  2.0286E+01  3.8744E-01  2.0294E+01
                               -3.7648E-01  1.4347E+01 -4.8208E+01  2.5147E+03

           1    1.11004E+01     4.1390E-01 -9.9040E-03 -3.3391E+00  3.3647E+00
ac ID =   33377                -3.2984E-01  2.1020E+01  3.9447E-01  2.1027E+01
                               -3.7704E-01  1.4481E+01 -4.8209E+01  2.5147E+03

           1    1.12004E+01     3.9949E-01 -3.5066E-03 -3.3901E+00  3.4136E+00
ac ID =   33377                -3.5384E-01  2.1452E+01  3.6047E-02  2.1455E+01
                               -3.7772E-01  1.4616E+01 -4.8208E+01  2.5147E+03

           1    1.13004E+01     4.0697E-01 -9.4778E-03 -3.4163E+00  3.4404E+00
ac ID =   33377                -5.6124E-01  2.1909E+01 -8.9954E-02  2.1916E+01
                               -3.7836E-01  1.4752E+01 -4.8203E+01  2.5147E+03

           1    1.14004E+01     4.1678E-01  6.1165E-03 -3.4721E+00  3.4970E+00
ac ID =   33377                -8.9062E-01  2.2359E+01 -2.7413E-01  2.2379E+01
                               -3.7912E-01  1.4888E+01 -4.8196E+01  2.5147E+03

           1    1.15003E+01     4.2089E-01 -1.4708E-02 -3.4701E+00  3.4955E+00
ac ID =   33377                -3.2263E-01  2.2374E+01 -1.3056E-01  2.2377E+01
                               -3.7983E-01  1.5026E+01 -4.8185E+01  2.5147E+03

           1    1.16003E+01     4.2369E-01  7.3226E-03 -3.5355E+00  3.5608E+00
ac ID =   33377                -9.7450E-01  2.3068E+01  6.1516E-02  2.3089E+01
                               -3.8060E-01  1.5164E+01 -4.8170E+01  2.5147E+03

           1    1.17003E+01     4.2899E-01  3.3961E-03 -3.6417E+00  3.6669E+00
ac ID =   33377                -5.7428E-01  2.3933E+01 -1.0712E-01  2.3940E+01
                               -3.8142E-01  1.5302E+01 -4.8152E+01  2.5147E+03

           1    1.18003E+01     4.4203E-01 -1.1519E-02 -3.6993E+00  3.7257E+00
ac ID =   33377                -5.2152E-01  2.4569E+01 -1.7422E-01  2.4575E+01
                               -3.8216E-01  1.5440E+01 -4.8131E+01  2.5147E+03

           1    1.19003E+01     4.4723E-01  2.8167E-03 -3.7336E+00  3.7603E+00
ac ID =   33377                -1.4310E-01  2.5199E+01 -5.5710E-01  2.5205E+01
                               -3.8301E-01  1.5579E+01 -4.8106E+01  2.5147E+03

           1    1.20003E+01     4.6891E-01  5.5319E-03 -3.7535E+00  3.7827E+00
ac ID =   33377                -8.7671E-01  2.5870E+01  1.8824E-01  2.5886E+01
                               -3.8378E-01  1.5719E+01 -4.8077E+01  2.5147E+03

           1    1.21003E+01     4.6498E-01 -1.9558E-02 -3.8110E+00  3.8393E+00
ac ID =   33377                -1.4023E-01  2.6364E+01  5.2961E-01  2.6369E+01
                               -3.8458E-01  1.5858E+01 -4.8044E+01  2.5147E+03

           1    1.22003E+01     4.8175E-01 -3.9980E-04 -3.8334E+00  3.8636E+00
ac ID =   33377                -4.6617E-01  2.6820E+01  7.2227E-02  2.6824E+01
                               -3.8539E-01  1.5998E+01 -4.8007E+01  2.5147E+03

           1    1.23003E+01     4.7880E-01  1.2515E-02 -3.8457E+00  3.8754E+00
ac ID =   33377                -9.4431E-01  2.6799E+01 -4.2264E-01  2.6819E+01
                               -3.8616E-01  1.6138E+01 -4.7967E+01  2.5147E+03

           1    1.24003E+01     5.0351E-01 -1.1960E-02 -3.8435E+00  3.8764E+00
ac ID =   33377                -6.5580E-01  2.7617E+01 -2.8965E-01  2.7626E+01
                               -3.8698E-01  1.6279E+01 -4.7923E+01  2.5147E+03

           1    1.25002E+01     4.4972E-01 -2.2779E-03 -3.8058E+00  3.8323E+00
ac ID =   33377                -4.9274E-01  2.7013E+01  4.7739E-01  2.7022E+01
                               -3.8781E-01  1.6419E+01 -4.7875E+01  2.5147E+03

           1    1.26002E+01     5.0577E-01  1.1418E-02 -3.8849E+00  3.9177E+00
ac ID =   33377                -7.9098E-01  2.8210E+01  6.9622E-01  2.8230E+01
                               -3.8861E-01  1.6559E+01 -4.7823E+01  2.5147E+03

           1    1.27002E+01     4.9753E-01 -4.0380E-03 -3.8642E+00  3.8961E+00
ac ID =   33377                -5.8854E-01  2.8432E+01  2.9406E-01  2.8440E+01
                               -3.8950E-01  1.6699E+01 -4.7766E+01  2.5147E+03

           1    1.28002E+01     4.9880E-01 -8.4448E-03 -3.8402E+00  3.8725E+00
ac ID =   33377                 3.5736E-02  2.8407E+01 -1.3194E-01  2.8407E+01
                               -3.9028E-01  1.6838E+01 -4.7706E+01  2.5147E+03

           1    1.29002E+01     5.1158E-01 -2.2205E-03 -3.8565E+00  3.8903E+00
ac ID =   33377                -6.1159E-01  2.9823E+01 -4.1726E-01  2.9832E+01
                               -3.9106E-01  1.6977E+01 -4.7641E+01  2.5147E+03

           1    1.30002E+01     4.8476E-01  3.2698E-03 -3.7663E+00  3.7973E+00
ac ID =   33377                -3.0185E-01  2.8842E+01 -2.1530E-01  2.8844E+01
                               -3.9191E-01  1.7116E+01 -4.7572E+01  2.5147E+03

           1    1.31002E+01     5.2758E-01  6.4937E-03 -3.8097E+00  3.8461E+00
ac ID =   33377                -5.3406E-01  2.9605E+01 -2.5129E-02  2.9610E+01
                               -3.9269E-01  1.7254E+01 -4.7499E+01  2.5147E+03

           1    1.32002E+01     4.9812E-01 -7.2443E-03 -3.7873E+00  3.8200E+00
ac ID =   33377                -5.2232E-01  2.9603E+01 -4.5975E-01  2.9611E+01
                               -3.9342E-01  1.7392E+01 -4.7422E+01  2.5147E+03

           1    1.33002E+01     5.0497E-01  1.0409E-02 -3.6900E+00  3.7244E+00
ac ID =   33377                -7.5817E-01  2.9359E+01 -5.7749E-01  2.9374E+01
                               -3.9422E-01  1.7530E+01 -4.7341E+01  2.5147E+03

           1    1.34002E+01     4.9776E-01  7.6630E-03 -3.7212E+00  3.7543E+00
ac ID =   33377                -8.1838E-01  3.0014E+01 -2.0877E-01  3.0026E+01
                               -3.9495E-01  1.7667E+01 -4.7256E+01  2.5147E+03

           1    1.35001E+01     5.2833E-01 -1.3070E-02 -3.7380E+00  3.7752E+00
ac ID =   33377                -4.3674E-01  3.0320E+01 -2.1515E-01  3.0324E+01
                               -3.9567E-01  1.7804E+01 -4.7167E+01  2.5147E+03

           1    1.36001E+01     4.9761E-01  1.1383E-02 -3.6438E+00  3.6776E+00
ac ID =   33377                -5.0503E-01  3.0416E+01 -5.3410E-01  3.0425E+01
                               -3.9645E-01  1.7941E+01 -4.7074E+01  2.5147E+03

           1    1.37001E+01     5.0286E-01  5.9372E-03 -3.6091E+00  3.6440E+00
ac ID =   33377                -6.1041E-01  2.9929E+01 -1.2938E-01  2.9935E+01
                               -3.9707E-01  1.8077E+01 -4.6977E+01  2.5147E+03

           1    1.38001E+01     5.2884E-01 -4.3115E-03 -3.5810E+00  3.6198E+00
ac ID =   33377                -8.3584E-01  3.1129E+01  8.6163E-01  3.1152E+01
                               -3.9775E-01  1.8213E+01 -4.6877E+01  2.5147E+03

           1    1.39001E+01     4.9696E-01 -9.7292E-03 -3.4841E+00  3.5193E+00
ac ID =   33377                -2.1395E-02  2.9409E+01  1.9517E-01  2.9410E+01
                               -3.9841E-01  1.8348E+01 -4.6773E+01  2.5147E+03

           1    1.40001E+01     4.9960E-01  1.4196E-02 -3.4781E+00  3.5138E+00
ac ID =   33377                -1.0241E+00  2.9464E+01 -3.2805E-02  2.9482E+01
                               -3.9898E-01  1.8484E+01 -4.6665E+01  2.5147E+03

           1    1.41001E+01     5.4919E-01  1.9210E-02 -3.4272E+00  3.4709E+00
ac ID =   33377                -1.3420E+00  3.0102E+01  1.3509E-01  3.0132E+01
                               -3.9961E-01  1.8619E+01 -4.6554E+01  2.5147E+03

           1    1.42001E+01     4.6835E-01 -3.2296E-04 -3.2883E+00  3.3215E+00
ac ID =   33377                -8.3152E-01  2.8529E+01  7.4481E-01  2.8551E+01
                               -4.0017E-01  1.8754E+01 -4.6440E+01  2.5147E+03

           1    1.43001E+01     5.0200E-01 -8.6366E-03 -3.2247E+00  3.2636E+00
ac ID =   33377                -4.6102E-01  2.8826E+01  3.3941E-01  2.8832E+01
                               -4.0074E-01  1.8889E+01 -4.6322E+01  2.5147E+03

           1    1.44001E+01     5.3833E-01  2.8605E-02 -3.1871E+00  3.2323E+00
ac ID =   33377                -1.7202E+00  2.9454E+01 -5.3090E-01  2.9509E+01
                               -4.0134E-01  1.9024E+01 -4.6202E+01  2.5147E+03

           1    1.45000E+01     5.1166E-01  7.1307E-03 -3.1324E+00  3.1739E+00
ac ID =   33377                -8.1874E-01  2.9152E+01 -8.0213E-01  2.9175E+01
                               -4.0193E-01  1.9159E+01 -4.6078E+01  2.5147E+03

           1    1.46000E+01     4.5519E-01  2.9872E-03 -2.9989E+00  3.0332E+00
ac ID =   33377                -6.4172E-01  2.7822E+01 -9.2758E-02  2.7829E+01
                               -4.0247E-01  1.9294E+01 -4.5952E+01  2.5147E+03

           1    1.47000E+01     5.2937E-01  9.2700E-03 -2.9286E+00  2.9760E+00
ac ID =   33377                -1.0552E+00  2.9054E+01  1.7676E-01  2.9074E+01
                               -4.0301E-01  1.9429E+01 -4.5824E+01  2.5147E+03

           1    1.48005E+01     5.1037E-01  1.9084E-02 -2.9277E+00  2.9720E+00
ac ID =   33377                -1.0700E+00  2.8956E+01 -3.3294E-01  2.8978E+01
                               -4.0368E-01  1.9565E+01 -4.5692E+01  2.5147E+03

           1    1.49005E+01     4.4297E-01  9.0714E-03 -2.8221E+00  2.8566E+00
ac ID =   33377                -1.5239E+00  2.7325E+01 -6.2002E-01  2.7374E+01
                               -4.0419E-01  1.9701E+01 -4.5559E+01  2.5147E+03

           1    1.50005E+01     5.3918E-01  2.5488E-03 -2.7030E+00  2.7563E+00
ac ID =   33377                -1.0473E+00  2.8536E+01 -9.1729E-01  2.8570E+01
                               -4.0480E-01  1.9836E+01 -4.5424E+01  2.5147E+03

           1    1.51005E+01     5.1626E-01  2.2711E-02 -2.6219E+00  2.6723E+00
ac ID =   33377                -1.4592E+00  2.8417E+01 -1.9687E-01  2.8455E+01
                               -4.0546E-01  1.9973E+01 -4.5287E+01  2.5147E+03

           1    1.52005E+01     4.5508E-01  2.9410E-02 -2.5695E+00  2.6097E+00
ac ID =   33377                -1.7645E+00  2.6747E+01 -5.2273E-01  2.6811E+01
                               -4.0613E-01  2.0109E+01 -4.5148E+01  2.5147E+03

           1    1.53005E+01     4.9254E-01 -8.6556E-04 -2.5112E+00  2.5590E+00
ac ID =   33377                -1.7598E+00  2.7038E+01 -8.6329E-01  2.7109E+01
                               -4.0678E-01  2.0246E+01 -4.5008E+01  2.5147E+03

