 LSTC 50th% Full_FE H-III Dummy (Beta Version, February 17, 2019)        
                    ls-dyna smp s R16 R16.0_619_d222963 date 03/18/2025

{BEGIN LEGEND}
 Entity #        Title
    22626                                                                                     
{END LEGEND}




 n o d a l   p r i n t   o u t   f o r   t i m e  s t e p       1                              ( at time 0.0000000E+00 )

 nodal point  x-disp     y-disp      z-disp      x-vel       y-vel       z-vel      x-accl      y-accl      z-accl      x-coor      y-coor      z-coor
    22626  0.00000E+00 0.00000E+00 0.00000E+00 0.00000E+00 0.00000E+00-3.12000E+00 0.00000E+00 0.00000E+00 0.00000E+00 4.79642E+01-2.20298E+01 7.33850E+00



 n o d a l   p r i n t   o u t   f o r   t i m e  s t e p       1                              ( at time 0.0000000E+00 )

 nodal point  x-rot      y-rot       z-rot       x-rot vel   y-rot vel   z-rot vel   x-rot acc   y-rot acc   z-rot acc
    22626  0.00000E+00 0.00000E+00 0.00000E+00 0.00000E+00 0.00000E+00 0.00000E+00 0.00000E+00 0.00000E+00 0.00000E+00



 n o d a l   p r i n t   o u t   f o r   t i m e  s t e p     201                              ( at time 9.9989993E-02 )

 nodal point  x-disp     y-disp      z-disp      x-vel       y-vel       z-vel      x-accl      y-accl      z-accl      x-coor      y-coor      z-coor
    22626  8.34084E-07-4.04459E-06-3.12016E-01 4.76708E-05-4.96435E-04-3.12074E+00 4.76756E-04-4.96485E-03-7.42510E-03 4.79642E+01-2.20298E+01 7.02648E+00



 n o d a l   p r i n t   o u t   f o r   t i m e  s t e p     201                              ( at time 9.9989993E-02 )

 nodal point  x-rot      y-rot       z-rot       x-rot vel   y-rot vel   z-rot vel   x-rot acc   y-rot acc   z-rot acc
    22626  9.60812E-09 3.04028E-08 5.26949E-08 1.30637E-06 2.72292E-06 5.21290E-06 1.30650E-05 2.72319E-05 5.21342E-05



 n o d a l   p r i n t   o u t   f o r   t i m e  s t e p     401                              ( at time 1.9997999E-01 )

 nodal point  x-disp     y-disp      z-disp      x-vel       y-vel       z-vel      x-accl      y-accl      z-accl      x-coor      y-coor      z-coor
    22626 -5.12796E-05-5.21535E-04-6.23853E-01-1.09585E-03-1.11137E-02-3.11558E+00-1.14364E-02-1.06183E-01 5.16037E-02 4.79641E+01-2.20303E+01 6.71465E+00



 n o d a l   p r i n t   o u t   f o r   t i m e  s t e p     401                              ( at time 1.9997999E-01 )

 nodal point  x-rot      y-rot       z-rot       x-rot vel   y-rot vel   z-rot vel   x-rot acc   y-rot acc   z-rot acc
    22626  4.59982E-07 1.32965E-06 2.50182E-06 2.67088E-06 1.90550E-05 3.49562E-05 1.36465E-05 1.63337E-04 2.97463E-04



 n o d a l   p r i n t   o u t   f o r   t i m e  s t e p     601                              ( at time 2.9996998E-01 )

 nodal point  x-disp     y-disp      z-disp      x-vel       y-vel       z-vel      x-accl      y-accl      z-accl      x-coor      y-coor      z-coor
    22626 -2.45767E-05-1.97635E-03-9.35238E-01 1.66101E-03-1.60466E-02-3.11415E+00 2.75714E-02-4.93341E-02 1.43614E-02 4.79642E+01-2.20318E+01 6.40326E+00



 n o d a l   p r i n t   o u t   f o r   t i m e  s t e p     601                              ( at time 2.9996998E-01 )

 nodal point  x-rot      y-rot       z-rot       x-rot vel   y-rot vel   z-rot vel   x-rot acc   y-rot acc   z-rot acc
    22626  6.74915E-07 2.41192E-06 4.82810E-06 8.30459E-06 5.36026E-06 1.46932E-05 5.63427E-05-1.36961E-04-2.02651E-04



 n o d a l   p r i n t   o u t   f o r   t i m e  s t e p     801                              ( at time 3.9995997E-01 )

 nodal point  x-disp     y-disp      z-disp      x-vel       y-vel       z-vel      x-accl      y-accl      z-accl      x-coor      y-coor      z-coor
    22626  5.94798E-05-3.57404E-03-1.24663E+00 1.91819E-04-1.73896E-02-3.11353E+00-1.46934E-02-1.34315E-02 6.14466E-03 4.79642E+01-2.20334E+01 6.09187E+00



 n o d a l   p r i n t   o u t   f o r   t i m e  s t e p     801                              ( at time 3.9995997E-01 )

 nodal point  x-rot      y-rot       z-rot       x-rot vel   y-rot vel   z-rot vel   x-rot acc   y-rot acc   z-rot acc
    22626  1.58242E-06 3.68075E-06 6.68051E-06 6.25250E-06 2.42454E-05 3.82076E-05-2.05229E-05 1.88870E-04 2.35168E-04



 n o d a l   p r i n t   o u t   f o r   t i m e  s t e p    1001                              ( at time 4.9994997E-01 )

 nodal point  x-disp     y-disp      z-disp      x-vel       y-vel       z-vel      x-accl      y-accl      z-accl      x-coor      y-coor      z-coor
    22626  7.27589E-05-5.63146E-03-1.55782E+00 8.91943E-04-2.38509E-02-3.11085E+00 7.00194E-03-6.46198E-02 2.68009E-02 4.79643E+01-2.20354E+01 5.78068E+00



 n o d a l   p r i n t   o u t   f o r   t i m e  s t e p    1001                              ( at time 4.9994997E-01 )

 nodal point  x-rot      y-rot       z-rot       x-rot vel   y-rot vel   z-rot vel   x-rot acc   y-rot acc   z-rot acc
    22626  1.49409E-06 6.64805E-06 1.18376E-05-4.85685E-06 4.37812E-05 7.20107E-05-1.11105E-04 1.95378E-04 3.38064E-04



 n o d a l   p r i n t   o u t   f o r   t i m e  s t e p    1201                              ( at time 5.9993996E-01 )

 nodal point  x-disp     y-disp      z-disp      x-vel       y-vel       z-vel      x-accl      y-accl      z-accl      x-coor      y-coor      z-coor
    22626  5.30067E-05-8.13745E-03-1.86888E+00-5.64365E-04-2.61215E-02-3.11084E+00-1.45645E-02-2.27079E-02 1.54988E-04 4.79642E+01-2.20379E+01 5.46962E+00



 n o d a l   p r i n t   o u t   f o r   t i m e  s t e p    1201                              ( at time 5.9993996E-01 )

 nodal point  x-rot      y-rot       z-rot       x-rot vel   y-rot vel   z-rot vel   x-rot acc   y-rot acc   z-rot acc
    22626  1.26518E-06 9.87499E-06 1.77369E-05-2.18725E-06 2.63284E-05 5.29333E-05 2.66986E-05-1.74546E-04-1.90793E-04



 n o d a l   p r i n t   o u t   f o r   t i m e  s t e p    1401                              ( at time 6.9992995E-01 )

 nodal point  x-disp     y-disp      z-disp      x-vel       y-vel       z-vel      x-accl      y-accl      z-accl      x-coor      y-coor      z-coor
    22626  1.96773E-05-1.10207E-02-2.17976E+00 7.15118E-04-3.22384E-02-3.10770E+00 1.27961E-02-6.11752E-02 3.13695E-02 4.79642E+01-2.20408E+01 5.15874E+00



 n o d a l   p r i n t   o u t   f o r   t i m e  s t e p    1401                              ( at time 6.9992995E-01 )

 nodal point  x-rot      y-rot       z-rot       x-rot vel   y-rot vel   z-rot vel   x-rot acc   y-rot acc   z-rot acc
    22626  1.10266E-06 1.30696E-05 2.27046E-05-2.42614E-06 3.78747E-05 5.93896E-05-2.38908E-06 1.15475E-04 6.45691E-05



 n o d a l   p r i n t   o u t   f o r   t i m e  s t e p    1601                              ( at time 7.9991994E-01 )

 nodal point  x-disp     y-disp      z-disp      x-vel       y-vel       z-vel      x-accl      y-accl      z-accl      x-coor      y-coor      z-coor
    22626  1.33063E-04-1.45710E-02-2.49038E+00 1.37204E-03-3.68199E-02-3.10600E+00 6.56990E-03-4.58194E-02 1.70057E-02 4.79643E+01-2.20444E+01 4.84812E+00



 n o d a l   p r i n t   o u t   f o r   t i m e  s t e p    1601                              ( at time 7.9991994E-01 )

 nodal point  x-rot      y-rot       z-rot       x-rot vel   y-rot vel   z-rot vel   x-rot acc   y-rot acc   z-rot acc
    22626  1.00746E-06 1.72064E-05 2.96657E-05 3.03070E-06 4.87995E-05 7.65271E-05 5.45739E-05 1.09259E-04 1.71392E-04



 n o d a l   p r i n t   o u t   f o r   t i m e  s t e p    1801                              ( at time 8.9990994E-01 )

 nodal point  x-disp     y-disp      z-disp      x-vel       y-vel       z-vel      x-accl      y-accl      z-accl      x-coor      y-coor      z-coor
    22626  2.07426E-04-1.82141E-02-2.80104E+00-5.11377E-04-3.64288E-02-3.10742E+00-1.88361E-02 3.91143E-03-1.41826E-02 4.79644E+01-2.20480E+01 4.53746E+00



 n o d a l   p r i n t   o u t   f o r   t i m e  s t e p    1801                              ( at time 8.9990994E-01 )

 nodal point  x-rot      y-rot       z-rot       x-rot vel   y-rot vel   z-rot vel   x-rot acc   y-rot acc   z-rot acc
    22626  1.02575E-06 2.13202E-05 3.66568E-05-1.92544E-06 3.79369E-05 6.83276E-05-4.95664E-05-1.08637E-04-8.20025E-05



 n o d a l   p r i n t   o u t   f o r   t i m e  s t e p    2001                              ( at time 9.9989993E-01 )

 nodal point  x-disp     y-disp      z-disp      x-vel       y-vel       z-vel      x-accl      y-accl      z-accl      x-coor      y-coor      z-coor
    22626  1.09763E-04-2.19276E-02-3.11175E+00-8.15504E-04-3.83999E-02-3.10755E+00-3.04157E-03-1.97128E-02-1.34243E-03 4.79643E+01-2.20517E+01 4.22675E+00



 n o d a l   p r i n t   o u t   f o r   t i m e  s t e p    2001                              ( at time 9.9989993E-01 )

 nodal point  x-rot      y-rot       z-rot       x-rot vel   y-rot vel   z-rot vel   x-rot acc   y-rot acc   z-rot acc
    22626  8.57151E-07 2.55331E-05 4.38494E-05-8.65796E-07 4.61742E-05 8.58375E-05 1.05975E-05 8.23815E-05 1.75116E-04



 n o d a l   p r i n t   o u t   f o r   t i m e  s t e p    2201                              ( at time 1.0998899E+00 )

 nodal point  x-disp     y-disp      z-disp      x-vel       y-vel       z-vel      x-accl      y-accl      z-accl      x-coor      y-coor      z-coor
    22626  9.19311E-05-2.58761E-02-3.42246E+00-2.10896E-04-4.02575E-02-3.10712E+00 6.04669E-03-1.85776E-02 4.34442E-03 4.79643E+01-2.20557E+01 3.91605E+00



 n o d a l   p r i n t   o u t   f o r   t i m e  s t e p    2201                              ( at time 1.0998899E+00 )

 nodal point  x-rot      y-rot       z-rot       x-rot vel   y-rot vel   z-rot vel   x-rot acc   y-rot acc   z-rot acc
    22626  9.33620E-07 3.03124E-05 5.24810E-05 5.31740E-06 4.65113E-05 7.51439E-05 6.18382E-05 3.37056E-06-1.06946E-04



 n o d a l   p r i n t   o u t   f o r   t i m e  s t e p    2401                              ( at time 1.1998799E+00 )

 nodal point  x-disp     y-disp      z-disp      x-vel       y-vel       z-vel      x-accl      y-accl      z-accl      x-coor      y-coor      z-coor
    22626  1.34268E-04-2.98901E-02-3.73320E+00 7.30580E-04-3.98055E-02-3.10850E+00 9.41570E-03 4.52001E-03-1.38225E-02 4.79643E+01-2.20597E+01 3.60531E+00



 n o d a l   p r i n t   o u t   f o r   t i m e  s t e p    2401                              ( at time 1.1998799E+00 )

 nodal point  x-rot      y-rot       z-rot       x-rot vel   y-rot vel   z-rot vel   x-rot acc   y-rot acc   z-rot acc
    22626  1.33647E-06 3.44654E-05 5.93263E-05 5.06373E-06 3.98666E-05 6.54494E-05-2.53695E-06-6.64530E-05-9.69550E-05



 n o d a l   p r i n t   o u t   f o r   t i m e  s t e p    2601                              ( at time 1.2998699E+00 )

 nodal point  x-disp     y-disp      z-disp      x-vel       y-vel       z-vel      x-accl      y-accl      z-accl      x-coor      y-coor      z-coor
    22626  1.46108E-04-3.37303E-02-4.04413E+00-4.22025E-04-3.65935E-02-3.11132E+00-1.15272E-02 3.21230E-02-2.82483E-02 4.79643E+01-2.20635E+01 3.29437E+00



 n o d a l   p r i n t   o u t   f o r   t i m e  s t e p    2601                              ( at time 1.2998699E+00 )

 nodal point  x-rot      y-rot       z-rot       x-rot vel   y-rot vel   z-rot vel   x-rot acc   y-rot acc   z-rot acc
    22626  1.63902E-06 3.85441E-05 6.61329E-05-2.49841E-06 4.54841E-05 7.99486E-05-7.56290E-05 5.61808E-05 1.45007E-04



 n o d a l   p r i n t   o u t   f o r   t i m e  s t e p    2801                              ( at time 1.3998599E+00 )

 nodal point  x-disp     y-disp      z-disp      x-vel       y-vel       z-vel      x-accl      y-accl      z-accl      x-coor      y-coor      z-coor
    22626  3.21754E-05-3.71241E-02-4.35543E+00-1.30693E-03-3.14332E-02-3.11511E+00-8.84997E-03 5.16083E-02-3.78623E-02 4.79642E+01-2.20669E+01 2.98307E+00



 n o d a l   p r i n t   o u t   f o r   t i m e  s t e p    2801                              ( at time 1.3998599E+00 )

 nodal point  x-rot      y-rot       z-rot       x-rot vel   y-rot vel   z-rot vel   x-rot acc   y-rot acc   z-rot acc
    22626  1.20390E-06 4.29496E-05 7.39888E-05-4.50376E-06 4.45657E-05 7.34954E-05-2.00554E-05-9.18540E-06-6.45392E-05



 n o d a l   p r i n t   o u t   f o r   t i m e  s t e p    3001                              ( at time 1.4998499E+00 )

 nodal point  x-disp     y-disp      z-disp      x-vel       y-vel       z-vel      x-accl      y-accl      z-accl      x-coor      y-coor      z-coor
    22626 -7.76560E-05-4.01687E-02-4.66702E+00-4.97208E-04-2.97659E-02-3.11713E+00 8.09806E-03 1.66745E-02-2.02080E-02 4.79641E+01-2.20700E+01 2.67148E+00



 n o d a l   p r i n t   o u t   f o r   t i m e  s t e p    3001                              ( at time 1.4998499E+00 )

 nodal point  x-rot      y-rot       z-rot       x-rot vel   y-rot vel   z-rot vel   x-rot acc   y-rot acc   z-rot acc
    22626  8.27534E-07 4.68521E-05 8.05175E-05-1.62475E-06 3.19242E-05 5.71182E-05 2.87929E-05-1.26428E-04-1.63788E-04



 n o d a l   p r i n t   o u t   f o r   t i m e  s t e p    3201                              ( at time 1.5998399E+00 )

 nodal point  x-disp     y-disp      z-disp      x-vel       y-vel       z-vel      x-accl      y-accl      z-accl      x-coor      y-coor      z-coor
    22626 -1.24447E-04-4.30594E-02-4.97879E+00-6.94272E-04-2.75135E-02-3.11939E+00-1.97083E-03 2.25269E-02-2.26330E-02 4.79641E+01-2.20728E+01 2.35971E+00



 n o d a l   p r i n t   o u t   f o r   t i m e  s t e p    3201                              ( at time 1.5998399E+00 )

 nodal point  x-rot      y-rot       z-rot       x-rot vel   y-rot vel   z-rot vel   x-rot acc   y-rot acc   z-rot acc
    22626  5.15339E-07 4.99119E-05 8.53939E-05-1.62530E-06 3.27465E-05 4.80219E-05-5.50981E-09 8.22440E-06-9.09714E-05



 n o d a l   p r i n t   o u t   f o r   t i m e  s t e p    3401                              ( at time 1.6998299E+00 )

 nodal point  x-disp     y-disp      z-disp      x-vel       y-vel       z-vel      x-accl      y-accl      z-accl      x-coor      y-coor      z-coor
    22626 -2.11152E-04-4.55738E-02-5.29089E+00-1.13416E-03-2.24361E-02-3.12326E+00-4.39929E-03 5.07791E-02-3.86253E-02 4.79640E+01-2.20754E+01 2.04762E+00



 n o d a l   p r i n t   o u t   f o r   t i m e  s t e p    3401                              ( at time 1.6998299E+00 )

 nodal point  x-rot      y-rot       z-rot       x-rot vel   y-rot vel   z-rot vel   x-rot acc   y-rot acc   z-rot acc
    22626  3.01472E-07 5.29938E-05 9.04266E-05-3.82268E-06 2.97932E-05 4.76528E-05-2.19759E-05-2.95365E-05-3.69208E-06



 n o d a l   p r i n t   o u t   f o r   t i m e  s t e p    3601                              ( at time 1.7998199E+00 )

 nodal point  x-disp     y-disp      z-disp      x-vel       y-vel       z-vel      x-accl      y-accl      z-accl      x-coor      y-coor      z-coor
    22626 -3.12743E-04-4.75644E-02-5.60339E+00-1.32630E-03-1.77234E-02-3.12732E+00-1.92163E-03 4.71317E-02-4.06640E-02 4.79639E+01-2.20774E+01 1.73511E+00



 n o d a l   p r i n t   o u t   f o r   t i m e  s t e p    3601                              ( at time 1.7998199E+00 )

 nodal point  x-rot      y-rot       z-rot       x-rot vel   y-rot vel   z-rot vel   x-rot acc   y-rot acc   z-rot acc
    22626  1.55733E-07 5.57824E-05 9.51844E-05-2.86866E-07 2.14554E-05 4.22358E-05 3.53617E-05-8.33864E-05-5.41751E-05



 n o d a l   p r i n t   o u t   f o r   t i m e  s t e p    3801                              ( at time 1.8998099E+00 )

 nodal point  x-disp     y-disp      z-disp      x-vel       y-vel       z-vel      x-accl      y-accl      z-accl      x-coor      y-coor      z-coor
    22626 -5.00287E-04-4.92025E-02-5.91621E+00-2.16049E-03-1.51675E-02-3.12982E+00-8.34268E-03 2.55609E-02-2.49411E-02 4.79637E+01-2.20790E+01 1.42229E+00



 n o d a l   p r i n t   o u t   f o r   t i m e  s t e p    3801                              ( at time 1.8998099E+00 )

 nodal point  x-rot      y-rot       z-rot       x-rot vel   y-rot vel   z-rot vel   x-rot acc   y-rot acc   z-rot acc
    22626 -8.84681E-08 5.76821E-05 9.86012E-05 1.58163E-06 1.54456E-05 2.73948E-05 1.86869E-05-6.01036E-05-1.48425E-04



 n o d a l   p r i n t   o u t   f o r   t i m e  s t e p    4001                              ( at time 1.9997999E+00 )

 nodal point  x-disp     y-disp      z-disp      x-vel       y-vel       z-vel      x-accl      y-accl      z-accl      x-coor      y-coor      z-coor
    22626 -6.73973E-04-5.05926E-02-6.22929E+00-1.65145E-03-1.28112E-02-3.13210E+00 5.09090E-03 2.35658E-02-2.28571E-02 4.79635E+01-2.20804E+01 1.10921E+00



 n o d a l   p r i n t   o u t   f o r   t i m e  s t e p    4001                              ( at time 1.9997999E+00 )

 nodal point  x-rot      y-rot       z-rot       x-rot vel   y-rot vel   z-rot vel   x-rot acc   y-rot acc   z-rot acc
    22626  1.16446E-07 5.90160E-05 1.00908E-04 3.38226E-06 1.32057E-05 2.00541E-05 1.80081E-05-2.24013E-05-7.34139E-05



 n o d a l   p r i n t   o u t   f o r   t i m e  s t e p    4201                              ( at time 2.0997899E+00 )

 nodal point  x-disp     y-disp      z-disp      x-vel       y-vel       z-vel      x-accl      y-accl      z-accl      x-coor      y-coor      z-coor
    22626 -8.43246E-04-5.16838E-02-6.54262E+00-1.85638E-03-9.16233E-03-3.13517E+00-2.04954E-03 3.64922E-02-3.07376E-02 4.79633E+01-2.20815E+01 7.95877E-01



 n o d a l   p r i n t   o u t   f o r   t i m e  s t e p    4201                              ( at time 2.0997899E+00 )

 nodal point  x-rot      y-rot       z-rot       x-rot vel   y-rot vel   z-rot vel   x-rot acc   y-rot acc   z-rot acc
    22626  4.01584E-07 5.96605E-05 1.01999E-04-1.46883E-06 3.38092E-06 1.64081E-06-4.85158E-05-9.82580E-05-1.84152E-04



 n o d a l   p r i n t   o u t   f o r   t i m e  s t e p    4401                              ( at time 2.1997798E+00 )

 nodal point  x-disp     y-disp      z-disp      x-vel       y-vel       z-vel      x-accl      y-accl      z-accl      x-coor      y-coor      z-coor
    22626 -1.08523E-03-5.23705E-02-6.85629E+00-2.76950E-03-4.40985E-03-3.13895E+00-9.13215E-03 4.75295E-02-3.77669E-02 4.79631E+01-2.20822E+01 4.82212E-01



 n o d a l   p r i n t   o u t   f o r   t i m e  s t e p    4401                              ( at time 2.1997798E+00 )

 nodal point  x-rot      y-rot       z-rot       x-rot vel   y-rot vel   z-rot vel   x-rot acc   y-rot acc   z-rot acc
    22626  2.24341E-07 5.96529E-05 1.01931E-04-1.21216E-06-2.16535E-06-3.06969E-06 2.56694E-06-5.54683E-05-4.71098E-05



 n o d a l   p r i n t   o u t   f o r   t i m e  s t e p    4601                              ( at time 2.2997698E+00 )

 nodal point  x-disp     y-disp      z-disp      x-vel       y-vel       z-vel      x-accl      y-accl      z-accl      x-coor      y-coor      z-coor
    22626 -1.39460E-03-5.25656E-02-7.17034E+00-3.50874E-03-8.84423E-05-3.14228E+00-7.39307E-03 4.32184E-02-3.32651E-02 4.79628E+01-2.20824E+01 1.68162E-01



 n o d a l   p r i n t   o u t   f o r   t i m e  s t e p    4601                              ( at time 2.2997698E+00 )

 nodal point  x-rot      y-rot       z-rot       x-rot vel   y-rot vel   z-rot vel   x-rot acc   y-rot acc   z-rot acc
    22626 -1.64836E-07 5.93392E-05 1.01554E-04-4.48836E-06-9.76451E-06-1.28796E-05-3.27652E-05-7.59991E-05-9.81092E-05



 n o d a l   p r i n t   o u t   f o r   t i m e  s t e p    4801                              ( at time 2.3997598E+00 )

 nodal point  x-disp     y-disp      z-disp      x-vel       y-vel       z-vel      x-accl      y-accl      z-accl      x-coor      y-coor      z-coor
    22626 -1.76358E-03-5.24788E-02-7.48464E+00-3.60937E-03 1.86514E-03-3.14440E+00-1.00648E-03 1.95378E-02-2.11904E-02 4.79624E+01-2.20823E+01-1.46135E-01



 n o d a l   p r i n t   o u t   f o r   t i m e  s t e p    4801                              ( at time 2.3997598E+00 )

 nodal point  x-rot      y-rot       z-rot       x-rot vel   y-rot vel   z-rot vel   x-rot acc   y-rot acc   z-rot acc
    22626 -7.12031E-07 5.80737E-05 9.90685E-05-6.03847E-06-1.61563E-05-3.36736E-05-1.55026E-05-6.39240E-05-2.07961E-04



 n o d a l   p r i n t   o u t   f o r   t i m e  s t e p    5001                              ( at time 2.4997498E+00 )

 nodal point  x-disp     y-disp      z-disp      x-vel       y-vel       z-vel      x-accl      y-accl      z-accl      x-coor      y-coor      z-coor
    22626 -2.15698E-03-5.21711E-02-7.79916E+00-4.24491E-03 4.97006E-03-3.14711E+00-6.35596E-03 3.10523E-02-2.71609E-02 4.79620E+01-2.20820E+01-4.60662E-01



 n o d a l   p r i n t   o u t   f o r   t i m e  s t e p    5001                              ( at time 2.4997498E+00 )

 nodal point  x-rot      y-rot       z-rot       x-rot vel   y-rot vel   z-rot vel   x-rot acc   y-rot acc   z-rot acc
    22626 -1.16273E-06 5.58389E-05 9.50979E-05-4.13430E-06-2.63476E-05-4.87333E-05 1.90436E-05-1.01923E-04-1.50611E-04



 n o d a l   p r i n t   o u t   f o r   t i m e  s t e p    5201                              ( at time 2.5997398E+00 )

 nodal point  x-disp     y-disp      z-disp      x-vel       y-vel       z-vel      x-accl      y-accl      z-accl      x-coor      y-coor      z-coor
    22626 -2.63151E-03-5.14567E-02-8.11403E+00-5.26289E-03 9.26701E-03-3.15070E+00-1.01809E-02 4.29738E-02-3.58570E-02 4.79615E+01-2.20812E+01-7.75527E-01



 n o d a l   p r i n t   o u t   f o r   t i m e  s t e p    5201                              ( at time 2.5997398E+00 )

 nodal point  x-rot      y-rot       z-rot       x-rot vel   y-rot vel   z-rot vel   x-rot acc   y-rot acc   z-rot acc
    22626 -1.53414E-06 5.27364E-05 8.96603E-05-4.79788E-06-3.58688E-05-6.23271E-05-6.63655E-06-9.52221E-05-1.35952E-04



 n o d a l   p r i n t   o u t   f o r   t i m e  s t e p    5401                              ( at time 2.6997298E+00 )

 nodal point  x-disp     y-disp      z-disp      x-vel       y-vel       z-vel      x-accl      y-accl      z-accl      x-coor      y-coor      z-coor
    22626 -3.20137E-03-5.03220E-02-8.42925E+00-6.43027E-03 1.29764E-02-3.15421E+00-1.16749E-02 3.70973E-02-3.51678E-02 4.79610E+01-2.20801E+01-1.09075E+00



 n o d a l   p r i n t   o u t   f o r   t i m e  s t e p    5401                              ( at time 2.6997298E+00 )

 nodal point  x-rot      y-rot       z-rot       x-rot vel   y-rot vel   z-rot vel   x-rot acc   y-rot acc   z-rot acc
    22626 -1.83483E-06 4.89875E-05 8.31541E-05-1.82758E-06-4.13421E-05-6.68313E-05 2.97060E-05-5.47381E-05-4.50470E-05



 n o d a l   p r i n t   o u t   f o r   t i m e  s t e p    5601                              ( at time 2.7997198E+00 )

 nodal point  x-disp     y-disp      z-disp      x-vel       y-vel       z-vel      x-accl      y-accl      z-accl      x-coor      y-coor      z-coor
    22626 -3.91538E-03-4.88974E-02-8.74475E+00-7.69500E-03 1.51506E-02-3.15635E+00-1.26486E-02 2.17444E-02-2.13406E-02 4.79603E+01-2.20787E+01-1.40625E+00



 n o d a l   p r i n t   o u t   f o r   t i m e  s t e p    5601                              ( at time 2.7997198E+00 )

 nodal point  x-rot      y-rot       z-rot       x-rot vel   y-rot vel   z-rot vel   x-rot acc   y-rot acc   z-rot acc
    22626 -1.96958E-06 4.40912E-05 7.50444E-05 3.40041E-07-5.73696E-05-9.86410E-05 2.16784E-05-1.60292E-04-3.18128E-04



 n o d a l   p r i n t   o u t   f o r   t i m e  s t e p    5801                              ( at time 2.8997098E+00 )

 nodal point  x-disp     y-disp      z-disp      x-vel       y-vel       z-vel      x-accl      y-accl      z-accl      x-coor      y-coor      z-coor
    22626 -4.68709E-03-4.73287E-02-9.06045E+00-7.82396E-03 1.61363E-02-3.15804E+00-1.28966E-03 9.85764E-03-1.68841E-02 4.79595E+01-2.20771E+01-1.72194E+00



 n o d a l   p r i n t   o u t   f o r   t i m e  s t e p    5801                              ( at time 2.8997098E+00 )

 nodal point  x-rot      y-rot       z-rot       x-rot vel   y-rot vel   z-rot vel   x-rot acc   y-rot acc   z-rot acc
    22626 -1.77440E-06 3.76553E-05 6.41383E-05 2.27643E-06-6.65074E-05-1.15502E-04 1.93658E-05-9.13872E-05-1.68628E-04



 n o d a l   p r i n t   o u t   f o r   t i m e  s t e p    6001                              ( at time 2.9996998E+00 )

 nodal point  x-disp     y-disp      z-disp      x-vel       y-vel       z-vel      x-accl      y-accl      z-accl      x-coor      y-coor      z-coor
    22626 -5.50814E-03-4.55968E-02-9.37632E+00-8.82709E-03 1.86387E-02-3.16041E+00-1.00323E-02 2.50271E-02-2.37321E-02 4.79587E+01-2.20754E+01-2.03782E+00



 n o d a l   p r i n t   o u t   f o r   t i m e  s t e p    6001                              ( at time 2.9996998E+00 )

 nodal point  x-rot      y-rot       z-rot       x-rot vel   y-rot vel   z-rot vel   x-rot acc   y-rot acc   z-rot acc
    22626 -1.54945E-06 3.07935E-05 5.25697E-05 5.37178E-07-7.08892E-05-1.20981E-04-1.73942E-05-4.38220E-05-5.47936E-05



 n o d a l   p r i n t   o u t   f o r   t i m e  s t e p    6201                              ( at time 3.0996898E+00 )

 nodal point  x-disp     y-disp      z-disp      x-vel       y-vel       z-vel      x-accl      y-accl      z-accl      x-coor      y-coor      z-coor
    22626 -6.47359E-03-4.36155E-02-9.69245E+00-1.04170E-02 2.05598E-02-3.16240E+00-1.59005E-02 1.92124E-02-1.99338E-02 4.79577E+01-2.20734E+01-2.35395E+00



 n o d a l   p r i n t   o u t   f o r   t i m e  s t e p    6201                              ( at time 3.0996898E+00 )

 nodal point  x-rot      y-rot       z-rot       x-rot vel   y-rot vel   z-rot vel   x-rot acc   y-rot acc   z-rot acc
    22626 -1.59721E-06 2.34344E-05 3.99389E-05-1.96625E-06-7.58111E-05-1.33598E-04-2.50368E-05-4.92240E-05-1.26181E-04



 n o d a l   p r i n t   o u t   f o r   t i m e  s t e p    6401                              ( at time 3.1996798E+00 )

 nodal point  x-disp     y-disp      z-disp      x-vel       y-vel       z-vel      x-accl      y-accl      z-accl      x-coor      y-coor      z-coor
    22626 -7.54499E-03-4.15846E-02-1.00087E+01-1.09293E-02 1.97614E-02-3.16298E+00-5.12361E-03-7.98410E-03-5.77745E-03 4.79566E+01-2.20714E+01-2.67020E+00



 n o d a l   p r i n t   o u t   f o r   t i m e  s t e p    6401                              ( at time 3.1996798E+00 )

 nodal point  x-rot      y-rot       z-rot       x-rot vel   y-rot vel   z-rot vel   x-rot acc   y-rot acc   z-rot acc
    22626 -1.73374E-06 1.53626E-05 2.63417E-05-1.63515E-06-8.52877E-05-1.43752E-04 3.31132E-06-9.47755E-05-1.01550E-04



 n o d a l   p r i n t   o u t   f o r   t i m e  s t e p    6601                              ( at time 3.2996698E+00 )

 nodal point  x-disp     y-disp      z-disp      x-vel       y-vel       z-vel      x-accl      y-accl      z-accl      x-coor      y-coor      z-coor
    22626 -8.65131E-03-3.97049E-02-1.03249E+01-1.11896E-02 1.78277E-02-3.16270E+00-2.60302E-03-1.93391E-02 2.84224E-03 4.79555E+01-2.20695E+01-2.98645E+00



 n o d a l   p r i n t   o u t   f o r   t i m e  s t e p    6601                              ( at time 3.2996698E+00 )

 nodal point  x-rot      y-rot       z-rot       x-rot vel   y-rot vel   z-rot vel   x-rot acc   y-rot acc   z-rot acc
    22626 -2.00076E-06 6.67059E-06 1.15797E-05-2.46865E-06-8.94629E-05-1.51622E-04-8.33592E-06-4.17559E-05-7.87127E-05



 n o d a l   p r i n t   o u t   f o r   t i m e  s t e p    6801                              ( at time 3.3996598E+00 )

 nodal point  x-disp     y-disp      z-disp      x-vel       y-vel       z-vel      x-accl      y-accl      z-accl      x-coor      y-coor      z-coor
    22626 -9.80188E-03-3.80135E-02-1.06412E+01-1.17017E-02 1.60387E-02-3.16262E+00-5.12217E-03-1.78924E-02 7.70168E-04 4.79544E+01-2.20678E+01-3.30268E+00



 n o d a l   p r i n t   o u t   f o r   t i m e  s t e p    6801                              ( at time 3.3996598E+00 )

 nodal point  x-rot      y-rot       z-rot       x-rot vel   y-rot vel   z-rot vel   x-rot acc   y-rot acc   z-rot acc
    22626 -2.05080E-06-2.21909E-06-3.71484E-06-2.62816E-06-8.80770E-05-1.53242E-04-1.59520E-06 1.38600E-05-1.62031E-05



 n o d a l   p r i n t   o u t   f o r   t i m e  s t e p    7001                              ( at time 3.4996498E+00 )

 nodal point  x-disp     y-disp      z-disp      x-vel       y-vel       z-vel      x-accl      y-accl      z-accl      x-coor      y-coor      z-coor
    22626 -1.09996E-02-3.64835E-02-1.09574E+01-1.23231E-02 1.44930E-02-3.16282E+00-6.21476E-03-1.54585E-02-2.00053E-03 4.79532E+01-2.20663E+01-3.61893E+00



 n o d a l   p r i n t   o u t   f o r   t i m e  s t e p    7001                              ( at time 3.4996498E+00 )

 nodal point  x-rot      y-rot       z-rot       x-rot vel   y-rot vel   z-rot vel   x-rot acc   y-rot acc   z-rot acc
    22626 -2.04356E-06-1.08794E-05-1.85433E-05 6.59065E-07-8.70744E-05-1.47319E-04 3.28756E-05 1.00268E-05 5.92426E-05



 n o d a l   p r i n t   o u t   f o r   t i m e  s t e p    7201                              ( at time 3.5996397E+00 )

 nodal point  x-disp     y-disp      z-disp      x-vel       y-vel       z-vel      x-accl      y-accl      z-accl      x-coor      y-coor      z-coor
    22626 -1.22542E-02-3.51406E-02-1.12737E+01-1.24110E-02 1.20918E-02-3.16260E+00-8.78643E-04-2.40144E-02 2.15075E-03 4.79519E+01-2.20649E+01-3.93517E+00



 n o d a l   p r i n t   o u t   f o r   t i m e  s t e p    7201                              ( at time 3.5996397E+00 )

 nodal point  x-rot      y-rot       z-rot       x-rot vel   y-rot vel   z-rot vel   x-rot acc   y-rot acc   z-rot acc
    22626 -2.05115E-06-1.95013E-05-3.30258E-05 2.09758E-06-8.47999E-05-1.38651E-04 1.43866E-05 2.27482E-05 8.66874E-05



 n o d a l   p r i n t   o u t   f o r   t i m e  s t e p    7401                              ( at time 3.6996297E+00 )

 nodal point  x-disp     y-disp      z-disp      x-vel       y-vel       z-vel      x-accl      y-accl      z-accl      x-coor      y-coor      z-coor
    22626 -1.34842E-02-3.40967E-02-1.15899E+01-1.21503E-02 8.70726E-03-3.16159E+00 2.60718E-03-3.38484E-02 1.01219E-02 4.79507E+01-2.20639E+01-4.25135E+00



 n o d a l   p r i n t   o u t   f o r   t i m e  s t e p    7401                              ( at time 3.6996297E+00 )

 nodal point  x-rot      y-rot       z-rot       x-rot vel   y-rot vel   z-rot vel   x-rot acc   y-rot acc   z-rot acc
    22626 -1.79759E-06-2.77856E-05-4.68189E-05 3.64714E-06-8.13416E-05-1.36506E-04 1.54971E-05 3.45864E-05 2.14470E-05



 n o d a l   p r i n t   o u t   f o r   t i m e  s t e p    7601                              ( at time 3.7996197E+00 )

 nodal point  x-disp     y-disp      z-disp      x-vel       y-vel       z-vel      x-accl      y-accl      z-accl      x-coor      y-coor      z-coor
    22626 -1.46692E-02-3.33639E-02-1.19059E+01-1.15848E-02 6.00790E-03-3.16089E+00 5.65528E-03-2.69963E-02 7.03644E-03 4.79495E+01-2.20632E+01-4.56744E+00



 n o d a l   p r i n t   o u t   f o r   t i m e  s t e p    7601                              ( at time 3.7996197E+00 )

 nodal point  x-rot      y-rot       z-rot       x-rot vel   y-rot vel   z-rot vel   x-rot acc   y-rot acc   z-rot acc
    22626 -1.33199E-06-3.55982E-05-6.00841E-05 5.31616E-06-7.23662E-05-1.21861E-04 1.66919E-05 8.97629E-05 1.46467E-04



 n o d a l   p r i n t   o u t   f o r   t i m e  s t e p    7801                              ( at time 3.8996097E+00 )

 nodal point  x-disp     y-disp      z-disp      x-vel       y-vel       z-vel      x-accl      y-accl      z-accl      x-coor      y-coor      z-coor
    22626 -1.57964E-02-3.28628E-02-1.22220E+01-1.09375E-02 4.22045E-03-3.16080E+00 6.47427E-03-1.78763E-02 8.27394E-04 4.79484E+01-2.20627E+01-4.88349E+00



 n o d a l   p r i n t   o u t   f o r   t i m e  s t e p    7801                              ( at time 3.8996097E+00 )

 nodal point  x-rot      y-rot       z-rot       x-rot vel   y-rot vel   z-rot vel   x-rot acc   y-rot acc   z-rot acc
    22626 -9.68574E-07-4.21975E-05-7.12025E-05 6.46844E-07-5.75830E-05-9.61336E-05-4.66977E-05 1.47846E-04 2.57301E-04



 n o d a l   p r i n t   o u t   f o r   t i m e  s t e p    8001                              ( at time 3.9995997E+00 )

 nodal point  x-disp     y-disp      z-disp      x-vel       y-vel       z-vel      x-accl      y-accl      z-accl      x-coor      y-coor      z-coor
    22626 -1.68642E-02-3.24921E-02-1.25381E+01-1.03885E-02 3.14427E-03-3.16115E+00 5.49004E-03-1.07629E-02-3.41211E-03 4.79473E+01-2.20623E+01-5.19956E+00



 n o d a l   p r i n t   o u t   f o r   t i m e  s t e p    8001                              ( at time 3.9995997E+00 )

 nodal point  x-rot      y-rot       z-rot       x-rot vel   y-rot vel   z-rot vel   x-rot acc   y-rot acc   z-rot acc
    22626 -8.38338E-07-4.74428E-05-7.98881E-05-1.52977E-07-4.68962E-05-8.01125E-05-7.99902E-06 1.06879E-04 1.60228E-04



 n o d a l   p r i n t   o u t   f o r   t i m e  s t e p    8201                              ( at time 4.0995897E+00 )

 nodal point  x-disp     y-disp      z-disp      x-vel       y-vel       z-vel      x-accl      y-accl      z-accl      x-coor      y-coor      z-coor
    22626 -1.78208E-02-3.22927E-02-1.28541E+01-8.59796E-03 6.36464E-04-3.16064E+00 1.79074E-02-2.50805E-02 5.09551E-03 4.79464E+01-2.20621E+01-5.51562E+00



 n o d a l   p r i n t   o u t   f o r   t i m e  s t e p    8201                              ( at time 4.0995897E+00 )

 nodal point  x-rot      y-rot       z-rot       x-rot vel   y-rot vel   z-rot vel   x-rot acc   y-rot acc   z-rot acc
    22626 -8.42352E-07-5.15709E-05-8.68550E-05-1.95714E-07-3.22040E-05-5.65026E-05-4.27409E-07 1.46937E-04 2.36122E-04



 n o d a l   p r i n t   o u t   f o r   t i m e  s t e p    8401                              ( at time 4.1995797E+00 )

 nodal point  x-disp     y-disp      z-disp      x-vel       y-vel       z-vel      x-accl      y-accl      z-accl      x-coor      y-coor      z-coor
    22626 -1.86019E-02-3.23550E-02-1.31701E+01-6.96919E-03-1.79400E-03-3.16004E+00 1.62894E-02-2.43071E-02 5.93245E-03 4.79456E+01-2.20621E+01-5.83162E+00



 n o d a l   p r i n t   o u t   f o r   t i m e  s t e p    8401                              ( at time 4.1995797E+00 )

 nodal point  x-rot      y-rot       z-rot       x-rot vel   y-rot vel   z-rot vel   x-rot acc   y-rot acc   z-rot acc
    22626 -8.24508E-07-5.39466E-05-9.08060E-05-1.40210E-07-1.40448E-05-2.29716E-05 5.55099E-07 1.81610E-04 3.35344E-04



 n o d a l   p r i n t   o u t   f o r   t i m e  s t e p    8601                              ( at time 4.2995697E+00 )

 nodal point  x-disp     y-disp      z-disp      x-vel       y-vel       z-vel      x-accl      y-accl      z-accl      x-coor      y-coor      z-coor
    22626 -1.92352E-02-3.26536E-02-1.34861E+01-5.56614E-03-3.87558E-03-3.15987E+00 1.40319E-02-2.08179E-02 1.71917E-03 4.79449E+01-2.20624E+01-6.14757E+00



 n o d a l   p r i n t   o u t   f o r   t i m e  s t e p    8601                              ( at time 4.2995697E+00 )

 nodal point  x-rot      y-rot       z-rot       x-rot vel   y-rot vel   z-rot vel   x-rot acc   y-rot acc   z-rot acc
    22626 -8.41626E-07-5.43824E-05-9.16598E-05-5.25740E-07 2.69508E-06 4.52842E-06-3.85569E-06 1.67416E-04 2.75028E-04



 n o d a l   p r i n t   o u t   f o r   t i m e  s t e p    8801                              ( at time 4.3995597E+00 )

 nodal point  x-disp     y-disp      z-disp      x-vel       y-vel       z-vel      x-accl      y-accl      z-accl      x-coor      y-coor      z-coor
    22626 -1.97015E-02-3.30824E-02-1.38021E+01-3.80315E-03-4.74121E-03-3.16048E+00 1.76316E-02-8.65719E-03-6.05644E-03 4.79445E+01-2.20629E+01-6.46355E+00



 n o d a l   p r i n t   o u t   f o r   t i m e  s t e p    8801                              ( at time 4.3995597E+00 )

 nodal point  x-rot      y-rot       z-rot       x-rot vel   y-rot vel   z-rot vel   x-rot acc   y-rot acc   z-rot acc
    22626 -8.15223E-07-5.31019E-05-8.93357E-05 7.72282E-07 2.22929E-05 4.02267E-05 1.29815E-05 1.95998E-04 3.57019E-04



 n o d a l   p r i n t   o u t   f o r   t i m e  s t e p    9001                              ( at time 4.4995497E+00 )

 nodal point  x-disp     y-disp      z-disp      x-vel       y-vel       z-vel      x-accl      y-accl      z-accl      x-coor      y-coor      z-coor
    22626 -1.99991E-02-3.36519E-02-1.41181E+01-2.04889E-03-6.99921E-03-3.16009E+00 1.75444E-02-2.25822E-02 3.86991E-03 4.79442E+01-2.20634E+01-6.77956E+00



 n o d a l   p r i n t   o u t   f o r   t i m e  s t e p    9001                              ( at time 4.4995497E+00 )

 nodal point  x-rot      y-rot       z-rot       x-rot vel   y-rot vel   z-rot vel   x-rot acc   y-rot acc   z-rot acc
    22626 -6.78588E-07-4.96368E-05-8.32263E-05 3.55694E-06 4.40527E-05 7.67209E-05 2.78493E-05 2.17620E-04 3.64976E-04



 n o d a l   p r i n t   o u t   f o r   t i m e  s t e p    9201                              ( at time 4.5995397E+00 )

 nodal point  x-disp     y-disp      z-disp      x-vel       y-vel       z-vel      x-accl      y-accl      z-accl      x-coor      y-coor      z-coor
    22626 -2.01102E-02-3.45056E-02-1.44340E+01-1.26709E-04-9.89301E-03-3.15951E+00 1.92237E-02-2.89409E-02 5.83946E-03 4.79441E+01-2.20643E+01-7.09551E+00



 n o d a l   p r i n t   o u t   f o r   t i m e  s t e p    9201                              ( at time 4.5995397E+00 )

 nodal point  x-rot      y-rot       z-rot       x-rot vel   y-rot vel   z-rot vel   x-rot acc   y-rot acc   z-rot acc
    22626 -3.69687E-07-4.44158E-05-7.41152E-05 4.12442E-06 5.99467E-05 1.02724E-04 5.67530E-06 1.58955E-04 2.60058E-04



 n o d a l   p r i n t   o u t   f o r   t i m e  s t e p    9401                              ( at time 4.6995297E+00 )

 nodal point  x-disp     y-disp      z-disp      x-vel       y-vel       z-vel      x-accl      y-accl      z-accl      x-coor      y-coor      z-coor
    22626 -2.00056E-02-3.55760E-02-1.47499E+01 2.12287E-03-1.15045E-02-3.15936E+00 2.24981E-02-1.61166E-02 1.47119E-03 4.79442E+01-2.20654E+01-7.41142E+00



 n o d a l   p r i n t   o u t   f o r   t i m e  s t e p    9401                              ( at time 4.6995297E+00 )

 nodal point  x-rot      y-rot       z-rot       x-rot vel   y-rot vel   z-rot vel   x-rot acc   y-rot acc   z-rot acc
    22626  4.74524E-09-3.72570E-05-6.16771E-05 2.68928E-06 8.46634E-05 1.45653E-04-1.43528E-05 2.47192E-04 4.29334E-04



 n o d a l   p r i n t   o u t   f o r   t i m e  s t e p    9601                              ( at time 4.7995197E+00 )

 nodal point  x-disp     y-disp      z-disp      x-vel       y-vel       z-vel      x-accl      y-accl      z-accl      x-coor      y-coor      z-coor
    22626 -1.96941E-02-3.67979E-02-1.50658E+01 4.00457E-03-1.27469E-02-3.15962E+00 1.88189E-02-1.24249E-02-2.56087E-03 4.79445E+01-2.20666E+01-7.72733E+00



 n o d a l   p r i n t   o u t   f o r   t i m e  s t e p    9601                              ( at time 4.7995197E+00 )

 nodal point  x-rot      y-rot       z-rot       x-rot vel   y-rot vel   z-rot vel   x-rot acc   y-rot acc   z-rot acc
    22626  3.06706E-07-2.75451E-05-4.50265E-05-1.70455E-07 1.09212E-04 1.87255E-04-2.86003E-05 2.45509E-04 4.16062E-04



 n o d a l   p r i n t   o u t   f o r   t i m e  s t e p    9801                              ( at time 4.8995097E+00 )

 nodal point  x-disp     y-disp      z-disp      x-vel       y-vel       z-vel      x-accl      y-accl      z-accl      x-coor      y-coor      z-coor
    22626 -1.91892E-02-3.81424E-02-1.53817E+01 6.05079E-03-1.42342E-02-3.15881E+00 2.04642E-02-1.48747E-02 8.00452E-03 4.79450E+01-2.20679E+01-8.04325E+00



 n o d a l   p r i n t   o u t   f o r   t i m e  s t e p    9801                              ( at time 4.8995097E+00 )

 nodal point  x-rot      y-rot       z-rot       x-rot vel   y-rot vel   z-rot vel   x-rot acc   y-rot acc   z-rot acc
    22626  1.43335E-08-1.53908E-05-2.42419E-05-6.35286E-06 1.35835E-04 2.21686E-04-6.18303E-05 2.66259E-04 3.44345E-04



 n o d a l   p r i n t   o u t   f o r   t i m e  s t e p   10001                              ( at time 4.9994997E+00 )

 nodal point  x-disp     y-disp      z-disp      x-vel       y-vel       z-vel      x-accl      y-accl      z-accl      x-coor      y-coor      z-coor
    22626 -1.84727E-02-3.96260E-02-1.56975E+01 8.35602E-03-1.56603E-02-3.15577E+00 2.30546E-02-1.42620E-02 3.04609E-02 4.79457E+01-2.20694E+01-8.35896E+00



 n o d a l   p r i n t   o u t   f o r   t i m e  s t e p   10001                              ( at time 4.9994997E+00 )

 nodal point  x-rot      y-rot       z-rot       x-rot vel   y-rot vel   z-rot vel   x-rot acc   y-rot acc   z-rot acc
    22626  2.23342E-08 3.25032E-07-8.52032E-07 6.81079E-06 1.83995E-04 2.48507E-04 1.31649E-04 4.81648E-04 2.68236E-04



 n o d a l   p r i n t   o u t   f o r   t i m e  s t e p   10202                              ( at time 5.0999896E+00 )

 nodal point  x-disp     y-disp      z-disp      x-vel       y-vel       z-vel      x-accl      y-accl      z-accl      x-coor      y-coor      z-coor
    22626 -1.75273E-02-4.12309E-02-1.60143E+01 1.06825E-02-1.64243E-02-3.14865E+00 2.31517E-02-7.60358E-03 7.08378E-02 4.79467E+01-2.20710E+01-8.67576E+00



 n o d a l   p r i n t   o u t   f o r   t i m e  s t e p   10202                              ( at time 5.0999896E+00 )

 nodal point  x-rot      y-rot       z-rot       x-rot vel   y-rot vel   z-rot vel   x-rot acc   y-rot acc   z-rot acc
    22626  1.51581E-06 2.30503E-05 2.55984E-05 1.80384E-05 2.74034E-04 2.80198E-04 1.11730E-04 8.96005E-04 3.15360E-04



 n o d a l   p r i n t   o u t   f o r   t i m e  s t e p   10402                              ( at time 5.1999796E+00 )

 nodal point  x-disp     y-disp      z-disp      x-vel       y-vel       z-vel      x-accl      y-accl      z-accl      x-coor      y-coor      z-coor
    22626 -1.63802E-02-4.28104E-02-1.63285E+01 1.26570E-02-1.49943E-02-3.13721E+00 1.97462E-02 1.43015E-02 1.14419E-01 4.79478E+01-2.20726E+01-8.99004E+00



 n o d a l   p r i n t   o u t   f o r   t i m e  s t e p   10402                              ( at time 5.1999796E+00 )

 nodal point  x-rot      y-rot       z-rot       x-rot vel   y-rot vel   z-rot vel   x-rot acc   y-rot acc   z-rot acc
    22626  5.56362E-06 5.71531E-05 5.36092E-05 6.88944E-05 4.08198E-04 2.90968E-04 5.08608E-04 1.34177E-03 1.07717E-04



 n o d a l   p r i n t   o u t   f o r   t i m e  s t e p   10602                              ( at time 5.2999696E+00 )

 nodal point  x-disp     y-disp      z-disp      x-vel       y-vel       z-vel      x-accl      y-accl      z-accl      x-coor      y-coor      z-coor
    22626 -1.50372E-02-4.41034E-02-1.66414E+01 1.46036E-02-1.10433E-02-3.11923E+00 1.94685E-02 3.95143E-02 1.79857E-01 4.79491E+01-2.20739E+01-9.30289E+00



 n o d a l   p r i n t   o u t   f o r   t i m e  s t e p   10602                              ( at time 5.2999696E+00 )

 nodal point  x-rot      y-rot       z-rot       x-rot vel   y-rot vel   z-rot vel   x-rot acc   y-rot acc   z-rot acc
    22626  1.69876E-05 1.06125E-04 8.07822E-05 1.57026E-04 5.78737E-04 2.65529E-04 8.81410E-04 1.70556E-03-2.54421E-04



 n o d a l   p r i n t   o u t   f o r   t i m e  s t e p   10802                              ( at time 5.3999596E+00 )

 nodal point  x-disp     y-disp      z-disp      x-vel       y-vel       z-vel      x-accl      y-accl      z-accl      x-coor      y-coor      z-coor
    22626 -1.34607E-02-4.50608E-02-1.69522E+01 1.74770E-02-8.46309E-03-3.09702E+00 2.87367E-02 2.58046E-02 2.22117E-01 4.79507E+01-2.20749E+01-9.61374E+00



 n o d a l   p r i n t   o u t   f o r   t i m e  s t e p   10802                              ( at time 5.3999596E+00 )

 nodal point  x-rot      y-rot       z-rot       x-rot vel   y-rot vel   z-rot vel   x-rot acc   y-rot acc   z-rot acc
    22626  3.71490E-05 1.74663E-04 1.05764E-04 2.43272E-04 8.01894E-04 2.38985E-04 8.62541E-04 2.23179E-03-2.65462E-04



 n o d a l   p r i n t   o u t   f o r   t i m e  s t e p   11002                              ( at time 5.4999496E+00 )

 nodal point  x-disp     y-disp      z-disp      x-vel       y-vel       z-vel      x-accl      y-accl      z-accl      x-coor      y-coor      z-coor
    22626 -1.15679E-02-4.56420E-02-1.72606E+01 2.06984E-02-3.31190E-03-3.07170E+00 3.22170E-02 5.15171E-02 2.53143E-01 4.79526E+01-2.20754E+01-9.92215E+00



 n o d a l   p r i n t   o u t   f o r   t i m e  s t e p   11002                              ( at time 5.4999496E+00 )

 nodal point  x-rot      y-rot       z-rot       x-rot vel   y-rot vel   z-rot vel   x-rot acc   y-rot acc   z-rot acc
    22626  6.81187E-05 2.65861E-04 1.26980E-04 3.84634E-04 1.03049E-03 1.92285E-04 1.41377E-03 2.28615E-03-4.67046E-04



 n o d a l   p r i n t   o u t   f o r   t i m e  s t e p   11202                              ( at time 5.5999396E+00 )

 nodal point  x-disp     y-disp      z-disp      x-vel       y-vel       z-vel      x-accl      y-accl      z-accl      x-coor      y-coor      z-coor
    22626 -9.37986E-03-4.56238E-02-1.75663E+01 2.31836E-02 3.75077E-03-3.04129E+00 2.48554E-02 7.06338E-02 3.04229E-01 4.79548E+01-2.20754E+01-1.02278E+01



 n o d a l   p r i n t   o u t   f o r   t i m e  s t e p   11202                              ( at time 5.5999396E+00 )

 nodal point  x-rot      y-rot       z-rot       x-rot vel   y-rot vel   z-rot vel   x-rot acc   y-rot acc   z-rot acc
    22626  1.13334E-04 3.83517E-04 1.43502E-04 5.25608E-04 1.31757E-03 1.33136E-04 1.40988E-03 2.87111E-03-5.91551E-04



 n o d a l   p r i n t   o u t   f o r   t i m e  s t e p   11402                              ( at time 5.6999296E+00 )

 nodal point  x-disp     y-disp      z-disp      x-vel       y-vel       z-vel      x-accl      y-accl      z-accl      x-coor      y-coor      z-coor
    22626 -6.84790E-03-4.49427E-02-1.78688E+01 2.65293E-02 1.05678E-02-3.00909E+00 3.34597E-02 6.81770E-02 3.21977E-01 4.79573E+01-2.20747E+01-1.05303E+01



 n o d a l   p r i n t   o u t   f o r   t i m e  s t e p   11402                              ( at time 5.6999296E+00 )

 nodal point  x-rot      y-rot       z-rot       x-rot vel   y-rot vel   z-rot vel   x-rot acc   y-rot acc   z-rot acc
    22626  1.72746E-04 5.29735E-04 1.54769E-04 6.81059E-04 1.61265E-03 7.47817E-05 1.55465E-03 2.95106E-03-5.83602E-04



 n o d a l   p r i n t   o u t   f o r   t i m e  s t e p   11602                              ( at time 5.7999195E+00 )

 nodal point  x-disp     y-disp      z-disp      x-vel       y-vel       z-vel      x-accl      y-accl      z-accl      x-coor      y-coor      z-coor
    22626 -4.06286E-03-4.35827E-02-1.81679E+01 2.93423E-02 1.73887E-02-2.97420E+00 2.81332E-02 6.82158E-02 3.48975E-01 4.79601E+01-2.20734E+01-1.08294E+01



 n o d a l   p r i n t   o u t   f o r   t i m e  s t e p   11602                              ( at time 5.7999195E+00 )

 nodal point  x-rot      y-rot       z-rot       x-rot vel   y-rot vel   z-rot vel   x-rot acc   y-rot acc   z-rot acc
    22626  2.47529E-04 7.07857E-04 1.59431E-04 8.22692E-04 1.94526E-03 1.35661E-06 1.41648E-03 3.32646E-03-7.34325E-04



 n o d a l   p r i n t   o u t   f o r   t i m e  s t e p   11802                              ( at time 5.8999095E+00 )

 nodal point  x-disp     y-disp      z-disp      x-vel       y-vel       z-vel      x-accl      y-accl      z-accl      x-coor      y-coor      z-coor
    22626 -9.63280E-04-4.14943E-02-1.84634E+01 3.27037E-02 2.46451E-02-2.93560E+00 3.36167E-02 7.25713E-02 3.86015E-01 4.79632E+01-2.20713E+01-1.11249E+01



 n o d a l   p r i n t   o u t   f o r   t i m e  s t e p   11802                              ( at time 5.8999095E+00 )

 nodal point  x-rot      y-rot       z-rot       x-rot vel   y-rot vel   z-rot vel   x-rot acc   y-rot acc   z-rot acc
    22626  3.39536E-04 9.20056E-04 1.55478E-04 1.01639E-03 2.28718E-03-8.15769E-05 1.93718E-03 3.41959E-03-8.29419E-04



 n o d a l   p r i n t   o u t   f o r   t i m e  s t e p   12002                              ( at time 5.9998995E+00 )

 nodal point  x-disp     y-disp      z-disp      x-vel       y-vel       z-vel      x-accl      y-accl      z-accl      x-coor      y-coor      z-coor
    22626  2.50791E-03-3.87202E-02-1.87550E+01 3.66135E-02 3.13643E-02-2.89644E+00 3.91024E-02 6.71991E-02 3.91656E-01 4.79667E+01-2.20685E+01-1.14165E+01



 n o d a l   p r i n t   o u t   f o r   t i m e  s t e p   12002                              ( at time 5.9998995E+00 )

 nodal point  x-rot      y-rot       z-rot       x-rot vel   y-rot vel   z-rot vel   x-rot acc   y-rot acc   z-rot acc
    22626  4.49735E-04 1.16577E-03 1.43300E-04 1.17252E-03 2.64296E-03-1.70601E-04 1.56143E-03 3.55815E-03-8.90336E-04



 n o d a l   p r i n t   o u t   f o r   t i m e  s t e p   12202                              ( at time 6.0998895E+00 )

 nodal point  x-disp     y-disp      z-disp      x-vel       y-vel       z-vel      x-accl      y-accl      z-accl      x-coor      y-coor      z-coor
    22626  6.37539E-03-3.52305E-02-1.90426E+01 4.05777E-02 3.84373E-02-2.85625E+00 3.96453E-02 7.07366E-02 4.01867E-01 4.79706E+01-2.20650E+01-1.17041E+01



 n o d a l   p r i n t   o u t   f o r   t i m e  s t e p   12202                              ( at time 6.0998895E+00 )

 nodal point  x-rot      y-rot       z-rot       x-rot vel   y-rot vel   z-rot vel   x-rot acc   y-rot acc   z-rot acc
    22626  5.76787E-04 1.44807E-03 1.20714E-04 1.37620E-03 2.98685E-03-2.75543E-04 2.03699E-03 3.43921E-03-1.04952E-03



 n o d a l   p r i n t   o u t   f o r   t i m e  s t e p   12402                              ( at time 6.1998795E+00 )

 nodal point  x-disp     y-disp      z-disp      x-vel       y-vel       z-vel      x-accl      y-accl      z-accl      x-coor      y-coor      z-coor
    22626  1.06898E-02-3.09024E-02-1.93259E+01 4.59764E-02 4.76119E-02-2.81193E+00 5.39929E-02 9.17554E-02 4.43265E-01 4.79749E+01-2.20607E+01-1.19874E+01



 n o d a l   p r i n t   o u t   f o r   t i m e  s t e p   12402                              ( at time 6.1998795E+00 )

 nodal point  x-rot      y-rot       z-rot       x-rot vel   y-rot vel   z-rot vel   x-rot acc   y-rot acc   z-rot acc
    22626  7.24311E-04 1.76375E-03 8.73103E-05 1.57530E-03 3.32282E-03-3.97631E-04 1.99117E-03 3.36002E-03-1.22100E-03



 n o d a l   p r i n t   o u t   f o r   t i m e  s t e p   12602                              ( at time 6.2998695E+00 )

 nodal point  x-disp     y-disp      z-disp      x-vel       y-vel       z-vel      x-accl      y-accl      z-accl      x-coor      y-coor      z-coor
    22626  1.56118E-02-2.59053E-02-1.96048E+01 5.22195E-02 5.37005E-02-2.76609E+00 6.24375E-02 6.08915E-02 4.58456E-01 4.79798E+01-2.20557E+01-1.22663E+01



 n o d a l   p r i n t   o u t   f o r   t i m e  s t e p   12602                              ( at time 6.2998695E+00 )

 nodal point  x-rot      y-rot       z-rot       x-rot vel   y-rot vel   z-rot vel   x-rot acc   y-rot acc   z-rot acc
    22626  8.90249E-04 2.11439E-03 4.29673E-05 1.75182E-03 3.68898E-03-5.13521E-04 1.76542E-03 3.66197E-03-1.15902E-03



 n o d a l   p r i n t   o u t   f o r   t i m e  s t e p   12802                              ( at time 6.3998595E+00 )

 nodal point  x-disp     y-disp      z-disp      x-vel       y-vel       z-vel      x-accl      y-accl      z-accl      x-coor      y-coor      z-coor
    22626  2.12170E-02-2.01945E-02-1.98791E+01 5.94801E-02 6.11973E-02-2.71994E+00 7.26132E-02 7.49756E-02 4.61582E-01 4.79854E+01-2.20500E+01-1.25406E+01



 n o d a l   p r i n t   o u t   f o r   t i m e  s t e p   12802                              ( at time 6.3998595E+00 )

 nodal point  x-rot      y-rot       z-rot       x-rot vel   y-rot vel   z-rot vel   x-rot acc   y-rot acc   z-rot acc
    22626  1.07617E-03 2.49951E-03-1.25539E-05 1.97482E-03 4.00450E-03-6.12019E-04 2.23027E-03 3.15560E-03-9.85076E-04



 n o d a l   p r i n t   o u t   f o r   t i m e  s t e p   13002                              ( at time 6.4998495E+00 )

 nodal point  x-disp     y-disp      z-disp      x-vel       y-vel       z-vel      x-accl      y-accl      z-accl      x-coor      y-coor      z-coor
    22626  2.75705E-02-1.36826E-02-2.01487E+01 6.73892E-02 6.90015E-02-2.67133E+00 7.90993E-02 7.80507E-02 4.86166E-01 4.79917E+01-2.20435E+01-1.28102E+01



 n o d a l   p r i n t   o u t   f o r   t i m e  s t e p   13002                              ( at time 6.4998495E+00 )

 nodal point  x-rot      y-rot       z-rot       x-rot vel   y-rot vel   z-rot vel   x-rot acc   y-rot acc   z-rot acc
    22626  1.28461E-03 2.91709E-03-7.98292E-05 2.17719E-03 4.34583E-03-7.37359E-04 2.02387E-03 3.41356E-03-1.25353E-03



 n o d a l   p r i n t   o u t   f o r   t i m e  s t e p   13202                              ( at time 6.5998395E+00 )

 nodal point  x-disp     y-disp      z-disp      x-vel       y-vel       z-vel      x-accl      y-accl      z-accl      x-coor      y-coor      z-coor
    22626  3.47733E-02-6.41597E-03-2.04134E+01 7.65040E-02 7.62307E-02-2.62413E+00 9.11568E-02 7.22989E-02 4.72019E-01 4.79990E+01-2.20362E+01-1.30749E+01



 n o d a l   p r i n t   o u t   f o r   t i m e  s t e p   13202                              ( at time 6.5998395E+00 )

 nodal point  x-rot      y-rot       z-rot       x-rot vel   y-rot vel   z-rot vel   x-rot acc   y-rot acc   z-rot acc
    22626  1.51278E-03 3.36641E-03-1.58840E-04 2.39827E-03 4.64066E-03-8.41036E-04 2.21100E-03 2.94863E-03-1.03687E-03



 n o d a l   p r i n t   o u t   f o r   t i m e  s t e p   13402                              ( at time 6.6998295E+00 )

 nodal point  x-disp     y-disp      z-disp      x-vel       y-vel       z-vel      x-accl      y-accl      z-accl      x-coor      y-coor      z-coor
    22626  4.27957E-02 1.67634E-03-2.06733E+01 8.50448E-02 8.43074E-02-2.57444E+00 8.54159E-02 8.07743E-02 4.96893E-01 4.80070E+01-2.20281E+01-1.33348E+01



 n o d a l   p r i n t   o u t   f o r   t i m e  s t e p   13402                              ( at time 6.6998295E+00 )

 nodal point  x-rot      y-rot       z-rot       x-rot vel   y-rot vel   z-rot vel   x-rot acc   y-rot acc   z-rot acc
    22626  1.76493E-03 3.84636E-03-2.49783E-04 2.63031E-03 4.93972E-03-9.67141E-04 2.32065E-03 2.99087E-03-1.26118E-03



 n o d a l   p r i n t   o u t   f o r   t i m e  s t e p   13602                              ( at time 6.7998195E+00 )

 nodal point  x-disp     y-disp      z-disp      x-vel       y-vel       z-vel      x-accl      y-accl      z-accl      x-coor      y-coor      z-coor
    22626  5.17756E-02 1.05008E-02-2.09280E+01 9.48705E-02 9.18266E-02-2.52176E+00 9.82674E-02 7.51999E-02 5.26908E-01 4.80160E+01-2.20193E+01-1.35895E+01



 n o d a l   p r i n t   o u t   f o r   t i m e  s t e p   13602                              ( at time 6.7998195E+00 )

 nodal point  x-rot      y-rot       z-rot       x-rot vel   y-rot vel   z-rot vel   x-rot acc   y-rot acc   z-rot acc
    22626  2.03770E-03 4.35572E-03-3.53126E-04 2.84659E-03 5.23974E-03-1.09341E-03 2.16306E-03 3.00055E-03-1.26281E-03



 n o d a l   p r i n t   o u t   f o r   t i m e  s t e p   13802                              ( at time 6.8998095E+00 )

 nodal point  x-disp     y-disp      z-disp      x-vel       y-vel       z-vel      x-accl      y-accl      z-accl      x-coor      y-coor      z-coor
    22626  6.17313E-02 2.00397E-02-2.11776E+01 1.03993E-01 1.00075E-01-2.46977E+00 9.12310E-02 8.24962E-02 5.19960E-01 4.80259E+01-2.20098E+01-1.38391E+01



 n o d a l   p r i n t   o u t   f o r   t i m e  s t e p   13802                              ( at time 6.8998095E+00 )

 nodal point  x-rot      y-rot       z-rot       x-rot vel   y-rot vel   z-rot vel   x-rot acc   y-rot acc   z-rot acc
    22626  2.33444E-03 4.89347E-03-4.68638E-04 3.08816E-03 5.51839E-03-1.22222E-03 2.41589E-03 2.78673E-03-1.28828E-03



 n o d a l   p r i n t   o u t   f o r   t i m e  s t e p   14002                              ( at time 6.9997995E+00 )

 nodal point  x-disp     y-disp      z-disp      x-vel       y-vel       z-vel      x-accl      y-accl      z-accl      x-coor      y-coor      z-coor
    22626  7.26370E-02 3.04657E-02-2.14219E+01 1.13972E-01 1.07944E-01-2.41608E+00 9.98021E-02 7.86904E-02 5.36971E-01 4.80368E+01-2.19993E+01-1.40834E+01



 n o d a l   p r i n t   o u t   f o r   t i m e  s t e p   14002                              ( at time 6.9997995E+00 )

 nodal point  x-rot      y-rot       z-rot       x-rot vel   y-rot vel   z-rot vel   x-rot acc   y-rot acc   z-rot acc
    22626  2.65438E-03 5.46002E-03-5.97275E-04 3.32024E-03 5.80635E-03-1.35041E-03 2.32109E-03 2.87987E-03-1.28201E-03



 n o d a l   p r i n t   o u t   f o r   t i m e  s t e p   14202                              ( at time 7.0997895E+00 )

 nodal point  x-disp     y-disp      z-disp      x-vel       y-vel       z-vel      x-accl      y-accl      z-accl      x-coor      y-coor      z-coor
    22626  8.44827E-02 4.15902E-02-2.16608E+01 1.22985E-01 1.14952E-01-2.36169E+00 9.01439E-02 7.00862E-02 5.43897E-01 4.80487E+01-2.19882E+01-1.43223E+01



 n o d a l   p r i n t   o u t   f o r   t i m e  s t e p   14202                              ( at time 7.0997895E+00 )

 nodal point  x-rot      y-rot       z-rot       x-rot vel   y-rot vel   z-rot vel   x-rot acc   y-rot acc   z-rot acc
    22626  2.99837E-03 6.05441E-03-7.37987E-04 3.56487E-03 6.08500E-03-1.46912E-03 2.44653E-03 2.78685E-03-1.18718E-03



 n o d a l   p r i n t   o u t   f o r   t i m e  s t e p   14402                              ( at time 7.1997794E+00 )

 nodal point  x-disp     y-disp      z-disp      x-vel       y-vel       z-vel      x-accl      y-accl      z-accl      x-coor      y-coor      z-coor
    22626  9.72377E-02 5.33836E-02-2.18941E+01 1.31826E-01 1.20873E-01-2.30633E+00 8.84194E-02 5.92163E-02 5.53707E-01 4.80614E+01-2.19764E+01-1.45556E+01



 n o d a l   p r i n t   o u t   f o r   t i m e  s t e p   14402                              ( at time 7.1997794E+00 )

 nodal point  x-rot      y-rot       z-rot       x-rot vel   y-rot vel   z-rot vel   x-rot acc   y-rot acc   z-rot acc
    22626  3.36695E-03 6.67705E-03-8.90295E-04 3.81058E-03 6.36198E-03-1.58690E-03 2.45732E-03 2.77001E-03-1.17794E-03



 n o d a l   p r i n t   o u t   f o r   t i m e  s t e p   14602                              ( at time 7.2997694E+00 )

 nodal point  x-disp     y-disp      z-disp      x-vel       y-vel       z-vel      x-accl      y-accl      z-accl      x-coor      y-coor      z-coor
    22626  1.10932E-01 6.58269E-02-2.21219E+01 1.40969E-01 1.27428E-01-2.25022E+00 9.14383E-02 6.55641E-02 5.61125E-01 4.80751E+01-2.19640E+01-1.47834E+01



 n o d a l   p r i n t   o u t   f o r   t i m e  s t e p   14602                              ( at time 7.2997694E+00 )

 nodal point  x-rot      y-rot       z-rot       x-rot vel   y-rot vel   z-rot vel   x-rot acc   y-rot acc   z-rot acc
    22626  3.76072E-03 7.32798E-03-1.05450E-03 4.06614E-03 6.64668E-03-1.69248E-03 2.55585E-03 2.84733E-03-1.05588E-03



 n o d a l   p r i n t   o u t   f o r   t i m e  s t e p   14802                              ( at time 7.3997594E+00 )

 nodal point  x-disp     y-disp      z-disp      x-vel       y-vel       z-vel      x-accl      y-accl      z-accl      x-coor      y-coor      z-coor
    22626  1.25431E-01 7.87996E-02-2.23441E+01 1.49321E-01 1.32418E-01-2.19275E+00 8.35286E-02 4.99061E-02 5.74809E-01 4.80896E+01-2.19510E+01-1.50056E+01



 n o d a l   p r i n t   o u t   f o r   t i m e  s t e p   14802                              ( at time 7.3997594E+00 )

 nodal point  x-rot      y-rot       z-rot       x-rot vel   y-rot vel   z-rot vel   x-rot acc   y-rot acc   z-rot acc
    22626  4.18094E-03 8.00628E-03-1.22881E-03 4.32879E-03 6.92982E-03-1.80170E-03 2.62680E-03 2.83164E-03-1.09230E-03



 n o d a l   p r i n t   o u t   f o r   t i m e  s t e p   15002                              ( at time 7.4997494E+00 )

 nodal point  x-disp     y-disp      z-disp      x-vel       y-vel       z-vel      x-accl      y-accl      z-accl      x-coor      y-coor      z-coor
    22626  1.40732E-01 9.22311E-02-2.25603E+01 1.57242E-01 1.35946E-01-2.13318E+00 7.92153E-02 3.52768E-02 5.95715E-01 4.81049E+01-2.19376E+01-1.52218E+01



 n o d a l   p r i n t   o u t   f o r   t i m e  s t e p   15002                              ( at time 7.4997494E+00 )

 nodal point  x-rot      y-rot       z-rot       x-rot vel   y-rot vel   z-rot vel   x-rot acc   y-rot acc   z-rot acc
    22626  4.62714E-03 8.71443E-03-1.41417E-03 4.59421E-03 7.22168E-03-1.89163E-03 2.65441E-03 2.91889E-03-8.99414E-04



 n o d a l   p r i n t   o u t   f o r   t i m e  s t e p   15202                              ( at time 7.5997394E+00 )

 nodal point  x-disp     y-disp      z-disp      x-vel       y-vel       z-vel      x-accl      y-accl      z-accl      x-coor      y-coor      z-coor
    22626  1.56744E-01 1.06049E-01-2.27705E+01 1.63292E-01 1.39048E-01-2.06996E+00 6.05048E-02 3.10296E-02 6.32228E-01 4.81209E+01-2.19237E+01-1.54320E+01



 n o d a l   p r i n t   o u t   f o r   t i m e  s t e p   15202                              ( at time 7.5997394E+00 )

 nodal point  x-rot      y-rot       z-rot       x-rot vel   y-rot vel   z-rot vel   x-rot acc   y-rot acc   z-rot acc
    22626  5.10159E-03 9.45157E-03-1.60897E-03 4.87988E-03 7.53333E-03-1.98213E-03 2.85694E-03 3.11682E-03-9.05051E-04



 n o d a l   p r i n t   o u t   f o r   t i m e  s t e p   15402                              ( at time 7.6997294E+00 )

 nodal point  x-disp     y-disp      z-disp      x-vel       y-vel       z-vel      x-accl      y-accl      z-accl      x-coor      y-coor      z-coor
    22626  1.73355E-01 1.20010E-01-2.29743E+01 1.68827E-01 1.40438E-01-2.00444E+00 5.53531E-02 1.38951E-02 6.55288E-01 4.81375E+01-2.19098E+01-1.56357E+01



 n o d a l   p r i n t   o u t   f o r   t i m e  s t e p   15402                              ( at time 7.6997294E+00 )

 nodal point  x-rot      y-rot       z-rot       x-rot vel   y-rot vel   z-rot vel   x-rot acc   y-rot acc   z-rot acc
    22626  5.60445E-03 1.02187E-02-1.81255E-03 5.17553E-03 7.82433E-03-2.07714E-03 2.95686E-03 2.91032E-03-9.50238E-04



 n o d a l   p r i n t   o u t   f o r   t i m e  s t e p   15602                              ( at time 7.7997194E+00 )

 nodal point  x-disp     y-disp      z-disp      x-vel       y-vel       z-vel      x-accl      y-accl      z-accl      x-coor      y-coor      z-coor
    22626  1.90614E-01 1.34202E-01-2.31715E+01 1.75861E-01 1.42446E-01-1.93949E+00 7.03471E-02 2.00805E-02 6.49592E-01 4.81548E+01-2.18956E+01-1.58330E+01



 n o d a l   p r i n t   o u t   f o r   t i m e  s t e p   15602                              ( at time 7.7997194E+00 )

 nodal point  x-rot      y-rot       z-rot       x-rot vel   y-rot vel   z-rot vel   x-rot acc   y-rot acc   z-rot acc
    22626  6.13780E-03 1.10143E-02-2.02566E-03 5.48619E-03 8.09123E-03-2.17283E-03 3.10687E-03 2.66923E-03-9.56977E-04



 n o d a l   p r i n t   o u t   f o r   t i m e  s t e p   15802                              ( at time 7.8997094E+00 )

 nodal point  x-disp     y-disp      z-disp      x-vel       y-vel       z-vel      x-accl      y-accl      z-accl      x-coor      y-coor      z-coor
    22626  2.08565E-01 1.48431E-01-2.33618E+01 1.83157E-01 1.41682E-01-1.86992E+00 7.29682E-02-7.63613E-03 6.95704E-01 4.81727E+01-2.18814E+01-1.60233E+01



 n o d a l   p r i n t   o u t   f o r   t i m e  s t e p   15802                              ( at time 7.8997094E+00 )

 nodal point  x-rot      y-rot       z-rot       x-rot vel   y-rot vel   z-rot vel   x-rot acc   y-rot acc   z-rot acc
    22626  6.70164E-03 1.18365E-02-2.24673E-03 5.79266E-03 8.34122E-03-2.24858E-03 3.06504E-03 2.50024E-03-7.57549E-04



 n o d a l   p r i n t   o u t   f o r   t i m e  s t e p   16002                              ( at time 7.9996994E+00 )

 nodal point  x-disp     y-disp      z-disp      x-vel       y-vel       z-vel      x-accl      y-accl      z-accl      x-coor      y-coor      z-coor
    22626  2.27218E-01 1.62685E-01-2.35454E+01 1.89546E-01 1.43199E-01-1.80136E+00 6.38986E-02 1.51697E-02 6.85759E-01 4.81914E+01-2.18671E+01-1.62069E+01



 n o d a l   p r i n t   o u t   f o r   t i m e  s t e p   16002                              ( at time 7.9996994E+00 )

 nodal point  x-rot      y-rot       z-rot       x-rot vel   y-rot vel   z-rot vel   x-rot acc   y-rot acc   z-rot acc
    22626  7.29753E-03 1.26811E-02-2.47484E-03 6.12955E-03 8.56259E-03-2.32763E-03 3.36918E-03 2.21385E-03-7.90660E-04



 n o d a l   p r i n t   o u t   f o r   t i m e  s t e p   16202                              ( at time 8.0996894E+00 )

 nodal point  x-disp     y-disp      z-disp      x-vel       y-vel       z-vel      x-accl      y-accl      z-accl      x-coor      y-coor      z-coor
    22626  2.46520E-01 1.76861E-01-2.37218E+01 1.96593E-01 1.40303E-01-1.72928E+00 7.04714E-02-2.89601E-02 7.20843E-01 4.82107E+01-2.18529E+01-1.63833E+01



 n o d a l   p r i n t   o u t   f o r   t i m e  s t e p   16202                              ( at time 8.0996894E+00 )

 nodal point  x-rot      y-rot       z-rot       x-rot vel   y-rot vel   z-rot vel   x-rot acc   y-rot acc   z-rot acc
    22626  7.92697E-03 1.35502E-02-2.71096E-03 6.46811E-03 8.80057E-03-2.40847E-03 3.38603E-03 2.38004E-03-8.08437E-04



 n o d a l   p r i n t   o u t   f o r   t i m e  s t e p   16402                              ( at time 8.1996794E+00 )

 nodal point  x-disp     y-disp      z-disp      x-vel       y-vel       z-vel      x-accl      y-accl      z-accl      x-coor      y-coor      z-coor
    22626  2.66516E-01 1.90855E-01-2.38912E+01 2.02696E-01 1.39869E-01-1.65908E+00 6.10428E-02-4.33921E-03 7.02081E-01 4.82307E+01-2.18389E+01-1.65527E+01



 n o d a l   p r i n t   o u t   f o r   t i m e  s t e p   16402                              ( at time 8.1996794E+00 )

 nodal point  x-rot      y-rot       z-rot       x-rot vel   y-rot vel   z-rot vel   x-rot acc   y-rot acc   z-rot acc
    22626  8.59071E-03 1.44405E-02-2.95419E-03 6.80385E-03 8.99681E-03-2.46485E-03 3.35767E-03 1.96263E-03-5.63894E-04



 n o d a l   p r i n t   o u t   f o r   t i m e  s t e p   16602                              ( at time 8.2996694E+00 )

 nodal point  x-disp     y-disp      z-disp      x-vel       y-vel       z-vel      x-accl      y-accl      z-accl      x-coor      y-coor      z-coor
    22626  2.87101E-01 2.04656E-01-2.40536E+01 2.09012E-01 1.36956E-01-1.58715E+00 6.31675E-02-2.91390E-02 7.19329E-01 4.82513E+01-2.18251E+01-1.67151E+01



 n o d a l   p r i n t   o u t   f o r   t i m e  s t e p   16602                              ( at time 8.2996694E+00 )

 nodal point  x-rot      y-rot       z-rot       x-rot vel   y-rot vel   z-rot vel   x-rot acc   y-rot acc   z-rot acc
    22626  9.28757E-03 1.53488E-02-3.20280E-03 7.14713E-03 9.16649E-03-2.53766E-03 3.43317E-03 1.69699E-03-7.28193E-04



 n o d a l   p r i n t   o u t   f o r   t i m e  s t e p   16802                              ( at time 8.3996594E+00 )

 nodal point  x-disp     y-disp      z-disp      x-vel       y-vel       z-vel      x-accl      y-accl      z-accl      x-coor      y-coor      z-coor
    22626  3.08326E-01 2.18159E-01-2.42086E+01 2.15182E-01 1.33220E-01-1.51380E+00 6.17029E-02-3.73601E-02 7.33562E-01 4.82725E+01-2.18116E+01-1.68701E+01



 n o d a l   p r i n t   o u t   f o r   t i m e  s t e p   16802                              ( at time 8.3996594E+00 )

 nodal point  x-rot      y-rot       z-rot       x-rot vel   y-rot vel   z-rot vel   x-rot acc   y-rot acc   z-rot acc
    22626  1.00208E-02 1.62764E-02-3.45913E-03 7.51093E-03 9.35660E-03-2.58630E-03 3.63841E-03 1.90130E-03-4.86411E-04



 n o d a l   p r i n t   o u t   f o r   t i m e  s t e p   17002                              ( at time 8.4996494E+00 )

 nodal point  x-disp     y-disp      z-disp      x-vel       y-vel       z-vel      x-accl      y-accl      z-accl      x-coor      y-coor      z-coor
    22626  3.30166E-01 2.31165E-01-2.43562E+01 2.22501E-01 1.26573E-01-1.43828E+00 7.31982E-02-6.64744E-02 7.55313E-01 4.82943E+01-2.17986E+01-1.70177E+01



 n o d a l   p r i n t   o u t   f o r   t i m e  s t e p   17002                              ( at time 8.4996494E+00 )

 nodal point  x-rot      y-rot       z-rot       x-rot vel   y-rot vel   z-rot vel   x-rot acc   y-rot acc   z-rot acc
    22626  1.07897E-02 1.72188E-02-3.72084E-03 7.86917E-03 9.48760E-03-2.64042E-03 3.58275E-03 1.31012E-03-5.41232E-04



 n o d a l   p r i n t   o u t   f o r   t i m e  s t e p   17202                              ( at time 8.5996394E+00 )

 nodal point  x-disp     y-disp      z-disp      x-vel       y-vel       z-vel      x-accl      y-accl      z-accl      x-coor      y-coor      z-coor
    22626  3.52745E-01 2.43595E-01-2.44962E+01 2.29050E-01 1.22013E-01-1.36262E+00 6.54963E-02-4.56119E-02 7.56669E-01 4.83169E+01-2.17862E+01-1.71577E+01



 n o d a l   p r i n t   o u t   f o r   t i m e  s t e p   17202                              ( at time 8.5996394E+00 )

 nodal point  x-rot      y-rot       z-rot       x-rot vel   y-rot vel   z-rot vel   x-rot acc   y-rot acc   z-rot acc
    22626  1.15972E-02 1.81747E-02-3.98943E-03 8.26079E-03 9.62832E-03-2.70461E-03 3.91661E-03 1.40728E-03-6.41956E-04



 n o d a l   p r i n t   o u t   f o r   t i m e  s t e p   17402                              ( at time 8.6996293E+00 )

 nodal point  x-disp     y-disp      z-disp      x-vel       y-vel       z-vel      x-accl      y-accl      z-accl      x-coor      y-coor      z-coor
    22626  3.75932E-01 2.55446E-01-2.46286E+01 2.34755E-01 1.13847E-01-1.28635E+00 5.70542E-02-8.16637E-02 7.62778E-01 4.83401E+01-2.17743E+01-1.72901E+01



 n o d a l   p r i n t   o u t   f o r   t i m e  s t e p   17402                              ( at time 8.6996293E+00 )

 nodal point  x-rot      y-rot       z-rot       x-rot vel   y-rot vel   z-rot vel   x-rot acc   y-rot acc   z-rot acc
    22626  1.24410E-02 1.91433E-02-4.26287E-03 8.61960E-03 9.73710E-03-2.75341E-03 3.58835E-03 1.08797E-03-4.88100E-04



 n o d a l   p r i n t   o u t   f o r   t i m e  s t e p   17602                              ( at time 8.7996193E+00 )

 nodal point  x-disp     y-disp      z-disp      x-vel       y-vel       z-vel      x-accl      y-accl      z-accl      x-coor      y-coor      z-coor
    22626  3.99746E-01 2.66515E-01-2.47534E+01 2.41613E-01 1.07889E-01-1.20958E+00 6.85848E-02-5.95890E-02 7.67779E-01 4.83639E+01-2.17633E+01-1.74149E+01



 n o d a l   p r i n t   o u t   f o r   t i m e  s t e p   17602                              ( at time 8.7996193E+00 )

 nodal point  x-rot      y-rot       z-rot       x-rot vel   y-rot vel   z-rot vel   x-rot acc   y-rot acc   z-rot acc
    22626  1.33238E-02 2.01213E-02-4.54261E-03 9.03667E-03 9.82576E-03-2.84406E-03 4.17116E-03 8.86690E-04-9.06583E-04



 n o d a l   p r i n t   o u t   f o r   t i m e  s t e p   17802                              ( at time 8.8996093E+00 )

 nodal point  x-disp     y-disp      z-disp      x-vel       y-vel       z-vel      x-accl      y-accl      z-accl      x-coor      y-coor      z-coor
    22626  4.24295E-01 2.76952E-01-2.48704E+01 2.48842E-01 1.00272E-01-1.13242E+00 7.23033E-02-7.61783E-02 7.71716E-01 4.83885E+01-2.17528E+01-1.75319E+01



 n o d a l   p r i n t   o u t   f o r   t i m e  s t e p   17802                              ( at time 8.8996093E+00 )

 nodal point  x-rot      y-rot       z-rot       x-rot vel   y-rot vel   z-rot vel   x-rot acc   y-rot acc   z-rot acc
    22626  1.42459E-02 2.11082E-02-4.82854E-03 9.41781E-03 9.92428E-03-2.88874E-03 3.81175E-03 9.85299E-04-4.46815E-04



 n o d a l   p r i n t   o u t   f o r   t i m e  s t e p   18002                              ( at time 8.9995993E+00 )

 nodal point  x-disp     y-disp      z-disp      x-vel       y-vel       z-vel      x-accl      y-accl      z-accl      x-coor      y-coor      z-coor
    22626  4.49477E-01 2.86623E-01-2.49799E+01 2.54641E-01 9.39531E-02-1.05805E+00 5.79916E-02-6.31917E-02 7.43713E-01 4.84137E+01-2.17432E+01-1.76414E+01



 n o d a l   p r i n t   o u t   f o r   t i m e  s t e p   18002                              ( at time 8.9995993E+00 )

 nodal point  x-rot      y-rot       z-rot       x-rot vel   y-rot vel   z-rot vel   x-rot acc   y-rot acc   z-rot acc
    22626  1.52078E-02 2.21048E-02-5.11857E-03 9.81502E-03 1.00109E-02-2.92546E-03 3.97254E-03 8.65929E-04-3.67293E-04



 n o d a l   p r i n t   o u t   f o r   t i m e  s t e p   18202                              ( at time 9.0995893E+00 )

 nodal point  x-disp     y-disp      z-disp      x-vel       y-vel       z-vel      x-accl      y-accl      z-accl      x-coor      y-coor      z-coor
    22626  4.75368E-01 2.95761E-01-2.50820E+01 2.63044E-01 8.91668E-02-9.84856E-01 8.40379E-02-4.78682E-02 7.32031E-01 4.84395E+01-2.17340E+01-1.77435E+01



 n o d a l   p r i n t   o u t   f o r   t i m e  s t e p   18202                              ( at time 9.0995893E+00 )

 nodal point  x-rot      y-rot       z-rot       x-rot vel   y-rot vel   z-rot vel   x-rot acc   y-rot acc   z-rot acc
    22626  1.62082E-02 2.31078E-02-5.41298E-03 1.02083E-02 1.00704E-02-2.97253E-03 3.93344E-03 5.94905E-04-4.70661E-04



 n o d a l   p r i n t   o u t   f o r   t i m e  s t e p   18402                              ( at time 9.1995793E+00 )

 nodal point  x-disp     y-disp      z-disp      x-vel       y-vel       z-vel      x-accl      y-accl      z-accl      x-coor      y-coor      z-coor
    22626  5.02046E-01 3.04357E-01-2.51768E+01 2.70396E-01 8.33340E-02-9.12431E-01 7.35330E-02-5.83330E-02 7.24323E-01 4.84662E+01-2.17254E+01-1.78383E+01



 n o d a l   p r i n t   o u t   f o r   t i m e  s t e p   18402                              ( at time 9.1995793E+00 )

 nodal point  x-rot      y-rot       z-rot       x-rot vel   y-rot vel   z-rot vel   x-rot acc   y-rot acc   z-rot acc
    22626  1.72496E-02 2.41190E-02-5.71198E-03 1.06156E-02 1.01455E-02-3.00618E-03 4.07353E-03 7.51094E-04-3.36598E-04



 n o d a l   p r i n t   o u t   f o r   t i m e  s t e p   18602                              ( at time 9.2995693E+00 )

 nodal point  x-disp     y-disp      z-disp      x-vel       y-vel       z-vel      x-accl      y-accl      z-accl      x-coor      y-coor      z-coor
    22626  5.29428E-01 3.12516E-01-2.52643E+01 2.77375E-01 8.07990E-02-8.39756E-01 6.97931E-02-2.53532E-02 7.26825E-01 4.84936E+01-2.17173E+01-1.79258E+01



 n o d a l   p r i n t   o u t   f o r   t i m e  s t e p   18602                              ( at time 9.2995693E+00 )

 nodal point  x-rot      y-rot       z-rot       x-rot vel   y-rot vel   z-rot vel   x-rot acc   y-rot acc   z-rot acc
    22626  1.83318E-02 2.51371E-02-6.01549E-03 1.10348E-02 1.02082E-02-3.07288E-03 4.19157E-03 6.27421E-04-6.66992E-04



 n o d a l   p r i n t   o u t   f o r   t i m e  s t e p   18802                              ( at time 9.3995593E+00 )

 nodal point  x-disp     y-disp      z-disp      x-vel       y-vel       z-vel      x-accl      y-accl      z-accl      x-coor      y-coor      z-coor
    22626  5.57568E-01 3.20254E-01-2.53449E+01 2.85080E-01 7.48433E-02-7.70528E-01 7.70545E-02-5.95624E-02 6.92351E-01 4.85217E+01-2.17095E+01-1.80064E+01



 n o d a l   p r i n t   o u t   f o r   t i m e  s t e p   18802                              ( at time 9.3995593E+00 )

 nodal point  x-rot      y-rot       z-rot       x-rot vel   y-rot vel   z-rot vel   x-rot acc   y-rot acc   z-rot acc
    22626  1.94541E-02 2.61610E-02-6.32344E-03 1.14030E-02 1.02807E-02-3.08160E-03 3.68332E-03 7.24726E-04-8.72481E-05



 n o d a l   p r i n t   o u t   f o r   t i m e  s t e p   19002                              ( at time 9.4995493E+00 )

 nodal point  x-disp     y-disp      z-disp      x-vel       y-vel       z-vel      x-accl      y-accl      z-accl      x-coor      y-coor      z-coor
    22626  5.86487E-01 3.27624E-01-2.54185E+01 2.91836E-01 7.18055E-02-7.02665E-01 6.75714E-02-3.03816E-02 6.78691E-01 4.85507E+01-2.17022E+01-1.80800E+01



 n o d a l   p r i n t   o u t   f o r   t i m e  s t e p   19002                              ( at time 9.4995493E+00 )

 nodal point  x-rot      y-rot       z-rot       x-rot vel   y-rot vel   z-rot vel   x-rot acc   y-rot acc   z-rot acc
    22626  2.06151E-02 2.71928E-02-6.63343E-03 1.18094E-02 1.03609E-02-3.11864E-03 4.06369E-03 8.02807E-04-3.70476E-04



 n o d a l   p r i n t   o u t   f o r   t i m e  s t e p   19202                              ( at time 9.5995393E+00 )

 nodal point  x-disp     y-disp      z-disp      x-vel       y-vel       z-vel      x-accl      y-accl      z-accl      x-coor      y-coor      z-coor
    22626  6.15991E-01 3.34885E-01-2.54854E+01 2.99115E-01 7.21272E-02-6.36390E-01 7.27944E-02 3.21701E-03 6.62810E-01 4.85802E+01-2.16949E+01-1.81469E+01



 n o d a l   p r i n t   o u t   f o r   t i m e  s t e p   19202                              ( at time 9.5995393E+00 )

 nodal point  x-rot      y-rot       z-rot       x-rot vel   y-rot vel   z-rot vel   x-rot acc   y-rot acc   z-rot acc
    22626  2.18172E-02 2.82308E-02-6.94976E-03 1.22032E-02 1.04172E-02-3.18214E-03 3.93909E-03 5.62421E-04-6.34994E-04



 n o d a l   p r i n t   o u t   f o r   t i m e  s t e p   19402                              ( at time 9.6995293E+00 )

 nodal point  x-disp     y-disp      z-disp      x-vel       y-vel       z-vel      x-accl      y-accl      z-accl      x-coor      y-coor      z-coor
    22626  6.46287E-01 3.41963E-01-2.55459E+01 3.08652E-01 6.86550E-02-5.72157E-01 9.53854E-02-3.47254E-02 6.42398E-01 4.86105E+01-2.16878E+01-1.82074E+01



 n o d a l   p r i n t   o u t   f o r   t i m e  s t e p   19402                              ( at time 9.6995293E+00 )

 nodal point  x-rot      y-rot       z-rot       x-rot vel   y-rot vel   z-rot vel   x-rot acc   y-rot acc   z-rot acc
    22626  2.30569E-02 2.92733E-02-7.27003E-03 1.25858E-02 1.04521E-02-3.20883E-03 3.82595E-03 3.49896E-04-2.67012E-04



 n o d a l   p r i n t   o u t   f o r   t i m e  s t e p   19602                              ( at time 9.7995193E+00 )

 nodal point  x-disp     y-disp      z-disp      x-vel       y-vel       z-vel      x-accl      y-accl      z-accl      x-coor      y-coor      z-coor
    22626  6.77372E-01 3.48847E-01-2.55998E+01 3.14586E-01 6.81935E-02-5.08543E-01 5.93460E-02-4.61536E-03 6.36200E-01 4.86416E+01-2.16809E+01-1.82613E+01



 n o d a l   p r i n t   o u t   f o r   t i m e  s t e p   19602                              ( at time 9.7995193E+00 )

 nodal point  x-rot      y-rot       z-rot       x-rot vel   y-rot vel   z-rot vel   x-rot acc   y-rot acc   z-rot acc
    22626  2.43338E-02 3.03219E-02-7.59354E-03 1.29686E-02 1.04846E-02-3.25513E-03 3.82843E-03 3.24683E-04-4.62989E-04



 n o d a l   p r i n t   o u t   f o r   t i m e  s t e p   19802                              ( at time 9.8995093E+00 )

 nodal point  x-disp     y-disp      z-disp      x-vel       y-vel       z-vel      x-accl      y-accl      z-accl      x-coor      y-coor      z-coor
    22626  7.09090E-01 3.55845E-01-2.56474E+01 3.20465E-01 7.25264E-02-4.44636E-01 5.87907E-02 4.33331E-02 6.39144E-01 4.86733E+01-2.16739E+01-1.83089E+01



 n o d a l   p r i n t   o u t   f o r   t i m e  s t e p   19802                              ( at time 9.8995093E+00 )

 nodal point  x-rot      y-rot       z-rot       x-rot vel   y-rot vel   z-rot vel   x-rot acc   y-rot acc   z-rot acc
    22626  2.56524E-02 3.13756E-02-7.92188E-03 1.34227E-02 1.05436E-02-3.33127E-03 4.54149E-03 5.89950E-04-7.61470E-04



 n o d a l   p r i n t   o u t   f o r   t i m e  s t e p   20003                              ( at time 9.9999992E+00 )

 nodal point  x-disp     y-disp      z-disp      x-vel       y-vel       z-vel      x-accl      y-accl      z-accl      x-coor      y-coor      z-coor
[...]
    22626  2.58917E-01 1.55470E-01-7.13416E-02 1.85258E-02 8.65725E-03-6.20598E-03-9.53724E-04-5.08549E-04 6.73264E-04



 n o d a l   p r i n t   o u t   f o r   t i m e  s t e p   45205                              ( at time 2.2599738E+01 )

 nodal point  x-disp     y-disp      z-disp      x-vel       y-vel       z-vel      x-accl      y-accl      z-accl      x-coor      y-coor      z-coor
    22626  4.68605E+00 1.02396E+00-2.01401E+01 2.62170E-01-3.75238E-02 4.88842E-01 3.34758E-02-6.65485E-02-6.41700E-02 5.26502E+01-2.10058E+01-1.28016E+01



 n o d a l   p r i n t   o u t   f o r   t i m e  s t e p   45205                              ( at time 2.2599738E+01 )

 nodal point  x-rot      y-rot       z-rot       x-rot vel   y-rot vel   z-rot vel   x-rot acc   y-rot acc   z-rot acc
    22626  2.60764E-01 1.56333E-01-7.19588E-02 1.84304E-02 8.59721E-03-6.13619E-03-9.54879E-04-6.00385E-04 6.97937E-04



 n o d a l   p r i n t   o u t   f o r   t i m e  s t e p   45405                              ( at time 2.2699728E+01 )

 nodal point  x-disp     y-disp      z-disp      x-vel       y-vel       z-vel      x-accl      y-accl      z-accl      x-coor      y-coor      z-coor
    22626  4.71236E+00 1.01989E+00-2.00916E+01 2.64596E-01-4.35173E-02 4.82212E-01 2.42612E-02-5.99412E-02-6.63035E-02 5.26765E+01-2.10099E+01-1.27531E+01



 n o d a l   p r i n t   o u t   f o r   t i m e  s t e p   45405                              ( at time 2.2699728E+01 )

 nodal point  x-rot      y-rot       z-rot       x-rot vel   y-rot vel   z-rot vel   x-rot acc   y-rot acc   z-rot acc
    22626  2.62603E-01 1.57189E-01-7.25689E-02 1.83386E-02 8.53739E-03-6.07117E-03-9.18032E-04-5.98255E-04 6.50298E-04



 n o d a l   p r i n t   o u t   f o r   t i m e  s t e p   45605                              ( at time 2.2799718E+01 )

 nodal point  x-disp     y-disp      z-disp      x-vel       y-vel       z-vel      x-accl      y-accl      z-accl      x-coor      y-coor      z-coor
    22626  4.73894E+00 1.01524E+00-2.00437E+01 2.67102E-01-4.96989E-02 4.75531E-01 2.50586E-02-6.18219E-02-6.68155E-02 5.27031E+01-2.10146E+01-1.27052E+01



 n o d a l   p r i n t   o u t   f o r   t i m e  s t e p   45605                              ( at time 2.2799718E+01 )

 nodal point  x-rot      y-rot       z-rot       x-rot vel   y-rot vel   z-rot vel   x-rot acc   y-rot acc   z-rot acc
    22626  2.64431E-01 1.58040E-01-7.31727E-02 1.82406E-02 8.47699E-03-6.00449E-03-9.80046E-04-6.04055E-04 6.66786E-04



 n o d a l   p r i n t   o u t   f o r   t i m e  s t e p   45805                              ( at time 2.2899708E+01 )

 nodal point  x-disp     y-disp      z-disp      x-vel       y-vel       z-vel      x-accl      y-accl      z-accl      x-coor      y-coor      z-coor
    22626  4.76579E+00 1.00996E+00-1.99965E+01 2.69651E-01-5.55991E-02 4.69105E-01 2.54975E-02-5.90088E-02-6.42740E-02 5.27300E+01-2.10198E+01-1.26580E+01



 n o d a l   p r i n t   o u t   f o r   t i m e  s t e p   45805                              ( at time 2.2899708E+01 )

 nodal point  x-rot      y-rot       z-rot       x-rot vel   y-rot vel   z-rot vel   x-rot acc   y-rot acc   z-rot acc
    22626  2.66251E-01 1.58884E-01-7.37699E-02 1.81612E-02 8.41360E-03-5.94164E-03-7.93761E-04-6.33975E-04 6.28656E-04



 n o d a l   p r i n t   o u t   f o r   t i m e  s t e p   46005                              ( at time 2.2999698E+01 )

 nodal point  x-disp     y-disp      z-disp      x-vel       y-vel       z-vel      x-accl      y-accl      z-accl      x-coor      y-coor      z-coor
    22626  4.79288E+00 1.00413E+00-1.99499E+01 2.72109E-01-6.09209E-02 4.62970E-01 2.45743E-02-5.32226E-02-6.13489E-02 5.27571E+01-2.10257E+01-1.26114E+01



 n o d a l   p r i n t   o u t   f o r   t i m e  s t e p   46005                              ( at time 2.2999698E+01 )

 nodal point  x-rot      y-rot       z-rot       x-rot vel   y-rot vel   z-rot vel   x-rot acc   y-rot acc   z-rot acc
    22626  2.68063E-01 1.59722E-01-7.43608E-02 1.80771E-02 8.34940E-03-5.87329E-03-8.41546E-04-6.42103E-04 6.83518E-04



 n o d a l   p r i n t   o u t   f o r   t i m e  s t e p   46205                              ( at time 2.3099688E+01 )

 nodal point  x-disp     y-disp      z-disp      x-vel       y-vel       z-vel      x-accl      y-accl      z-accl      x-coor      y-coor      z-coor
    22626  4.82018E+00 9.97813E-01-1.99039E+01 2.73817E-01-6.53590E-02 4.56702E-01 1.70834E-02-4.43857E-02-6.26925E-02 5.27844E+01-2.10320E+01-1.25654E+01



 n o d a l   p r i n t   o u t   f o r   t i m e  s t e p   46205                              ( at time 2.3099688E+01 )

 nodal point  x-rot      y-rot       z-rot       x-rot vel   y-rot vel   z-rot vel   x-rot acc   y-rot acc   z-rot acc
    22626  2.69867E-01 1.60554E-01-7.49452E-02 1.80100E-02 8.29066E-03-5.81674E-03-6.71055E-04-5.87487E-04 5.65608E-04



 n o d a l   p r i n t   o u t   f o r   t i m e  s t e p   46405                              ( at time 2.3199678E+01 )

 nodal point  x-disp     y-disp      z-disp      x-vel       y-vel       z-vel      x-accl      y-accl      z-accl      x-coor      y-coor      z-coor
    22626  4.84766E+00 9.91053E-01-1.98585E+01 2.75639E-01-6.96976E-02 4.51485E-01 1.82279E-02-4.33904E-02-5.21737E-02 5.28118E+01-2.10387E+01-1.25200E+01



 n o d a l   p r i n t   o u t   f o r   t i m e  s t e p   46405                              ( at time 2.3199678E+01 )

 nodal point  x-rot      y-rot       z-rot       x-rot vel   y-rot vel   z-rot vel   x-rot acc   y-rot acc   z-rot acc
    22626  2.71665E-01 1.61380E-01-7.55238E-02 1.79509E-02 8.22943E-03-5.75672E-03-5.90364E-04-6.12280E-04 6.00209E-04



 n o d a l   p r i n t   o u t   f o r   t i m e  s t e p   46605                              ( at time 2.3299668E+01 )

 nodal point  x-disp     y-disp      z-disp      x-vel       y-vel       z-vel      x-accl      y-accl      z-accl      x-coor      y-coor      z-coor
    22626  4.87532E+00 9.83901E-01-1.98136E+01 2.77131E-01-7.30986E-02 4.45819E-01 1.49234E-02-3.40134E-02-5.66673E-02 5.28395E+01-2.10459E+01-1.24751E+01



 n o d a l   p r i n t   o u t   f o r   t i m e  s t e p   46605                              ( at time 2.3299668E+01 )

 nodal point  x-rot      y-rot       z-rot       x-rot vel   y-rot vel   z-rot vel   x-rot acc   y-rot acc   z-rot acc
    22626  2.73457E-01 1.62200E-01-7.60961E-02 1.78902E-02 8.16775E-03-5.69407E-03-6.07588E-04-6.16883E-04 6.26612E-04



 n o d a l   p r i n t   o u t   f o r   t i m e  s t e p   46805                              ( at time 2.3399658E+01 )

 nodal point  x-disp     y-disp      z-disp      x-vel       y-vel       z-vel      x-accl      y-accl      z-accl      x-coor      y-coor      z-coor
    22626  4.90311E+00 9.76441E-01-1.97693E+01 2.78551E-01-7.60760E-02 4.40872E-01 1.42012E-02-2.97770E-02-4.94737E-02 5.28673E+01-2.10533E+01-1.24308E+01



 n o d a l   p r i n t   o u t   f o r   t i m e  s t e p   46805                              ( at time 2.3399658E+01 )

 nodal point  x-rot      y-rot       z-rot       x-rot vel   y-rot vel   z-rot vel   x-rot acc   y-rot acc   z-rot acc
    22626  2.75243E-01 1.63013E-01-7.66629E-02 1.78315E-02 8.10699E-03-5.64269E-03-5.87159E-04-6.07678E-04 5.13802E-04



 n o d a l   p r i n t   o u t   f o r   t i m e  s t e p   47005                              ( at time 2.3499648E+01 )

 nodal point  x-disp     y-disp      z-disp      x-vel       y-vel       z-vel      x-accl      y-accl      z-accl      x-coor      y-coor      z-coor
    22626  4.93102E+00 9.68706E-01-1.97255E+01 2.79811E-01-7.86560E-02 4.35571E-01 1.25977E-02-2.58024E-02-5.30125E-02 5.28952E+01-2.10611E+01-1.23870E+01



 n o d a l   p r i n t   o u t   f o r   t i m e  s t e p   47005                              ( at time 2.3499648E+01 )

 nodal point  x-rot      y-rot       z-rot       x-rot vel   y-rot vel   z-rot vel   x-rot acc   y-rot acc   z-rot acc
    22626  2.77023E-01 1.63821E-01-7.72245E-02 1.77846E-02 8.04592E-03-5.58584E-03-4.68330E-04-6.10771E-04 5.68527E-04



 n o d a l   p r i n t   o u t   f o r   t i m e  s t e p   47205                              ( at time 2.3599638E+01 )

 nodal point  x-disp     y-disp      z-disp      x-vel       y-vel       z-vel      x-accl      y-accl      z-accl      x-coor      y-coor      z-coor
    22626  4.95901E+00 9.60761E-01-1.96822E+01 2.80395E-01-8.02365E-02 4.31257E-01 5.83832E-03-1.58062E-02-4.31472E-02 5.29232E+01-2.10690E+01-1.23437E+01



 n o d a l   p r i n t   o u t   f o r   t i m e  s t e p   47205                              ( at time 2.3599638E+01 )

 nodal point  x-rot      y-rot       z-rot       x-rot vel   y-rot vel   z-rot vel   x-rot acc   y-rot acc   z-rot acc
    22626  2.78799E-01 1.64623E-01-7.77808E-02 1.77318E-02 7.99002E-03-5.53330E-03-5.28193E-04-5.59070E-04 5.25506E-04



 n o d a l   p r i n t   o u t   f o r   t i m e  s t e p   47405                              ( at time 2.3699628E+01 )

 nodal point  x-disp     y-disp      z-disp      x-vel       y-vel       z-vel      x-accl      y-accl      z-accl      x-coor      y-coor      z-coor
    22626  4.98705E+00 9.52683E-01-1.96393E+01 2.80541E-01-8.13285E-02 4.26617E-01 1.46075E-03-1.09207E-02-4.64059E-02 5.29512E+01-2.10771E+01-1.23008E+01



 n o d a l   p r i n t   o u t   f o r   t i m e  s t e p   47405                              ( at time 2.3699628E+01 )

 nodal point  x-rot      y-rot       z-rot       x-rot vel   y-rot vel   z-rot vel   x-rot acc   y-rot acc   z-rot acc
    22626  2.80569E-01 1.65418E-01-7.83323E-02 1.76892E-02 7.92900E-03-5.49367E-03-4.25877E-04-6.10258E-04 3.96328E-04



 n o d a l   p r i n t   o u t   f o r   t i m e  s t e p   47605                              ( at time 2.3799618E+01 )

 nodal point  x-disp     y-disp      z-disp      x-vel       y-vel       z-vel      x-accl      y-accl      z-accl      x-coor      y-coor      z-coor
    22626  5.01513E+00 9.44529E-01-1.95969E+01 2.80633E-01-8.15486E-02 4.22255E-01 9.23676E-04-2.20159E-03-4.36193E-02 5.29793E+01-2.10853E+01-1.22584E+01



 n o d a l   p r i n t   o u t   f o r   t i m e  s t e p   47605                              ( at time 2.3799618E+01 )

 nodal point  x-rot      y-rot       z-rot       x-rot vel   y-rot vel   z-rot vel   x-rot acc   y-rot acc   z-rot acc
    22626  2.82337E-01 1.66208E-01-7.88799E-02 1.76562E-02 7.87004E-03-5.45653E-03-3.30321E-04-5.89611E-04 3.71457E-04



 n o d a l   p r i n t   o u t   f o r   t i m e  s t e p   47805                              ( at time 2.3899608E+01 )

 nodal point  x-disp     y-disp      z-disp      x-vel       y-vel       z-vel      x-accl      y-accl      z-accl      x-coor      y-coor      z-coor
    22626  5.04321E+00 9.36360E-01-1.95549E+01 2.81004E-01-8.18434E-02 4.18108E-01 3.71103E-03-2.94884E-03-4.14740E-02 5.30074E+01-2.10934E+01-1.22164E+01



 n o d a l   p r i n t   o u t   f o r   t i m e  s t e p   47805                              ( at time 2.3899608E+01 )

 nodal point  x-rot      y-rot       z-rot       x-rot vel   y-rot vel   z-rot vel   x-rot acc   y-rot acc   z-rot acc
    22626  2.84101E-01 1.66993E-01-7.94228E-02 1.76491E-02 7.82253E-03-5.40648E-03-7.15694E-05-4.75223E-04 5.00548E-04



 n o d a l   p r i n t   o u t   f o r   t i m e  s t e p   48005                              ( at time 2.3999598E+01 )

 nodal point  x-disp     y-disp      z-disp      x-vel       y-vel       z-vel      x-accl      y-accl      z-accl      x-coor      y-coor      z-coor
    22626  5.07131E+00 9.28122E-01-1.95132E+01 2.81139E-01-8.24568E-02 4.14300E-01 1.34662E-03-6.13467E-03-3.80907E-02 5.30355E+01-2.11017E+01-1.21747E+01



 n o d a l   p r i n t   o u t   f o r   t i m e  s t e p   48005                              ( at time 2.3999598E+01 )

 nodal point  x-rot      y-rot       z-rot       x-rot vel   y-rot vel   z-rot vel   x-rot acc   y-rot acc   z-rot acc
    22626  2.85867E-01 1.67773E-01-7.99609E-02 1.76563E-02 7.76736E-03-5.35664E-03 7.29679E-05-5.51697E-04 4.98387E-04



 n o d a l   p r i n t   o u t   f o r   t i m e  s t e p   48205                              ( at time 2.4099588E+01 )

 nodal point  x-disp     y-disp      z-disp      x-vel       y-vel       z-vel      x-accl      y-accl      z-accl      x-coor      y-coor      z-coor
    22626  5.09939E+00 9.19958E-01-1.94720E+01 2.80740E-01-8.10018E-02 4.10585E-01-3.99239E-03 1.45516E-02-3.71451E-02 5.30636E+01-2.11098E+01-1.21335E+01



 n o d a l   p r i n t   o u t   f o r   t i m e  s t e p   48205                              ( at time 2.4099588E+01 )

 nodal point  x-rot      y-rot       z-rot       x-rot vel   y-rot vel   z-rot vel   x-rot acc   y-rot acc   z-rot acc
    22626  2.87631E-01 1.68547E-01-8.04954E-02 1.76473E-02 7.73078E-03-5.32827E-03-9.02907E-05-3.65810E-04 2.83753E-04



 n o d a l   p r i n t   o u t   f o r   t i m e  s t e p   48405                              ( at time 2.4199578E+01 )

 nodal point  x-disp     y-disp      z-disp      x-vel       y-vel       z-vel      x-accl      y-accl      z-accl      x-coor      y-coor      z-coor
    22626  5.12741E+00 9.11919E-01-1.94311E+01 2.80096E-01-8.00311E-02 4.06963E-01-6.43414E-03 9.70784E-03-3.62314E-02 5.30916E+01-2.11179E+01-1.20926E+01



 n o d a l   p r i n t   o u t   f o r   t i m e  s t e p   48405                              ( at time 2.4199578E+01 )

 nodal point  x-rot      y-rot       z-rot       x-rot vel   y-rot vel   z-rot vel   x-rot acc   y-rot acc   z-rot acc
    22626  2.89396E-01 1.69317E-01-8.10264E-02 1.76446E-02 7.66830E-03-5.28259E-03-2.72535E-05-6.24912E-04 4.56836E-04



 n o d a l   p r i n t   o u t   f o r   t i m e  s t e p   48605                              ( at time 2.4299568E+01 )

 nodal point  x-disp     y-disp      z-disp      x-vel       y-vel       z-vel      x-accl      y-accl      z-accl      x-coor      y-coor      z-coor
    22626  5.15537E+00 9.03985E-01-1.93906E+01 2.79115E-01-7.87652E-02 4.03894E-01-9.81957E-03 1.26607E-02-3.06950E-02 5.31196E+01-2.11258E+01-1.20521E+01



 n o d a l   p r i n t   o u t   f o r   t i m e  s t e p   48605                              ( at time 2.4299568E+01 )

 nodal point  x-rot      y-rot       z-rot       x-rot vel   y-rot vel   z-rot vel   x-rot acc   y-rot acc   z-rot acc
    22626  2.91160E-01 1.70081E-01-8.15528E-02 1.76439E-02 7.62097E-03-5.25303E-03-7.19047E-06-4.73388E-04 2.95685E-04



 n o d a l   p r i n t   o u t   f o r   t i m e  s t e p   48805                              ( at time 2.4399558E+01 )

 nodal point  x-disp     y-disp      z-disp      x-vel       y-vel       z-vel      x-accl      y-accl      z-accl      x-coor      y-coor      z-coor
    22626  5.18327E+00 8.96185E-01-1.93504E+01 2.78564E-01-7.66433E-02 4.01003E-01-5.50380E-03 2.12211E-02-2.89037E-02 5.31474E+01-2.11336E+01-1.20119E+01



 n o d a l   p r i n t   o u t   f o r   t i m e  s t e p   48805                              ( at time 2.4399558E+01 )

 nodal point  x-rot      y-rot       z-rot       x-rot vel   y-rot vel   z-rot vel   x-rot acc   y-rot acc   z-rot acc
    22626  2.92925E-01 1.70841E-01-8.20764E-02 1.76541E-02 7.57750E-03-5.22332E-03 1.02008E-04-4.34660E-04 2.97114E-04



 n o d a l   p r i n t   o u t   f o r   t i m e  s t e p   49006                              ( at time 2.4500048E+01 )

 nodal point  x-disp     y-disp      z-disp      x-vel       y-vel       z-vel      x-accl      y-accl      z-accl      x-coor      y-coor      z-coor
    22626  5.21118E+00 8.88596E-01-1.93103E+01 2.77362E-01-7.42491E-02 3.97164E-01-1.19617E-02 2.38251E-02-3.82058E-02 5.31754E+01-2.11412E+01-1.19718E+01



 n o d a l   p r i n t   o u t   f o r   t i m e  s t e p   49006                              ( at time 2.4500048E+01 )

 nodal point  x-rot      y-rot       z-rot       x-rot vel   y-rot vel   z-rot vel   x-rot acc   y-rot acc   z-rot acc
    22626  2.94698E-01 1.71600E-01-8.25993E-02 1.76403E-02 7.53174E-03-5.17892E-03-1.37332E-04-4.55385E-04 4.41826E-04



 n o d a l   p r i n t   o u t   f o r   t i m e  s t e p   49206                              ( at time 2.4600038E+01 )

 nodal point  x-disp     y-disp      z-disp      x-vel       y-vel       z-vel      x-accl      y-accl      z-accl      x-coor      y-coor      z-coor
    22626  5.23883E+00 8.81283E-01-1.92707E+01 2.75841E-01-7.23002E-02 3.94881E-01-1.52143E-02 1.94905E-02-2.28342E-02 5.32030E+01-2.11485E+01-1.19322E+01



 n o d a l   p r i n t   o u t   f o r   t i m e  s t e p   49206                              ( at time 2.4600038E+01 )

 nodal point  x-rot      y-rot       z-rot       x-rot vel   y-rot vel   z-rot vel   x-rot acc   y-rot acc   z-rot acc
    22626  2.96463E-01 1.72352E-01-8.31166E-02 1.76613E-02 7.50262E-03-5.15174E-03 2.10051E-04-2.91279E-04 2.71827E-04



 n o d a l   p r i n t   o u t   f o r   t i m e  s t e p   49406                              ( at time 2.4700028E+01 )

 nodal point  x-disp     y-disp      z-disp      x-vel       y-vel       z-vel      x-accl      y-accl      z-accl      x-coor      y-coor      z-coor
    22626  5.26639E+00 8.74199E-01-1.92313E+01 2.74903E-01-6.99783E-02 3.91654E-01-9.38013E-03 2.32216E-02-3.22705E-02 5.32306E+01-2.11556E+01-1.18928E+01



 n o d a l   p r i n t   o u t   f o r   t i m e  s t e p   49406                              ( at time 2.4700028E+01 )

 nodal point  x-rot      y-rot       z-rot       x-rot vel   y-rot vel   z-rot vel   x-rot acc   y-rot acc   z-rot acc
    22626  2.98229E-01 1.73099E-01-8.36316E-02 1.76598E-02 7.44424E-03-5.13069E-03-1.43812E-05-5.83860E-04 2.10539E-04



 n o d a l   p r i n t   o u t   f o r   t i m e  s t e p   49606                              ( at time 2.4800018E+01 )

 nodal point  x-disp     y-disp      z-disp      x-vel       y-vel       z-vel      x-accl      y-accl      z-accl      x-coor      y-coor      z-coor
    22626  5.29380E+00 8.67299E-01-1.91923E+01 2.73386E-01-6.75070E-02 3.89502E-01-1.51705E-02 2.47153E-02-2.15291E-02 5.32580E+01-2.11625E+01-1.18538E+01



 n o d a l   p r i n t   o u t   f o r   t i m e  s t e p   49606                              ( at time 2.4800018E+01 )

 nodal point  x-rot      y-rot       z-rot       x-rot vel   y-rot vel   z-rot vel   x-rot acc   y-rot acc   z-rot acc
    22626  2.99995E-01 1.73842E-01-8.41438E-02 1.76678E-02 7.41990E-03-5.10851E-03 7.91510E-05-2.43382E-04 2.21759E-04



 n o d a l   p r i n t   o u t   f o r   t i m e  s t e p   49806                              ( at time 2.4900008E+01 )

 nodal point  x-disp     y-disp      z-disp      x-vel       y-vel       z-vel      x-accl      y-accl      z-accl      x-coor      y-coor      z-coor
    22626  5.32104E+00 8.60689E-01-1.91535E+01 2.71768E-01-6.49963E-02 3.86708E-01-1.61853E-02 2.51097E-02-2.79377E-02 5.32852E+01-2.11691E+01-1.18150E+01



 n o d a l   p r i n t   o u t   f o r   t i m e  s t e p   49806                              ( at time 2.4900008E+01 )

 nodal point  x-rot      y-rot       z-rot       x-rot vel   y-rot vel   z-rot vel   x-rot acc   y-rot acc   z-rot acc
    22626  3.01763E-01 1.74581E-01-8.46537E-02 1.76914E-02 7.36900E-03-5.08635E-03 2.36768E-04-5.09043E-04 2.21703E-04



 n o d a l   p r i n t   o u t   f o r   t i m e  s t e p   50006                              ( at time 2.4999998E+01 )

 nodal point  x-disp     y-disp      z-disp      x-vel       y-vel       z-vel      x-accl      y-accl      z-accl      x-coor      y-coor      z-coor
    22626  5.34813E+00 8.54277E-01-1.91149E+01 2.70133E-01-6.31109E-02 3.84669E-01-1.63484E-02 1.88558E-02-2.03956E-02 5.33123E+01-2.11755E+01-1.17764E+01



 n o d a l   p r i n t   o u t   f o r   t i m e  s t e p   50006                              ( at time 2.4999998E+01 )

 nodal point  x-rot      y-rot       z-rot       x-rot vel   y-rot vel   z-rot vel   x-rot acc   y-rot acc   z-rot acc
    22626  3.03531E-01 1.75316E-01-8.51610E-02 1.76843E-02 7.33418E-03-5.06375E-03-7.13831E-05-3.48309E-04 2.25941E-04
