 LSTC 50th% Full_FE H-III Dummy (Beta Version, February 17, 2019)        
                    ls-dyna smp s R16 R16.0_619_d222963 date 03/18/2025

{BEGIN LEGEND}
 Entity #        Title
    22626                                                                                     
{END LEGEND}




 n o d a l   p r i n t   o u t   f o r   t i m e  s t e p       1                              ( at time 0.0000000E+00 )

 nodal point  x-disp     y-disp      z-disp      x-vel       y-vel       z-vel      x-accl      y-accl      z-accl      x-coor      y-coor      z-coor
    22626  0.00000E+00 0.00000E+00 0.00000E+00 0.00000E+00 0.00000E+00-3.12000E+00 0.00000E+00 0.00000E+00 0.00000E+00 4.79642E+01-2.20298E+01 7.33850E+00



 n o d a l   p r i n t   o u t   f o r   t i m e  s t e p       1                              ( at time 0.0000000E+00 )

 nodal point  x-rot      y-rot       z-rot       x-rot vel   y-rot vel   z-rot vel   x-rot acc   y-rot acc   z-rot acc
    22626  0.00000E+00 0.00000E+00 0.00000E+00 0.00000E+00 0.00000E+00 0.00000E+00 0.00000E+00 0.00000E+00 0.00000E+00



 n o d a l   p r i n t   o u t   f o r   t i m e  s t e p     201                              ( at time 9.9989993E-02 )

 nodal point  x-disp     y-disp      z-disp      x-vel       y-vel       z-vel      x-accl      y-accl      z-accl      x-coor      y-coor      z-coor
    22626  8.34133E-07-4.04501E-06-3.12016E-01 4.76686E-05-4.96489E-04-3.12074E+00 4.76734E-04-4.96538E-03-7.42748E-03 4.79642E+01-2.20298E+01 7.02648E+00



 n o d a l   p r i n t   o u t   f o r   t i m e  s t e p     201                              ( at time 9.9989993E-02 )

 nodal point  x-rot      y-rot       z-rot       x-rot vel   y-rot vel   z-rot vel   x-rot acc   y-rot acc   z-rot acc
    22626  9.60770E-09 3.04010E-08 5.27005E-08 1.30684E-06 2.72192E-06 5.21201E-06 1.30697E-05 2.72219E-05 5.21254E-05



 n o d a l   p r i n t   o u t   f o r   t i m e  s t e p     401                              ( at time 1.9997999E-01 )

 nodal point  x-disp     y-disp      z-disp      x-vel       y-vel       z-vel      x-accl      y-accl      z-accl      x-coor      y-coor      z-coor
    22626 -5.12709E-05-5.21535E-04-6.23853E-01-1.09588E-03-1.11147E-02-3.11558E+00-1.14366E-02-1.06192E-01 5.16323E-02 4.79641E+01-2.20303E+01 6.71465E+00



 n o d a l   p r i n t   o u t   f o r   t i m e  s t e p     401                              ( at time 1.9997999E-01 )

 nodal point  x-rot      y-rot       z-rot       x-rot vel   y-rot vel   z-rot vel   x-rot acc   y-rot acc   z-rot acc
    22626  4.59979E-07 1.32990E-06 2.50227E-06 2.64237E-06 1.90703E-05 3.49880E-05 1.33567E-05 1.63501E-04 2.97790E-04



 n o d a l   p r i n t   o u t   f o r   t i m e  s t e p     601                              ( at time 2.9996998E-01 )

 nodal point  x-disp     y-disp      z-disp      x-vel       y-vel       z-vel      x-accl      y-accl      z-accl      x-coor      y-coor      z-coor
    22626 -2.45913E-05-1.97635E-03-9.35238E-01 1.66290E-03-1.60461E-02-3.11415E+00 2.75906E-02-4.93190E-02 1.43280E-02 4.79642E+01-2.20318E+01 6.40326E+00



 n o d a l   p r i n t   o u t   f o r   t i m e  s t e p     601                              ( at time 2.9996998E-01 )

 nodal point  x-rot      y-rot       z-rot       x-rot vel   y-rot vel   z-rot vel   x-rot acc   y-rot acc   z-rot acc
    22626  6.75155E-07 2.41174E-06 4.82782E-06 8.23891E-06 5.36190E-06 1.47157E-05 5.59710E-05-1.37098E-04-2.02744E-04



 n o d a l   p r i n t   o u t   f o r   t i m e  s t e p     801                              ( at time 3.9995997E-01 )

 nodal point  x-disp     y-disp      z-disp      x-vel       y-vel       z-vel      x-accl      y-accl      z-accl      x-coor      y-coor      z-coor
    22626  5.94339E-05-3.57405E-03-1.24663E+00 1.95342E-04-1.73902E-02-3.11353E+00-1.46771E-02-1.34426E-02 6.16135E-03 4.79642E+01-2.20334E+01 6.09187E+00



 n o d a l   p r i n t   o u t   f o r   t i m e  s t e p     801                              ( at time 3.9995997E-01 )

 nodal point  x-rot      y-rot       z-rot       x-rot vel   y-rot vel   z-rot vel   x-rot acc   y-rot acc   z-rot acc
    22626  1.58242E-06 3.68034E-06 6.68063E-06 6.26529E-06 2.42208E-05 3.82843E-05-1.97382E-05 1.88607E-04 2.35710E-04



 n o d a l   p r i n t   o u t   f o r   t i m e  s t e p    1001                              ( at time 4.9994997E-01 )

 nodal point  x-disp     y-disp      z-disp      x-vel       y-vel       z-vel      x-accl      y-accl      z-accl      x-coor      y-coor      z-coor
    22626  7.27979E-05-5.63144E-03-1.55782E+00 8.90905E-04-2.38468E-02-3.11085E+00 6.95633E-03-6.45728E-02 2.67819E-02 4.79643E+01-2.20354E+01 5.78068E+00



 n o d a l   p r i n t   o u t   f o r   t i m e  s t e p    1001                              ( at time 4.9994997E-01 )

 nodal point  x-rot      y-rot       z-rot       x-rot vel   y-rot vel   z-rot vel   x-rot acc   y-rot acc   z-rot acc
    22626  1.49367E-06 6.64855E-06 1.18380E-05-4.81634E-06 4.38014E-05 7.20274E-05-1.10827E-04 1.95826E-04 3.37465E-04



 n o d a l   p r i n t   o u t   f o r   t i m e  s t e p    1201                              ( at time 5.9993996E-01 )

 nodal point  x-disp     y-disp      z-disp      x-vel       y-vel       z-vel      x-accl      y-accl      z-accl      x-coor      y-coor      z-coor
    22626  5.29357E-05-8.13745E-03-1.86888E+00-5.67182E-04-2.61239E-02-3.11084E+00-1.45823E-02-2.27734E-02 1.43065E-04 4.79642E+01-2.20379E+01 5.46962E+00



 n o d a l   p r i n t   o u t   f o r   t i m e  s t e p    1201                              ( at time 5.9993996E-01 )

 nodal point  x-rot      y-rot       z-rot       x-rot vel   y-rot vel   z-rot vel   x-rot acc   y-rot acc   z-rot acc
    22626  1.26538E-06 9.87477E-06 1.77372E-05-2.17416E-06 2.63494E-05 5.29757E-05 2.64245E-05-1.74537E-04-1.90536E-04



 n o d a l   p r i n t   o u t   f o r   t i m e  s t e p    1401                              ( at time 6.9992995E-01 )

 nodal point  x-disp     y-disp      z-disp      x-vel       y-vel       z-vel      x-accl      y-accl      z-accl      x-coor      y-coor      z-coor
    22626  1.96968E-05-1.10207E-02-2.17976E+00 7.19471E-04-3.22429E-02-3.10770E+00 1.28678E-02-6.11956E-02 3.14386E-02 4.79642E+01-2.20408E+01 5.15874E+00



 n o d a l   p r i n t   o u t   f o r   t i m e  s t e p    1401                              ( at time 6.9992995E-01 )

 nodal point  x-rot      y-rot       z-rot       x-rot vel   y-rot vel   z-rot vel   x-rot acc   y-rot acc   z-rot acc
    22626  1.10172E-06 1.30692E-05 2.27051E-05-2.38811E-06 3.80077E-05 5.95338E-05-2.13977E-06 1.16595E-04 6.55877E-05



 n o d a l   p r i n t   o u t   f o r   t i m e  s t e p    1601                              ( at time 7.9991994E-01 )

 nodal point  x-disp     y-disp      z-disp      x-vel       y-vel       z-vel      x-accl      y-accl      z-accl      x-coor      y-coor      z-coor
    22626  1.33075E-04-1.45710E-02-2.49038E+00 1.37290E-03-3.68161E-02-3.10600E+00 6.53490E-03-4.57365E-02 1.69342E-02 4.79643E+01-2.20444E+01 4.84812E+00



 n o d a l   p r i n t   o u t   f o r   t i m e  s t e p    1601                              ( at time 7.9991994E-01 )

 nodal point  x-rot      y-rot       z-rot       x-rot vel   y-rot vel   z-rot vel   x-rot acc   y-rot acc   z-rot acc
    22626  1.00762E-06 1.72060E-05 2.96650E-05 3.00943E-06 4.88247E-05 7.65043E-05 5.39808E-05 1.08181E-04 1.69722E-04



 n o d a l   p r i n t   o u t   f o r   t i m e  s t e p    1801                              ( at time 8.9990994E-01 )

 nodal point  x-disp     y-disp      z-disp      x-vel       y-vel       z-vel      x-accl      y-accl      z-accl      x-coor      y-coor      z-coor
    22626  2.07418E-04-1.82140E-02-2.80104E+00-5.10183E-04-3.64265E-02-3.10742E+00-1.88327E-02 3.89611E-03-1.41659E-02 4.79644E+01-2.20480E+01 4.53746E+00



 n o d a l   p r i n t   o u t   f o r   t i m e  s t e p    1801                              ( at time 8.9990994E-01 )

 nodal point  x-rot      y-rot       z-rot       x-rot vel   y-rot vel   z-rot vel   x-rot acc   y-rot acc   z-rot acc
    22626  1.02505E-06 2.13188E-05 3.66566E-05-1.87494E-06 3.79294E-05 6.82641E-05-4.88486E-05-1.08964E-04-8.24105E-05



 n o d a l   p r i n t   o u t   f o r   t i m e  s t e p    2001                              ( at time 9.9989993E-01 )

 nodal point  x-disp     y-disp      z-disp      x-vel       y-vel       z-vel      x-accl      y-accl      z-accl      x-coor      y-coor      z-coor
    22626  1.09746E-04-2.19276E-02-3.11175E+00-8.14643E-04-3.84006E-02-3.10755E+00-3.04490E-03-1.97426E-02-1.32574E-03 4.79643E+01-2.20517E+01 4.22675E+00



 n o d a l   p r i n t   o u t   f o r   t i m e  s t e p    2001                              ( at time 9.9989993E-01 )

 nodal point  x-rot      y-rot       z-rot       x-rot vel   y-rot vel   z-rot vel   x-rot acc   y-rot acc   z-rot acc
    22626  8.56584E-07 2.55318E-05 4.38498E-05-8.87666E-07 4.62630E-05 8.59330E-05 9.87370E-06 8.33435E-05 1.76706E-04



 n o d a l   p r i n t   o u t   f o r   t i m e  s t e p    2201                              ( at time 1.0998899E+00 )

 nodal point  x-disp     y-disp      z-disp      x-vel       y-vel       z-vel      x-accl      y-accl      z-accl      x-coor      y-coor      z-coor
    22626  9.18947E-05-2.58761E-02-3.42246E+00-2.14260E-04-4.02541E-02-3.10712E+00 6.00443E-03-1.85375E-02 4.28720E-03 4.79643E+01-2.20557E+01 3.91605E+00



 n o d a l   p r i n t   o u t   f o r   t i m e  s t e p    2201                              ( at time 1.0998899E+00 )

 nodal point  x-rot      y-rot       z-rot       x-rot vel   y-rot vel   z-rot vel   x-rot acc   y-rot acc   z-rot acc
    22626  9.33449E-07 3.03117E-05 5.24808E-05 5.35487E-06 4.64680E-05 7.51783E-05 6.24317E-05 2.05028E-06-1.07558E-04



 n o d a l   p r i n t   o u t   f o r   t i m e  s t e p    2401                              ( at time 1.1998799E+00 )

 nodal point  x-disp     y-disp      z-disp      x-vel       y-vel       z-vel      x-accl      y-accl      z-accl      x-coor      y-coor      z-coor
    22626  1.34234E-04-2.98901E-02-3.73320E+00 7.32256E-04-3.98058E-02-3.10849E+00 9.46611E-03 4.48331E-03-1.37247E-02 4.79643E+01-2.20597E+01 3.60531E+00



 n o d a l   p r i n t   o u t   f o r   t i m e  s t e p    2401                              ( at time 1.1998799E+00 )

 nodal point  x-rot      y-rot       z-rot       x-rot vel   y-rot vel   z-rot vel   x-rot acc   y-rot acc   z-rot acc
    22626  1.33654E-06 3.44643E-05 5.93282E-05 5.01719E-06 3.99227E-05 6.54990E-05-3.37713E-06-6.54591E-05-9.68030E-05



 n o d a l   p r i n t   o u t   f o r   t i m e  s t e p    2601                              ( at time 1.2998699E+00 )

 nodal point  x-disp     y-disp      z-disp      x-vel       y-vel       z-vel      x-accl      y-accl      z-accl      x-coor      y-coor      z-coor
    22626  1.46104E-04-3.37303E-02-4.04413E+00-4.27659E-04-3.65959E-02-3.11133E+00-1.16003E-02 3.21030E-02-2.83317E-02 4.79643E+01-2.20635E+01 3.29437E+00



 n o d a l   p r i n t   o u t   f o r   t i m e  s t e p    2601                              ( at time 1.2998699E+00 )

 nodal point  x-rot      y-rot       z-rot       x-rot vel   y-rot vel   z-rot vel   x-rot acc   y-rot acc   z-rot acc
    22626  1.63973E-06 3.85417E-05 6.61316E-05-2.42702E-06 4.54216E-05 7.97770E-05-7.44495E-05 5.49941E-05 1.42795E-04



 n o d a l   p r i n t   o u t   f o r   t i m e  s t e p    2801                              ( at time 1.3998599E+00 )

 nodal point  x-disp     y-disp      z-disp      x-vel       y-vel       z-vel      x-accl      y-accl      z-accl      x-coor      y-coor      z-coor
    22626  3.21462E-05-3.71241E-02-4.35543E+00-1.30776E-03-3.14314E-02-3.11511E+00-8.80193E-03 5.16497E-02-3.78313E-02 4.79642E+01-2.20669E+01 2.98307E+00



 n o d a l   p r i n t   o u t   f o r   t i m e  s t e p    2801                              ( at time 1.3998599E+00 )

 nodal point  x-rot      y-rot       z-rot       x-rot vel   y-rot vel   z-rot vel   x-rot acc   y-rot acc   z-rot acc
    22626  1.20565E-06 4.29472E-05 7.39877E-05-4.54680E-06 4.45559E-05 7.35514E-05-2.12000E-05-8.65725E-06-6.22626E-05



 n o d a l   p r i n t   o u t   f o r   t i m e  s t e p    3001                              ( at time 1.4998499E+00 )

 nodal point  x-disp     y-disp      z-disp      x-vel       y-vel       z-vel      x-accl      y-accl      z-accl      x-coor      y-coor      z-coor
    22626 -7.75971E-05-4.01687E-02-4.66702E+00-4.95491E-04-2.97648E-02-3.11713E+00 8.12353E-03 1.66683E-02-2.02008E-02 4.79641E+01-2.20700E+01 2.67148E+00



 n o d a l   p r i n t   o u t   f o r   t i m e  s t e p    3001                              ( at time 1.4998499E+00 )

 nodal point  x-rot      y-rot       z-rot       x-rot vel   y-rot vel   z-rot vel   x-rot acc   y-rot acc   z-rot acc
    22626  8.28114E-07 4.68508E-05 8.05186E-05-1.64819E-06 3.19939E-05 5.70440E-05 2.89890E-05-1.25633E-04-1.65090E-04



 n o d a l   p r i n t   o u t   f o r   t i m e  s t e p    3201                              ( at time 1.5998399E+00 )

 nodal point  x-disp     y-disp      z-disp      x-vel       y-vel       z-vel      x-accl      y-accl      z-accl      x-coor      y-coor      z-coor
    22626 -1.24442E-04-4.30593E-02-4.97879E+00-6.95554E-04-2.75072E-02-3.11940E+00-2.00082E-03 2.25777E-02-2.27069E-02 4.79641E+01-2.20728E+01 2.35971E+00



 n o d a l   p r i n t   o u t   f o r   t i m e  s t e p    3201                              ( at time 1.5998399E+00 )

 nodal point  x-rot      y-rot       z-rot       x-rot vel   y-rot vel   z-rot vel   x-rot acc   y-rot acc   z-rot acc
    22626  5.16804E-07 4.99088E-05 8.53927E-05-1.48646E-06 3.26293E-05 4.79016E-05 1.61744E-06 6.35509E-06-9.14335E-05



 n o d a l   p r i n t   o u t   f o r   t i m e  s t e p    3401                              ( at time 1.6998299E+00 )

 nodal point  x-disp     y-disp      z-disp      x-vel       y-vel       z-vel      x-accl      y-accl      z-accl      x-coor      y-coor      z-coor
    22626 -2.11102E-04-4.55736E-02-5.29088E+00-1.12784E-03-2.24411E-02-3.12325E+00-4.32334E-03 5.06663E-02-3.85013E-02 4.79640E+01-2.20754E+01 2.04762E+00



 n o d a l   p r i n t   o u t   f o r   t i m e  s t e p    3401                              ( at time 1.6998299E+00 )

 nodal point  x-rot      y-rot       z-rot       x-rot vel   y-rot vel   z-rot vel   x-rot acc   y-rot acc   z-rot acc
    22626  3.03197E-07 5.29913E-05 9.04260E-05-3.80350E-06 2.98781E-05 4.79271E-05-2.31727E-05-2.75150E-05 2.55011E-07



 n o d a l   p r i n t   o u t   f o r   t i m e  s t e p    3601                              ( at time 1.7998199E+00 )

 nodal point  x-disp     y-disp      z-disp      x-vel       y-vel       z-vel      x-accl      y-accl      z-accl      x-coor      y-coor      z-coor
    22626 -3.12687E-04-4.75643E-02-5.60339E+00-1.32306E-03-1.77173E-02-3.12732E+00-1.95240E-03 4.72425E-02-4.06807E-02 4.79639E+01-2.20774E+01 1.73511E+00



 n o d a l   p r i n t   o u t   f o r   t i m e  s t e p    3601                              ( at time 1.7998199E+00 )

 nodal point  x-rot      y-rot       z-rot       x-rot vel   y-rot vel   z-rot vel   x-rot acc   y-rot acc   z-rot acc
    22626  1.57417E-07 5.57802E-05 9.51861E-05-3.63697E-07 2.14729E-05 4.21758E-05 3.44015E-05-8.40602E-05-5.75193E-05



 n o d a l   p r i n t   o u t   f o r   t i m e  s t e p    3801                              ( at time 1.8998099E+00 )

 nodal point  x-disp     y-disp      z-disp      x-vel       y-vel       z-vel      x-accl      y-accl      z-accl      x-coor      y-coor      z-coor
    22626 -5.00277E-04-4.92020E-02-5.91621E+00-2.16915E-03-1.51640E-02-3.12982E+00-8.46172E-03 2.55353E-02-2.50293E-02 4.79637E+01-2.20790E+01 1.42229E+00



 n o d a l   p r i n t   o u t   f o r   t i m e  s t e p    3801                              ( at time 1.8998099E+00 )

 nodal point  x-rot      y-rot       z-rot       x-rot vel   y-rot vel   z-rot vel   x-rot acc   y-rot acc   z-rot acc
    22626 -8.65284E-08 5.76772E-05 9.86004E-05 1.57667E-06 1.54302E-05 2.72890E-05 1.94056E-05-6.04336E-05-1.48883E-04



 n o d a l   p r i n t   o u t   f o r   t i m e  s t e p    4001                              ( at time 1.9997999E+00 )

 nodal point  x-disp     y-disp      z-disp      x-vel       y-vel       z-vel      x-accl      y-accl      z-accl      x-coor      y-coor      z-coor
    22626 -6.73790E-04-5.05923E-02-6.22929E+00-1.64924E-03-1.28136E-02-3.13210E+00 5.19968E-03 2.35072E-02-2.27879E-02 4.79635E+01-2.20804E+01 1.10921E+00



 n o d a l   p r i n t   o u t   f o r   t i m e  s t e p    4001                              ( at time 1.9997999E+00 )

 nodal point  x-rot      y-rot       z-rot       x-rot vel   y-rot vel   z-rot vel   x-rot acc   y-rot acc   z-rot acc
    22626  1.18916E-07 5.90129E-05 1.00911E-04 3.38721E-06 1.32554E-05 2.02684E-05 1.81072E-05-2.17501E-05-7.02123E-05



 n o d a l   p r i n t   o u t   f o r   t i m e  s t e p    4201                              ( at time 2.0997899E+00 )

 nodal point  x-disp     y-disp      z-disp      x-vel       y-vel       z-vel      x-accl      y-accl      z-accl      x-coor      y-coor      z-coor
    22626 -8.42828E-04-5.16834E-02-6.54262E+00-1.85922E-03-9.15522E-03-3.13518E+00-2.10004E-03 3.65870E-02-3.08115E-02 4.79633E+01-2.20815E+01 7.95877E-01



 n o d a l   p r i n t   o u t   f o r   t i m e  s t e p    4201                              ( at time 2.0997899E+00 )

 nodal point  x-rot      y-rot       z-rot       x-rot vel   y-rot vel   z-rot vel   x-rot acc   y-rot acc   z-rot acc
    22626  4.05348E-07 5.96569E-05 1.02002E-04-1.32651E-06 3.27482E-06 1.41977E-06-4.71419E-05-9.98156E-05-1.88506E-04



 n o d a l   p r i n t   o u t   f o r   t i m e  s t e p    4401                              ( at time 2.1997798E+00 )

 nodal point  x-disp     y-disp      z-disp      x-vel       y-vel       z-vel      x-accl      y-accl      z-accl      x-coor      y-coor      z-coor
    22626 -1.08494E-03-5.23701E-02-6.85629E+00-2.77723E-03-4.41212E-03-3.13895E+00-9.18105E-03 4.74358E-02-3.76716E-02 4.79631E+01-2.20822E+01 4.82212E-01



 n o d a l   p r i n t   o u t   f o r   t i m e  s t e p    4401                              ( at time 2.1997798E+00 )

 nodal point  x-rot      y-rot       z-rot       x-rot vel   y-rot vel   z-rot vel   x-rot acc   y-rot acc   z-rot acc
    22626  2.28373E-07 5.96474E-05 1.01933E-04-1.20031E-06-2.21522E-06-3.17358E-06 1.26208E-06-5.49059E-05-4.59380E-05



 n o d a l   p r i n t   o u t   f o r   t i m e  s t e p    4601                              ( at time 2.2997698E+00 )

 nodal point  x-disp     y-disp      z-disp      x-vel       y-vel       z-vel      x-accl      y-accl      z-accl      x-coor      y-coor      z-coor
    22626 -1.39387E-03-5.25653E-02-7.17034E+00-3.51535E-03-8.90561E-05-3.14227E+00-7.38188E-03 4.32349E-02-3.32770E-02 4.79628E+01-2.20824E+01 1.68163E-01



 n o d a l   p r i n t   o u t   f o r   t i m e  s t e p    4601                              ( at time 2.2997698E+00 )

 nodal point  x-rot      y-rot       z-rot       x-rot vel   y-rot vel   z-rot vel   x-rot acc   y-rot acc   z-rot acc
    22626 -1.59998E-07 5.93345E-05 1.01561E-04-4.56387E-06-9.73691E-06-1.28632E-05-3.36389E-05-7.52244E-05-9.69059E-05



 n o d a l   p r i n t   o u t   f o r   t i m e  s t e p    4801                              ( at time 2.3997598E+00 )

 nodal point  x-disp     y-disp      z-disp      x-vel       y-vel       z-vel      x-accl      y-accl      z-accl      x-coor      y-coor      z-coor
    22626 -1.76270E-03-5.24784E-02-7.48464E+00-3.61275E-03 1.86456E-03-3.14440E+00-9.74092E-04 1.95381E-02-2.12834E-02 4.79624E+01-2.20823E+01-1.46135E-01



 n o d a l   p r i n t   o u t   f o r   t i m e  s t e p    4801                              ( at time 2.3997598E+00 )

 nodal point  x-rot      y-rot       z-rot       x-rot vel   y-rot vel   z-rot vel   x-rot acc   y-rot acc   z-rot acc
    22626 -7.07517E-07 5.80690E-05 9.90746E-05-6.00124E-06-1.62526E-05-3.38235E-05-1.43751E-05-6.51639E-05-2.09624E-04



 n o d a l   p r i n t   o u t   f o r   t i m e  s t e p    5001                              ( at time 2.4997498E+00 )

 nodal point  x-disp     y-disp      z-disp      x-vel       y-vel       z-vel      x-accl      y-accl      z-accl      x-coor      y-coor      z-coor
    22626 -2.15587E-03-5.21711E-02-7.79916E+00-4.24215E-03 4.96483E-03-3.14711E+00-6.29464E-03 3.10057E-02-2.70298E-02 4.79620E+01-2.20820E+01-4.60661E-01



 n o d a l   p r i n t   o u t   f o r   t i m e  s t e p    5001                              ( at time 2.4997498E+00 )

 nodal point  x-rot      y-rot       z-rot       x-rot vel   y-rot vel   z-rot vel   x-rot acc   y-rot acc   z-rot acc
    22626 -1.15471E-06 5.58345E-05 9.51073E-05-4.07218E-06-2.62804E-05-4.86954E-05 1.92926E-05-1.00287E-04-1.48733E-04



 n o d a l   p r i n t   o u t   f o r   t i m e  s t e p    5201                              ( at time 2.5997398E+00 )

 nodal point  x-disp     y-disp      z-disp      x-vel       y-vel       z-vel      x-accl      y-accl      z-accl      x-coor      y-coor      z-coor
    22626 -2.63030E-03-5.14569E-02-8.11403E+00-5.25064E-03 9.27155E-03-3.15070E+00-1.00859E-02 4.30716E-02-3.59572E-02 4.79615E+01-2.20812E+01-7.75526E-01



 n o d a l   p r i n t   o u t   f o r   t i m e  s t e p    5201                              ( at time 2.5997398E+00 )

 nodal point  x-rot      y-rot       z-rot       x-rot vel   y-rot vel   z-rot vel   x-rot acc   y-rot acc   z-rot acc
    22626 -1.52574E-06 5.27296E-05 8.96679E-05-4.65639E-06-3.58866E-05-6.22647E-05-5.84275E-06-9.60718E-05-1.35707E-04



 n o d a l   p r i n t   o u t   f o r   t i m e  s t e p    5401                              ( at time 2.6997298E+00 )

 nodal point  x-disp     y-disp      z-disp      x-vel       y-vel       z-vel      x-accl      y-accl      z-accl      x-coor      y-coor      z-coor
    22626 -3.20011E-03-5.03222E-02-8.42924E+00-6.43062E-03 1.29756E-02-3.15421E+00-1.18010E-02 3.70438E-02-3.51178E-02 4.79610E+01-2.20801E+01-1.09074E+00



 n o d a l   p r i n t   o u t   f o r   t i m e  s t e p    5401                              ( at time 2.6997298E+00 )

 nodal point  x-rot      y-rot       z-rot       x-rot vel   y-rot vel   z-rot vel   x-rot acc   y-rot acc   z-rot acc
    22626 -1.82143E-06 4.89770E-05 8.31617E-05-1.92079E-06-4.14284E-05-6.69090E-05 2.73587E-05-5.54238E-05-4.64480E-05



 n o d a l   p r i n t   o u t   f o r   t i m e  s t e p    5601                              ( at time 2.7997198E+00 )

 nodal point  x-disp     y-disp      z-disp      x-vel       y-vel       z-vel      x-accl      y-accl      z-accl      x-coor      y-coor      z-coor
    22626 -3.91385E-03-4.88978E-02-8.74475E+00-7.68255E-03 1.51497E-02-3.15635E+00-1.25205E-02 2.17433E-02-2.13549E-02 4.79603E+01-2.20787E+01-1.40625E+00



 n o d a l   p r i n t   o u t   f o r   t i m e  s t e p    5601                              ( at time 2.7997198E+00 )

 nodal point  x-rot      y-rot       z-rot       x-rot vel   y-rot vel   z-rot vel   x-rot acc   y-rot acc   z-rot acc
    22626 -1.95503E-06 4.40823E-05 7.50544E-05 2.75210E-07-5.72627E-05-9.84261E-05 2.19623E-05-1.58359E-04-3.15203E-04



 n o d a l   p r i n t   o u t   f o r   t i m e  s t e p    5801                              ( at time 2.8997098E+00 )

 nodal point  x-disp     y-disp      z-disp      x-vel       y-vel       z-vel      x-accl      y-accl      z-accl      x-coor      y-coor      z-coor
    22626 -4.68556E-03-4.73294E-02-9.06044E+00-7.82116E-03 1.61391E-02-3.15804E+00-1.38629E-03 9.89478E-03-1.69437E-02 4.79595E+01-2.20771E+01-1.72194E+00



 n o d a l   p r i n t   o u t   f o r   t i m e  s t e p    5801                              ( at time 2.8997098E+00 )

 nodal point  x-rot      y-rot       z-rot       x-rot vel   y-rot vel   z-rot vel   x-rot acc   y-rot acc   z-rot acc
    22626 -1.75586E-06 3.76426E-05 6.41487E-05 2.43578E-06-6.65834E-05-1.15355E-04 2.16079E-05-9.32165E-05-1.69303E-04



 n o d a l   p r i n t   o u t   f o r   t i m e  s t e p    6001                              ( at time 2.9996998E+00 )

 nodal point  x-disp     y-disp      z-disp      x-vel       y-vel       z-vel      x-accl      y-accl      z-accl      x-coor      y-coor      z-coor
    22626 -5.50586E-03-4.55977E-02-9.37632E+00-8.82710E-03 1.86408E-02-3.16041E+00-1.00604E-02 2.50199E-02-2.37202E-02 4.79587E+01-2.20754E+01-2.03782E+00



 n o d a l   p r i n t   o u t   f o r   t i m e  s t e p    6001                              ( at time 2.9996998E+00 )

 nodal point  x-rot      y-rot       z-rot       x-rot vel   y-rot vel   z-rot vel   x-rot acc   y-rot acc   z-rot acc
    22626 -1.52359E-06 3.07809E-05 5.25841E-05 7.16348E-07-7.09718E-05-1.21001E-04-1.71960E-05-4.38877E-05-5.64639E-05



 n o d a l   p r i n t   o u t   f o r   t i m e  s t e p    6201                              ( at time 3.0996898E+00 )

 nodal point  x-disp     y-disp      z-disp      x-vel       y-vel       z-vel      x-accl      y-accl      z-accl      x-coor      y-coor      z-coor
    22626 -6.47108E-03-4.36166E-02-9.69245E+00-1.04161E-02 2.05564E-02-3.16240E+00-1.58917E-02 1.91577E-02-1.98551E-02 4.79577E+01-2.20734E+01-2.35395E+00



 n o d a l   p r i n t   o u t   f o r   t i m e  s t e p    6201                              ( at time 3.0996898E+00 )

 nodal point  x-rot      y-rot       z-rot       x-rot vel   y-rot vel   z-rot vel   x-rot acc   y-rot acc   z-rot acc
    22626 -1.57081E-06 2.34234E-05 3.99573E-05-2.01016E-06-7.56974E-05-1.33369E-04-2.72678E-05-4.72613E-05-1.23701E-04



 n o d a l   p r i n t   o u t   f o r   t i m e  s t e p    6401                              ( at time 3.1996798E+00 )

 nodal point  x-disp     y-disp      z-disp      x-vel       y-vel       z-vel      x-accl      y-accl      z-accl      x-coor      y-coor      z-coor
    22626 -7.54221E-03-4.15860E-02-1.00087E+01-1.09359E-02 1.97592E-02-3.16298E+00-5.19844E-03-7.97283E-03-5.80845E-03 4.79566E+01-2.20714E+01-2.67020E+00



 n o d a l   p r i n t   o u t   f o r   t i m e  s t e p    6401                              ( at time 3.1996798E+00 )

 nodal point  x-rot      y-rot       z-rot       x-rot vel   y-rot vel   z-rot vel   x-rot acc   y-rot acc   z-rot acc
    22626 -1.70244E-06 1.53478E-05 2.63593E-05-1.66076E-06-8.53183E-05-1.43949E-04 3.49436E-06-9.62186E-05-1.05809E-04



 n o d a l   p r i n t   o u t   f o r   t i m e  s t e p    6601                              ( at time 3.2996698E+00 )

 nodal point  x-disp     y-disp      z-disp      x-vel       y-vel       z-vel      x-accl      y-accl      z-accl      x-coor      y-coor      z-coor
    22626 -8.64809E-03-3.97064E-02-1.03249E+01-1.11971E-02 1.78246E-02-3.16270E+00-2.61252E-03-1.93479E-02 2.80170E-03 4.79555E+01-2.20695E+01-2.98645E+00



 n o d a l   p r i n t   o u t   f o r   t i m e  s t e p    6601                              ( at time 3.2996698E+00 )

 nodal point  x-rot      y-rot       z-rot       x-rot vel   y-rot vel   z-rot vel   x-rot acc   y-rot acc   z-rot acc
    22626 -1.96777E-06 6.65433E-06 1.15982E-05-2.35637E-06-8.94933E-05-1.51602E-04-6.95679E-06-4.17538E-05-7.65344E-05



 n o d a l   p r i n t   o u t   f o r   t i m e  s t e p    6801                              ( at time 3.3996598E+00 )

 nodal point  x-disp     y-disp      z-disp      x-vel       y-vel       z-vel      x-accl      y-accl      z-accl      x-coor      y-coor      z-coor
    22626 -9.79830E-03-3.80155E-02-1.06412E+01-1.16975E-02 1.60330E-02-3.16262E+00-5.00377E-03-1.79177E-02 8.05934E-04 4.79544E+01-2.20678E+01-3.30268E+00



 n o d a l   p r i n t   o u t   f o r   t i m e  s t e p    6801                              ( at time 3.3996598E+00 )

 nodal point  x-rot      y-rot       z-rot       x-rot vel   y-rot vel   z-rot vel   x-rot acc   y-rot acc   z-rot acc
    22626 -2.01541E-06-2.23471E-06-3.69399E-06-2.59801E-06-8.80948E-05-1.53205E-04-2.41665E-06 1.39860E-05-1.60295E-05



 n o d a l   p r i n t   o u t   f o r   t i m e  s t e p    7001                              ( at time 3.4996498E+00 )

 nodal point  x-disp     y-disp      z-disp      x-vel       y-vel       z-vel      x-accl      y-accl      z-accl      x-coor      y-coor      z-coor
    22626 -1.09962E-02-3.64858E-02-1.09574E+01-1.23287E-02 1.45005E-02-3.16282E+00-6.31336E-03-1.53268E-02-1.98623E-03 4.79532E+01-2.20663E+01-3.61893E+00



 n o d a l   p r i n t   o u t   f o r   t i m e  s t e p    7001                              ( at time 3.4996498E+00 )

 nodal point  x-rot      y-rot       z-rot       x-rot vel   y-rot vel   z-rot vel   x-rot acc   y-rot acc   z-rot acc
    22626 -2.00737E-06-1.09019E-05-1.85303E-05 6.15144E-07-8.72782E-05-1.47532E-04 3.21348E-05 8.16685E-06 5.67304E-05



 n o d a l   p r i n t   o u t   f o r   t i m e  s t e p    7201                              ( at time 3.5996397E+00 )

 nodal point  x-disp     y-disp      z-disp      x-vel       y-vel       z-vel      x-accl      y-accl      z-accl      x-coor      y-coor      z-coor
    22626 -1.22509E-02-3.51429E-02-1.12737E+01-1.24134E-02 1.20871E-02-3.16260E+00-8.47273E-04-2.41358E-02 2.12691E-03 4.79519E+01-2.20649E+01-3.93517E+00



 n o d a l   p r i n t   o u t   f o r   t i m e  s t e p    7201                              ( at time 3.5996397E+00 )

 nodal point  x-rot      y-rot       z-rot       x-rot vel   y-rot vel   z-rot vel   x-rot acc   y-rot acc   z-rot acc
    22626 -2.01648E-06-1.95270E-05-3.30151E-05 2.07506E-06-8.47737E-05-1.38825E-04 1.46006E-05 2.50483E-05 8.70771E-05



 n o d a l   p r i n t   o u t   f o r   t i m e  s t e p    7401                              ( at time 3.6996297E+00 )

 nodal point  x-disp     y-disp      z-disp      x-vel       y-vel       z-vel      x-accl      y-accl      z-accl      x-coor      y-coor      z-coor
    22626 -1.34806E-02-3.40995E-02-1.15899E+01-1.21395E-02 8.70299E-03-3.16160E+00 2.73976E-03-3.38446E-02 1.00718E-02 4.79507E+01-2.20639E+01-4.25135E+00



 n o d a l   p r i n t   o u t   f o r   t i m e  s t e p    7401                              ( at time 3.6996297E+00 )

 nodal point  x-rot      y-rot       z-rot       x-rot vel   y-rot vel   z-rot vel   x-rot acc   y-rot acc   z-rot acc
    22626 -1.76056E-06-2.78134E-05-4.68084E-05 3.79017E-06-8.13865E-05-1.36355E-04 1.71528E-05 3.38748E-05 2.47043E-05



 n o d a l   p r i n t   o u t   f o r   t i m e  s t e p    7601                              ( at time 3.7996197E+00 )

 nodal point  x-disp     y-disp      z-disp      x-vel       y-vel       z-vel      x-accl      y-accl      z-accl      x-coor      y-coor      z-coor
    22626 -1.46656E-02-3.33669E-02-1.19059E+01-1.15880E-02 6.01023E-03-3.16088E+00 5.51585E-03-2.69303E-02 7.13659E-03 4.79495E+01-2.20632E+01-4.56744E+00



 n o d a l   p r i n t   o u t   f o r   t i m e  s t e p    7601                              ( at time 3.7996197E+00 )

 nodal point  x-rot      y-rot       z-rot       x-rot vel   y-rot vel   z-rot vel   x-rot acc   y-rot acc   z-rot acc
    22626 -1.29609E-06-3.56324E-05-6.00817E-05 5.26955E-06-7.24143E-05-1.22075E-04 1.47953E-05 8.97311E-05 1.42814E-04



 n o d a l   p r i n t   o u t   f o r   t i m e  s t e p    7801                              ( at time 3.8996097E+00 )

 nodal point  x-disp     y-disp      z-disp      x-vel       y-vel       z-vel      x-accl      y-accl      z-accl      x-coor      y-coor      z-coor
    22626 -1.57931E-02-3.28662E-02-1.22220E+01-1.09407E-02 4.21764E-03-3.16081E+00 6.47288E-03-1.79277E-02 7.74937E-04 4.79484E+01-2.20627E+01-4.88349E+00



 n o d a l   p r i n t   o u t   f o r   t i m e  s t e p    7801                              ( at time 3.8996097E+00 )

 nodal point  x-rot      y-rot       z-rot       x-rot vel   y-rot vel   z-rot vel   x-rot acc   y-rot acc   z-rot acc
    22626 -9.34352E-07-4.22347E-05-7.12051E-05 6.52190E-07-5.77656E-05-9.62301E-05-4.61782E-05 1.46501E-04 2.58478E-04



 n o d a l   p r i n t   o u t   f o r   t i m e  s t e p    8001                              ( at time 3.9995997E+00 )

 nodal point  x-disp     y-disp      z-disp      x-vel       y-vel       z-vel      x-accl      y-accl      z-accl      x-coor      y-coor      z-coor
    22626 -1.68606E-02-3.24960E-02-1.25381E+01-1.03852E-02 3.14590E-03-3.16114E+00 5.55610E-03-1.07185E-02-3.35250E-03 4.79473E+01-2.20623E+01-5.19956E+00



 n o d a l   p r i n t   o u t   f o r   t i m e  s t e p    8001                              ( at time 3.9995997E+00 )

 nodal point  x-rot      y-rot       z-rot       x-rot vel   y-rot vel   z-rot vel   x-rot acc   y-rot acc   z-rot acc
    22626 -8.03490E-07-4.74848E-05-7.98889E-05-3.02286E-07-4.67135E-05-7.98690E-05-9.54572E-06 1.10532E-04 1.63627E-04



 n o d a l   p r i n t   o u t   f o r   t i m e  s t e p    8201                              ( at time 4.0995897E+00 )

 nodal point  x-disp     y-disp      z-disp      x-vel       y-vel       z-vel      x-accl      y-accl      z-accl      x-coor      y-coor      z-coor
    22626 -1.78172E-02-3.22964E-02-1.28541E+01-8.60369E-03 6.27768E-04-3.16064E+00 1.78167E-02-2.51838E-02 5.04067E-03 4.79464E+01-2.20621E+01-5.51562E+00



 n o d a l   p r i n t   o u t   f o r   t i m e  s t e p    8201                              ( at time 4.0995897E+00 )

 nodal point  x-rot      y-rot       z-rot       x-rot vel   y-rot vel   z-rot vel   x-rot acc   y-rot acc   z-rot acc
    22626 -8.13101E-07-5.16135E-05-8.68664E-05-1.04735E-07-3.22136E-05-5.65518E-05 1.97570E-06 1.45013E-04 2.33195E-04



 n o d a l   p r i n t   o u t   f o r   t i m e  s t e p    8401                              ( at time 4.1995797E+00 )

 nodal point  x-disp     y-disp      z-disp      x-vel       y-vel       z-vel      x-accl      y-accl      z-accl      x-coor      y-coor      z-coor
    22626 -1.85984E-02-3.23589E-02-1.31701E+01-6.96938E-03-1.78866E-03-3.16004E+00 1.63447E-02-2.41667E-02 5.93245E-03 4.79456E+01-2.20621E+01-5.83162E+00



 n o d a l   p r i n t   o u t   f o r   t i m e  s t e p    8401                              ( at time 4.1995797E+00 )

 nodal point  x-rot      y-rot       z-rot       x-rot vel   y-rot vel   z-rot vel   x-rot acc   y-rot acc   z-rot acc
    22626 -7.94711E-07-5.39948E-05-9.08216E-05-2.20943E-07-1.41519E-05-2.27388E-05-1.16219E-06 1.80636E-04 3.38165E-04



 n o d a l   p r i n t   o u t   f o r   t i m e  s t e p    8601                              ( at time 4.2995697E+00 )

 nodal point  x-disp     y-disp      z-disp      x-vel       y-vel       z-vel      x-accl      y-accl      z-accl      x-coor      y-coor      z-coor
    22626 -1.92314E-02-3.26577E-02-1.34861E+01-5.55646E-03-3.87810E-03-3.15987E+00 1.41307E-02-2.08965E-02 1.74302E-03 4.79450E+01-2.20624E+01-6.14757E+00



 n o d a l   p r i n t   o u t   f o r   t i m e  s t e p    8601                              ( at time 4.2995697E+00 )

 nodal point  x-rot      y-rot       z-rot       x-rot vel   y-rot vel   z-rot vel   x-rot acc   y-rot acc   z-rot acc
    22626 -8.17548E-07-5.44335E-05-9.16770E-05-5.44753E-07 2.83377E-06 4.57556E-06-3.23843E-06 1.69873E-04 2.73171E-04



 n o d a l   p r i n t   o u t   f o r   t i m e  s t e p    8801                              ( at time 4.3995597E+00 )

 nodal point  x-disp     y-disp      z-disp      x-vel       y-vel       z-vel      x-accl      y-accl      z-accl      x-coor      y-coor      z-coor
    22626 -1.96977E-02-3.30863E-02-1.38021E+01-3.80262E-03-4.73527E-03-3.16048E+00 1.75402E-02-8.57255E-03-6.12559E-03 4.79445E+01-2.20629E+01-6.46355E+00



 n o d a l   p r i n t   o u t   f o r   t i m e  s t e p    8801                              ( at time 4.3995597E+00 )

 nodal point  x-rot      y-rot       z-rot       x-rot vel   y-rot vel   z-rot vel   x-rot acc   y-rot acc   z-rot acc
    22626 -7.92686E-07-5.31574E-05-8.93586E-05 8.66267E-07 2.21597E-05 3.98640E-05 1.41116E-05 1.93279E-04 3.52920E-04



 n o d a l   p r i n t   o u t   f o r   t i m e  s t e p    9001                              ( at time 4.4995497E+00 )

 nodal point  x-disp     y-disp      z-disp      x-vel       y-vel       z-vel      x-accl      y-accl      z-accl      x-coor      y-coor      z-coor
    22626 -1.99953E-02-3.36557E-02-1.41181E+01-2.05009E-03-7.00117E-03-3.16009E+00 1.75269E-02-2.26612E-02 3.89137E-03 4.79442E+01-2.20634E+01-6.77956E+00



 n o d a l   p r i n t   o u t   f o r   t i m e  s t e p    9001                              ( at time 4.4995497E+00 )

 nodal point  x-rot      y-rot       z-rot       x-rot vel   y-rot vel   z-rot vel   x-rot acc   y-rot acc   z-rot acc
    22626 -6.56444E-07-4.96967E-05-8.32564E-05 3.58749E-06 4.39120E-05 7.67084E-05 2.72148E-05 2.17544E-04 3.68479E-04



 n o d a l   p r i n t   o u t   f o r   t i m e  s t e p    9201                              ( at time 4.5995397E+00 )

 nodal point  x-disp     y-disp      z-disp      x-vel       y-vel       z-vel      x-accl      y-accl      z-accl      x-coor      y-coor      z-coor
    22626 -2.01062E-02-3.45097E-02-1.44340E+01-1.15646E-04-9.89537E-03-3.15950E+00 1.93464E-02-2.89449E-02 5.88715E-03 4.79441E+01-2.20643E+01-7.09550E+00



 n o d a l   p r i n t   o u t   f o r   t i m e  s t e p    9201                              ( at time 4.5995397E+00 )

 nodal point  x-rot      y-rot       z-rot       x-rot vel   y-rot vel   z-rot vel   x-rot acc   y-rot acc   z-rot acc
    22626 -3.48544E-07-4.44783E-05-7.41473E-05 4.06264E-06 6.00535E-05 1.02968E-04 4.75201E-06 1.61432E-04 2.62626E-04



 n o d a l   p r i n t   o u t   f o r   t i m e  s t e p    9401                              ( at time 4.6995297E+00 )

 nodal point  x-disp     y-disp      z-disp      x-vel       y-vel       z-vel      x-accl      y-accl      z-accl      x-coor      y-coor      z-coor
    22626 -2.00016E-02-3.55802E-02-1.47499E+01 2.12336E-03-1.14984E-02-3.15936E+00 2.23923E-02-1.60318E-02 1.43066E-03 4.79442E+01-2.20654E+01-7.41142E+00



 n o d a l   p r i n t   o u t   f o r   t i m e  s t e p    9401                              ( at time 4.6995297E+00 )

 nodal point  x-rot      y-rot       z-rot       x-rot vel   y-rot vel   z-rot vel   x-rot acc   y-rot acc   z-rot acc
    22626  2.74814E-08-3.73286E-05-6.17158E-05 2.67568E-06 8.46636E-05 1.45543E-04-1.38710E-05 2.46125E-04 4.25794E-04



 n o d a l   p r i n t   o u t   f o r   t i m e  s t e p    9601                              ( at time 4.7995197E+00 )

 nodal point  x-disp     y-disp      z-disp      x-vel       y-vel       z-vel      x-accl      y-accl      z-accl      x-coor      y-coor      z-coor
    22626 -1.96746E-02-3.68207E-02-1.50658E+01 4.22816E-03-1.31166E-02-3.15853E+00 2.10501E-02-1.61838E-02 8.29065E-03 4.79445E+01-2.20666E+01-7.72730E+00



 n o d a l   p r i n t   o u t   f o r   t i m e  s t e p    9601                              ( at time 4.7995197E+00 )

 nodal point  x-rot      y-rot       z-rot       x-rot vel   y-rot vel   z-rot vel   x-rot acc   y-rot acc   z-rot acc
    22626  9.11520E-09-2.72823E-05-4.46283E-05-5.02663E-06 1.19837E-04 1.91698E-04-7.70308E-05 3.51774E-04 4.61594E-04



 n o d a l   p r i n t   o u t   f o r   t i m e  s t e p    9801                              ( at time 4.8995097E+00 )

 nodal point  x-disp     y-disp      z-disp      x-vel       y-vel       z-vel      x-accl      y-accl      z-accl      x-coor      y-coor      z-coor
    22626 -1.91691E-02-3.81438E-02-1.53815E+01 6.09665E-03-1.37753E-02-3.15638E+00 1.86868E-02-6.58730E-03 2.15481E-02 4.79450E+01-2.20679E+01-8.04303E+00



 n o d a l   p r i n t   o u t   f o r   t i m e  s t e p    9801                              ( at time 4.8995097E+00 )

 nodal point  x-rot      y-rot       z-rot       x-rot vel   y-rot vel   z-rot vel   x-rot acc   y-rot acc   z-rot acc
    22626  2.86036E-07-1.33687E-05-2.42457E-05 6.30862E-06 1.63831E-04 2.18094E-04 1.13364E-04 4.39984E-04 2.63987E-04



 n o d a l   p r i n t   o u t   f o r   t i m e  s t e p   10001                              ( at time 4.9994997E+00 )

 nodal point  x-disp     y-disp      z-disp      x-vel       y-vel       z-vel      x-accl      y-accl      z-accl      x-coor      y-coor      z-coor
    22626 -1.84403E-02-3.95896E-02-1.56968E+01 8.77413E-03-1.51863E-02-3.14924E+00 2.67773E-02-1.41116E-02 7.13966E-02 4.79457E+01-2.20694E+01-8.35830E+00



 n o d a l   p r i n t   o u t   f o r   t i m e  s t e p   10001                              ( at time 4.9994997E+00 )

 nodal point  x-rot      y-rot       z-rot       x-rot vel   y-rot vel   z-rot vel   x-rot acc   y-rot acc   z-rot acc
    22626  1.15615E-06 6.87125E-06-1.20061E-06 1.62824E-05 2.40543E-04 2.42391E-04 9.97475E-05 7.67186E-04 2.42992E-04



 n o d a l   p r i n t   o u t   f o r   t i m e  s t e p   10202                              ( at time 5.0999896E+00 )

 nodal point  x-disp     y-disp      z-disp      x-vel       y-vel       z-vel      x-accl      y-accl      z-accl      x-coor      y-coor      z-coor
    22626 -1.74420E-02-4.11421E-02-1.60127E+01 1.08493E-02-1.48214E-02-3.13685E+00 2.06510E-02 3.63106E-03 1.23321E-01 4.79467E+01-2.20709E+01-8.67418E+00



 n o d a l   p r i n t   o u t   f o r   t i m e  s t e p   10202                              ( at time 5.0999896E+00 )

 nodal point  x-rot      y-rot       z-rot       x-rot vel   y-rot vel   z-rot vel   x-rot acc   y-rot acc   z-rot acc
    22626  4.72381E-06 3.81439E-05 2.39938E-05 6.88158E-05 3.81497E-04 2.53195E-04 5.22774E-04 1.40268E-03 1.07517E-04



 n o d a l   p r i n t   o u t   f o r   t i m e  s t e p   10402                              ( at time 5.1999796E+00 )

 nodal point  x-disp     y-disp      z-disp      x-vel       y-vel       z-vel      x-accl      y-accl      z-accl      x-coor      y-coor      z-coor
    22626 -1.62445E-02-4.25171E-02-1.63256E+01 1.32228E-02-1.21001E-02-3.11975E+00 2.37369E-02 2.72152E-02 1.71015E-01 4.79479E+01-2.20723E+01-8.98706E+00



 n o d a l   p r i n t   o u t   f o r   t i m e  s t e p   10402                              ( at time 5.1999796E+00 )

 nodal point  x-rot      y-rot       z-rot       x-rot vel   y-rot vel   z-rot vel   x-rot acc   y-rot acc   z-rot acc
    22626  1.50359E-05 8.47429E-05 4.90815E-05 1.35622E-04 5.61412E-04 2.50361E-04 6.68128E-04 1.79932E-03-2.83455E-05



 n o d a l   p r i n t   o u t   f o r   t i m e  s t e p   10602                              ( at time 5.2999696E+00 )

 nodal point  x-disp     y-disp      z-disp      x-vel       y-vel       z-vel      x-accl      y-accl      z-accl      x-coor      y-coor      z-coor
    22626 -1.47901E-02-4.35681E-02-1.66364E+01 1.61759E-02-8.78530E-03-3.09728E+00 2.95342E-02 3.31518E-02 2.24723E-01 4.79494E+01-2.20734E+01-9.29792E+00



 n o d a l   p r i n t   o u t   f o r   t i m e  s t e p   10602                              ( at time 5.2999696E+00 )

 nodal point  x-rot      y-rot       z-rot       x-rot vel   y-rot vel   z-rot vel   x-rot acc   y-rot acc   z-rot acc
    22626  3.38314E-05 1.51433E-04 7.23251E-05 2.43325E-04 7.71928E-04 2.23586E-04 1.07713E-03 2.10538E-03-2.67781E-04



 n o d a l   p r i n t   o u t   f o r   t i m e  s t e p   10802                              ( at time 5.3999596E+00 )

 nodal point  x-disp     y-disp      z-disp      x-vel       y-vel       z-vel      x-accl      y-accl      z-accl      x-coor      y-coor      z-coor
    22626 -1.30184E-02-4.41877E-02-1.69448E+01 1.93984E-02-4.15192E-03-3.07061E+00 3.22283E-02 4.63384E-02 2.66672E-01 4.79512E+01-2.20740E+01-9.60630E+00



 n o d a l   p r i n t   o u t   f o r   t i m e  s t e p   10802                              ( at time 5.3999596E+00 )

 nodal point  x-rot      y-rot       z-rot       x-rot vel   y-rot vel   z-rot vel   x-rot acc   y-rot acc   z-rot acc
    22626  6.48883E-05 2.40561E-04 9.21374E-05 3.75117E-04 1.01620E-03 1.86064E-04 1.31805E-03 2.44301E-03-3.75255E-04



 n o d a l   p r i n t   o u t   f o r   t i m e  s t e p   11002                              ( at time 5.4999496E+00 )

 nodal point  x-disp     y-disp      z-disp      x-vel       y-vel       z-vel      x-accl      y-accl      z-accl      x-coor      y-coor      z-coor
    22626 -1.08969E-02-4.43639E-02-1.72503E+01 2.25347E-02 1.11881E-03-3.04005E+00 3.13656E-02 5.27127E-02 3.05648E-01 4.79533E+01-2.20742E+01-9.91181E+00



 n o d a l   p r i n t   o u t   f o r   t i m e  s t e p   11002                              ( at time 5.4999496E+00 )

 nodal point  x-rot      y-rot       z-rot       x-rot vel   y-rot vel   z-rot vel   x-rot acc   y-rot acc   z-rot acc
    22626  1.08100E-04 3.56717E-04 1.08028E-04 5.08091E-04 1.30706E-03 1.31072E-04 1.32988E-03 2.90887E-03-5.49977E-04



 n o d a l   p r i n t   o u t   f o r   t i m e  s t e p   11202                              ( at time 5.5999396E+00 )

 nodal point  x-disp     y-disp      z-disp      x-vel       y-vel       z-vel      x-accl      y-accl      z-accl      x-coor      y-coor      z-coor
    22626 -8.45225E-03-4.38833E-02-1.75527E+01 2.59701E-02 8.67356E-03-3.00745E+00 3.43578E-02 7.55550E-02 3.26020E-01 4.79557E+01-2.20737E+01-1.02142E+01



 n o d a l   p r i n t   o u t   f o r   t i m e  s t e p   11202                              ( at time 5.5999396E+00 )

 nodal point  x-rot      y-rot       z-rot       x-rot vel   y-rot vel   z-rot vel   x-rot acc   y-rot acc   z-rot acc
    22626  1.67887E-04 5.01980E-04 1.18284E-04 6.79080E-04 1.60625E-03 7.00669E-05 1.71006E-03 2.99219E-03-6.10111E-04



 n o d a l   p r i n t   o u t   f o r   t i m e  s t e p   11402                              ( at time 5.6999296E+00 )

 nodal point  x-disp     y-disp      z-disp      x-vel       y-vel       z-vel      x-accl      y-accl      z-accl      x-coor      y-coor      z-coor
    22626 -5.66855E-03-4.26628E-02-1.78516E+01 2.98156E-02 1.62095E-02-2.97093E+00 3.84591E-02 7.53670E-02 3.65304E-01 4.79585E+01-2.20725E+01-1.05131E+01



 n o d a l   p r i n t   o u t   f o r   t i m e  s t e p   11402                              ( at time 5.6999296E+00 )

 nodal point  x-rot      y-rot       z-rot       x-rot vel   y-rot vel   z-rot vel   x-rot acc   y-rot acc   z-rot acc
    22626  2.43479E-04 6.79559E-04 1.22342E-04 8.35743E-04 1.95617E-03-5.49696E-07 1.56678E-03 3.49949E-03-7.06234E-04



 n o d a l   p r i n t   o u t   f o r   t i m e  s t e p   11602                              ( at time 5.7999195E+00 )

 nodal point  x-disp     y-disp      z-disp      x-vel       y-vel       z-vel      x-accl      y-accl      z-accl      x-coor      y-coor      z-coor
    22626 -2.54588E-03-4.06084E-02-1.81468E+01 3.29608E-02 2.44283E-02-2.93444E+00 3.14546E-02 8.21965E-02 3.64858E-01 4.79616E+01-2.20704E+01-1.08083E+01



 n o d a l   p r i n t   o u t   f o r   t i m e  s t e p   11602                              ( at time 5.7999195E+00 )

 nodal point  x-rot      y-rot       z-rot       x-rot vel   y-rot vel   z-rot vel   x-rot acc   y-rot acc   z-rot acc
    22626  3.37617E-04 8.91205E-04 1.18182E-04 1.03731E-03 2.28278E-03-8.02083E-05 2.01588E-03 3.26648E-03-7.96666E-04



 n o d a l   p r i n t   o u t   f o r   t i m e  s t e p   11802                              ( at time 5.8999095E+00 )

 nodal point  x-disp     y-disp      z-disp      x-vel       y-vel       z-vel      x-accl      y-accl      z-accl      x-coor      y-coor      z-coor
    22626  9.56818E-04-3.78063E-02-1.84382E+01 3.75484E-02 3.12142E-02-2.89328E+00 4.58812E-02 6.78655E-02 4.11626E-01 4.79651E+01-2.20676E+01-1.10996E+01



 n o d a l   p r i n t   o u t   f o r   t i m e  s t e p   11802                              ( at time 5.8999095E+00 )

 nodal point  x-rot      y-rot       z-rot       x-rot vel   y-rot vel   z-rot vel   x-rot acc   y-rot acc   z-rot acc
    22626  4.49264E-04 1.13759E-03 1.05638E-04 1.19240E-03 2.64287E-03-1.67160E-04 1.55100E-03 3.60128E-03-8.69602E-04



 n o d a l   p r i n t   o u t   f o r   t i m e  s t e p   12002                              ( at time 5.9998995E+00 )

 nodal point  x-disp     y-disp      z-disp      x-vel       y-vel       z-vel      x-accl      y-accl      z-accl      x-coor      y-coor      z-coor
    22626  5.00949E-03-3.43150E-02-1.87253E+01 4.32949E-02 3.97426E-02-2.85045E+00 5.74702E-02 8.52921E-02 4.28405E-01 4.79692E+01-2.20641E+01-1.13868E+01



 n o d a l   p r i n t   o u t   f o r   t i m e  s t e p   12002                              ( at time 5.9998995E+00 )

 nodal point  x-rot      y-rot       z-rot       x-rot vel   y-rot vel   z-rot vel   x-rot acc   y-rot acc   z-rot acc
    22626  5.78843E-04 1.41874E-03 8.38264E-05 1.41055E-03 2.97819E-03-2.75760E-04 2.18176E-03 3.35353E-03-1.08612E-03



 n o d a l   p r i n t   o u t   f o r   t i m e  s t e p   12202                              ( at time 6.0998895E+00 )

 nodal point  x-disp     y-disp      z-disp      x-vel       y-vel       z-vel      x-accl      y-accl      z-accl      x-coor      y-coor      z-coor
    22626  9.58150E-03-2.99632E-02-1.90082E+01 4.83445E-02 4.74792E-02-2.80684E+00 5.05012E-02 7.73743E-02 4.36138E-01 4.79738E+01-2.20598E+01-1.16697E+01



 n o d a l   p r i n t   o u t   f o r   t i m e  s t e p   12202                              ( at time 6.0998895E+00 )

 nodal point  x-rot      y-rot       z-rot       x-rot vel   y-rot vel   z-rot vel   x-rot acc   y-rot acc   z-rot acc
    22626  7.29059E-04 1.73434E-03 5.15171E-05 1.58368E-03 3.32999E-03-3.76394E-04 1.73149E-03 3.51828E-03-1.00644E-03



 n o d a l   p r i n t   o u t   f o r   t i m e  s t e p   12402                              ( at time 6.1998795E+00 )

 nodal point  x-disp     y-disp      z-disp      x-vel       y-vel       z-vel      x-accl      y-accl      z-accl      x-coor      y-coor      z-coor
    22626  1.47200E-02-2.48756E-02-1.92866E+01 5.51756E-02 5.43112E-02-2.76293E+00 6.83173E-02 6.83269E-02 4.39085E-01 4.79789E+01-2.20547E+01-1.19481E+01



 n o d a l   p r i n t   o u t   f o r   t i m e  s t e p   12402                              ( at time 6.1998795E+00 )

 nodal point  x-rot      y-rot       z-rot       x-rot vel   y-rot vel   z-rot vel   x-rot acc   y-rot acc   z-rot acc
    22626  8.96503E-04 2.08478E-03 8.41912E-06 1.78009E-03 3.66558E-03-4.74284E-04 1.96430E-03 3.35633E-03-9.79000E-04



 n o d a l   p r i n t   o u t   f o r   t i m e  s t e p   12602                              ( at time 6.2998695E+00 )

 nodal point  x-disp     y-disp      z-disp      x-vel       y-vel       z-vel      x-accl      y-accl      z-accl      x-coor      y-coor      z-coor
    22626  2.06234E-02-1.90524E-02-1.95605E+01 6.31502E-02 6.19217E-02-2.71488E+00 7.97550E-02 7.61120E-02 4.80591E-01 4.79848E+01-2.20488E+01-1.22220E+01



 n o d a l   p r i n t   o u t   f o r   t i m e  s t e p   12602                              ( at time 6.2998695E+00 )

 nodal point  x-rot      y-rot       z-rot       x-rot vel   y-rot vel   z-rot vel   x-rot acc   y-rot acc   z-rot acc
    22626  1.08539E-03 2.46750E-03-4.55472E-05 1.99229E-03 4.00133E-03-5.98604E-04 2.12215E-03 3.35775E-03-1.24332E-03



 n o d a l   p r i n t   o u t   f o r   t i m e  s t e p   12802                              ( at time 6.3998595E+00 )

 nodal point  x-disp     y-disp      z-disp      x-vel       y-vel       z-vel      x-accl      y-accl      z-accl      x-coor      y-coor      z-coor
    22626  2.73136E-02-1.25126E-02-1.98296E+01 7.05451E-02 6.83208E-02-2.66913E+00 7.39560E-02 6.39979E-02 4.57552E-01 4.79915E+01-2.20423E+01-1.24911E+01



 n o d a l   p r i n t   o u t   f o r   t i m e  s t e p   12802                              ( at time 6.3998595E+00 )

 nodal point  x-rot      y-rot       z-rot       x-rot vel   y-rot vel   z-rot vel   x-rot acc   y-rot acc   z-rot acc
    22626  1.29548E-03 2.88403E-03-1.11463E-04 2.19931E-03 4.32912E-03-7.02944E-04 2.07049E-03 3.27825E-03-1.04351E-03



 n o d a l   p r i n t   o u t   f o r   t i m e  s t e p   13002                              ( at time 6.4998495E+00 )

 nodal point  x-disp     y-disp      z-disp      x-vel       y-vel       z-vel      x-accl      y-accl      z-accl      x-coor      y-coor      z-coor
    22626  3.47636E-02-5.26643E-03-2.00942E+01 7.86584E-02 7.61614E-02-2.62190E+00 8.11414E-02 7.84140E-02 4.72367E-01 4.79989E+01-2.20351E+01-1.27557E+01



 n o d a l   p r i n t   o u t   f o r   t i m e  s t e p   13002                              ( at time 6.4998495E+00 )

 nodal point  x-rot      y-rot       z-rot       x-rot vel   y-rot vel   z-rot vel   x-rot acc   y-rot acc   z-rot acc
    22626  1.52553E-03 3.33122E-03-1.86946E-04 2.40747E-03 4.62415E-03-8.11503E-04 2.08174E-03 2.95067E-03-1.08570E-03



 n o d a l   p r i n t   o u t   f o r   t i m e  s t e p   13202                              ( at time 6.5998395E+00 )

 nodal point  x-disp     y-disp      z-disp      x-vel       y-vel       z-vel      x-accl      y-accl      z-accl      x-coor      y-coor      z-coor
    22626  4.31083E-02 2.79659E-03-2.03538E+01 8.79577E-02 8.50113E-02-2.57196E+00 9.30017E-02 8.85067E-02 4.99382E-01 4.80073E+01-2.20270E+01-1.30153E+01



 n o d a l   p r i n t   o u t   f o r   t i m e  s t e p   13202                              ( at time 6.5998395E+00 )

 nodal point  x-rot      y-rot       z-rot       x-rot vel   y-rot vel   z-rot vel   x-rot acc   y-rot acc   z-rot acc
    22626  1.77736E-03 3.80939E-03-2.75288E-04 2.63805E-03 4.94053E-03-9.37933E-04 2.30601E-03 3.16406E-03-1.26442E-03



 n o d a l   p r i n t   o u t   f o r   t i m e  s t e p   13402                              ( at time 6.6998295E+00 )

 nodal point  x-disp     y-disp      z-disp      x-vel       y-vel       z-vel      x-accl      y-accl      z-accl      x-coor      y-coor      z-coor
    22626  5.23395E-02 1.16192E-02-2.06085E+01 9.69502E-02 9.18875E-02-2.52163E+00 8.99344E-02 6.87697E-02 5.03362E-01 4.80165E+01-2.20182E+01-1.32700E+01



 n o d a l   p r i n t   o u t   f o r   t i m e  s t e p   13402                              ( at time 6.6998295E+00 )

 nodal point  x-rot      y-rot       z-rot       x-rot vel   y-rot vel   z-rot vel   x-rot acc   y-rot acc   z-rot acc
    22626  2.05132E-03 4.31719E-03-3.74672E-04 2.84438E-03 5.21606E-03-1.04257E-03 2.06352E-03 2.75557E-03-1.04650E-03



 n o d a l   p r i n t   o u t   f o r   t i m e  s t e p   13602                              ( at time 6.7998195E+00 )

 nodal point  x-disp     y-disp      z-disp      x-vel       y-vel       z-vel      x-accl      y-accl      z-accl      x-coor      y-coor      z-coor
    22626  6.25631E-02 2.11387E-02-2.08580E+01 1.07462E-01 9.87690E-02-2.47016E+00 1.05127E-01 6.88219E-02 5.14795E-01 4.80267E+01-2.20087E+01-1.35195E+01



 n o d a l   p r i n t   o u t   f o r   t i m e  s t e p   13602                              ( at time 6.7998195E+00 )

 nodal point  x-rot      y-rot       z-rot       x-rot vel   y-rot vel   z-rot vel   x-rot acc   y-rot acc   z-rot acc
    22626  2.34668E-03 4.85240E-03-4.85996E-04 3.05614E-03 5.48403E-03-1.17270E-03 2.11786E-03 2.67998E-03-1.30141E-03



 n o d a l   p r i n t   o u t   f o r   t i m e  s t e p   13802                              ( at time 6.8998095E+00 )

 nodal point  x-disp     y-disp      z-disp      x-vel       y-vel       z-vel      x-accl      y-accl      z-accl      x-coor      y-coor      z-coor
    22626  7.37935E-02 3.14541E-02-2.11024E+01 1.16682E-01 1.07362E-01-2.41764E+00 9.22069E-02 8.59417E-02 5.25211E-01 4.80380E+01-2.19983E+01-1.37639E+01



 n o d a l   p r i n t   o u t   f o r   t i m e  s t e p   13802                              ( at time 6.8998095E+00 )

 nodal point  x-rot      y-rot       z-rot       x-rot vel   y-rot vel   z-rot vel   x-rot acc   y-rot acc   z-rot acc
    22626  2.66524E-03 5.41497E-03-6.09824E-04 3.30856E-03 5.76585E-03-1.29290E-03 2.52448E-03 2.81847E-03-1.20214E-03



 n o d a l   p r i n t   o u t   f o r   t i m e  s t e p   14002                              ( at time 6.9997995E+00 )

 nodal point  x-disp     y-disp      z-disp      x-vel       y-vel       z-vel      x-accl      y-accl      z-accl      x-coor      y-coor      z-coor
    22626  8.58997E-02 4.25284E-02-2.13414E+01 1.25141E-01 1.14714E-01-2.36340E+00 8.46051E-02 7.35278E-02 5.42533E-01 4.80501E+01-2.19873E+01-1.40029E+01



 n o d a l   p r i n t   o u t   f o r   t i m e  s t e p   14002                              ( at time 6.9997995E+00 )

 nodal point  x-rot      y-rot       z-rot       x-rot vel   y-rot vel   z-rot vel   x-rot acc   y-rot acc   z-rot acc
    22626  3.00751E-03 6.00671E-03-7.45597E-04 3.54607E-03 6.06227E-03-1.41984E-03 2.37533E-03 2.96453E-03-1.26955E-03



 n o d a l   p r i n t   o u t   f o r   t i m e  s t e p   14202                              ( at time 7.0997895E+00 )

 nodal point  x-disp     y-disp      z-disp      x-vel       y-vel       z-vel      x-accl      y-accl      z-accl      x-coor      y-coor      z-coor
    22626  9.88658E-02 5.43081E-02-2.15751E+01 1.33821E-01 1.21729E-01-2.31040E+00 8.68039E-02 7.01545E-02 5.30013E-01 4.80630E+01-2.19755E+01-1.42366E+01



 n o d a l   p r i n t   o u t   f o r   t i m e  s t e p   14202                              ( at time 7.0997895E+00 )

 nodal point  x-rot      y-rot       z-rot       x-rot vel   y-rot vel   z-rot vel   x-rot acc   y-rot acc   z-rot acc
    22626  3.37331E-03 6.62577E-03-8.93426E-04 3.79579E-03 6.32505E-03-1.53077E-03 2.49741E-03 2.62808E-03-1.10939E-03



 n o d a l   p r i n t   o u t   f o r   t i m e  s t e p   14402                              ( at time 7.1997794E+00 )

 nodal point  x-disp     y-disp      z-disp      x-vel       y-vel       z-vel      x-accl      y-accl      z-accl      x-coor      y-coor      z-coor
    22626  1.12720E-01 6.67450E-02-2.18033E+01 1.43029E-01 1.26998E-01-2.25383E+00 9.20894E-02 5.26896E-02 5.65748E-01 4.80769E+01-2.19630E+01-1.44648E+01



 n o d a l   p r i n t   o u t   f o r   t i m e  s t e p   14402                              ( at time 7.1997794E+00 )

 nodal point  x-rot      y-rot       z-rot       x-rot vel   y-rot vel   z-rot vel   x-rot acc   y-rot acc   z-rot acc
    22626  3.76452E-03 7.27254E-03-1.05283E-03 4.04341E-03 6.61460E-03-1.64749E-03 2.47641E-03 2.89574E-03-1.16733E-03



 n o d a l   p r i n t   o u t   f o r   t i m e  s t e p   14602                              ( at time 7.2997694E+00 )

 nodal point  x-disp     y-disp      z-disp      x-vel       y-vel       z-vel      x-accl      y-accl      z-accl      x-coor      y-coor      z-coor
    22626  1.27398E-01 7.97095E-02-2.20258E+01 1.50508E-01 1.33035E-01-2.19707E+00 7.48022E-02 6.03834E-02 5.67620E-01 4.80916E+01-2.19501E+01-1.46873E+01



 n o d a l   p r i n t   o u t   f o r   t i m e  s t e p   14602                              ( at time 7.2997694E+00 )

 nodal point  x-rot      y-rot       z-rot       x-rot vel   y-rot vel   z-rot vel   x-rot acc   y-rot acc   z-rot acc
    22626  4.18191E-03 7.94896E-03-1.22318E-03 4.30556E-03 6.90847E-03-1.75309E-03 2.62183E-03 2.93900E-03-1.05613E-03



 n o d a l   p r i n t   o u t   f o r   t i m e  s t e p   14802                              ( at time 7.3997594E+00 )

 nodal point  x-disp     y-disp      z-disp      x-vel       y-vel       z-vel      x-accl      y-accl      z-accl      x-coor      y-coor      z-coor
    22626  1.42787E-01 9.32943E-02-2.22426E+01 1.58049E-01 1.38315E-01-2.13903E+00 7.54200E-02 5.27981E-02 5.80477E-01 4.81070E+01-2.19365E+01-1.49041E+01



 n o d a l   p r i n t   o u t   f o r   t i m e  s t e p   14802                              ( at time 7.3997594E+00 )

 nodal point  x-rot      y-rot       z-rot       x-rot vel   y-rot vel   z-rot vel   x-rot acc   y-rot acc   z-rot acc
    22626  4.62536E-03 8.65425E-03-1.40430E-03 4.57012E-03 7.20478E-03-1.85269E-03 2.64589E-03 2.96340E-03-9.96070E-04



 n o d a l   p r i n t   o u t   f o r   t i m e  s t e p   15002                              ( at time 7.4997494E+00 )

 nodal point  x-disp     y-disp      z-disp      x-vel       y-vel       z-vel      x-accl      y-accl      z-accl      x-coor      y-coor      z-coor
    22626  1.58958E-01 1.07242E-01-2.24535E+01 1.64525E-01 1.40648E-01-2.07810E+00 6.47615E-02 2.33385E-02 6.09349E-01 4.81231E+01-2.19225E+01-1.51150E+01



 n o d a l   p r i n t   o u t   f o r   t i m e  s t e p   15002                              ( at time 7.4997494E+00 )

 nodal point  x-rot      y-rot       z-rot       x-rot vel   y-rot vel   z-rot vel   x-rot acc   y-rot acc   z-rot acc
    22626  5.09562E-03 9.38992E-03-1.59581E-03 4.83931E-03 7.51823E-03-1.94486E-03 2.69214E-03 3.13477E-03-9.21769E-04



 n o d a l   p r i n t   o u t   f o r   t i m e  s t e p   15202                              ( at time 7.5997394E+00 )

 nodal point  x-disp     y-disp      z-disp      x-vel       y-vel       z-vel      x-accl      y-accl      z-accl      x-coor      y-coor      z-coor
    22626  1.75634E-01 1.21492E-01-2.26580E+01 1.68763E-01 1.44117E-01-2.01241E+00 4.23866E-02 3.46879E-02 6.57007E-01 4.81398E+01-2.19083E+01-1.53195E+01



 n o d a l   p r i n t   o u t   f o r   t i m e  s t e p   15202                              ( at time 7.5997394E+00 )

 nodal point  x-rot      y-rot       z-rot       x-rot vel   y-rot vel   z-rot vel   x-rot acc   y-rot acc   z-rot acc
    22626  5.59451E-03 1.01578E-02-1.79637E-03 5.14294E-03 7.84457E-03-2.04027E-03 3.03655E-03 3.26381E-03-9.54246E-04



 n o d a l   p r i n t   o u t   f o r   t i m e  s t e p   15402                              ( at time 7.6997294E+00 )

 nodal point  x-disp     y-disp      z-disp      x-vel       y-vel       z-vel      x-accl      y-accl      z-accl      x-coor      y-coor      z-coor
    22626  1.92842E-01 1.35964E-01-2.28560E+01 1.75514E-01 1.45674E-01-1.94762E+00 6.75121E-02 1.55737E-02 6.47910E-01 4.81570E+01-2.18938E+01-1.55175E+01



 n o d a l   p r i n t   o u t   f o r   t i m e  s t e p   15402                              ( at time 7.6997294E+00 )

 nodal point  x-rot      y-rot       z-rot       x-rot vel   y-rot vel   z-rot vel   x-rot acc   y-rot acc   z-rot acc
    22626  6.12376E-03 1.09556E-02-2.00629E-03 5.43696E-03 8.11810E-03-2.15024E-03 2.94054E-03 2.73551E-03-1.09980E-03



 n o d a l   p r i n t   o u t   f o r   t i m e  s t e p   15602                              ( at time 7.7997194E+00 )

 nodal point  x-disp     y-disp      z-disp      x-vel       y-vel       z-vel      x-accl      y-accl      z-accl      x-coor      y-coor      z-coor
    22626  2.10754E-01 1.50498E-01-2.30474E+01 1.82002E-01 1.45300E-01-1.87930E+00 6.48847E-02-3.73729E-03 6.83309E-01 4.81749E+01-2.18793E+01-1.57089E+01



 n o d a l   p r i n t   o u t   f o r   t i m e  s t e p   15602                              ( at time 7.7997194E+00 )

 nodal point  x-rot      y-rot       z-rot       x-rot vel   y-rot vel   z-rot vel   x-rot acc   y-rot acc   z-rot acc
    22626  6.68194E-03 1.17816E-02-2.22540E-03 5.73513E-03 8.39530E-03-2.21413E-03 2.98195E-03 2.77226E-03-6.38903E-04



 n o d a l   p r i n t   o u t   f o r   t i m e  s t e p   15802                              ( at time 7.8997094E+00 )

 nodal point  x-disp     y-disp      z-disp      x-vel       y-vel       z-vel      x-accl      y-accl      z-accl      x-coor      y-coor      z-coor
    22626  2.29334E-01 1.65106E-01-2.32318E+01 1.88173E-01 1.46233E-01-1.81039E+00 6.17198E-02 9.32534E-03 6.89190E-01 4.81935E+01-2.18647E+01-1.58933E+01



 n o d a l   p r i n t   o u t   f o r   t i m e  s t e p   15802                              ( at time 7.8997094E+00 )

 nodal point  x-rot      y-rot       z-rot       x-rot vel   y-rot vel   z-rot vel   x-rot acc   y-rot acc   z-rot acc
    22626  7.27257E-03 1.26315E-02-2.45174E-03 6.06724E-03 8.62889E-03-2.29738E-03 3.32146E-03 2.33619E-03-8.32584E-04



 n o d a l   p r i n t   o u t   f o r   t i m e  s t e p   16002                              ( at time 7.9996994E+00 )

 nodal point  x-disp     y-disp      z-disp      x-vel       y-vel       z-vel      x-accl      y-accl      z-accl      x-coor      y-coor      z-coor
    22626  2.48445E-01 1.79623E-01-2.34094E+01 1.93580E-01 1.45073E-01-1.74092E+00 5.40800E-02-1.15944E-02 6.94769E-01 4.82126E+01-2.18502E+01-1.60709E+01



 n o d a l   p r i n t   o u t   f o r   t i m e  s t e p   16002                              ( at time 7.9996994E+00 )

 nodal point  x-rot      y-rot       z-rot       x-rot vel   y-rot vel   z-rot vel   x-rot acc   y-rot acc   z-rot acc
    22626  7.89607E-03 1.35067E-02-2.68582E-03 6.39768E-03 8.86861E-03-2.38435E-03 3.30472E-03 2.39742E-03-8.69809E-04



 n o d a l   p r i n t   o u t   f o r   t i m e  s t e p   16202                              ( at time 8.0996894E+00 )

 nodal point  x-disp     y-disp      z-disp      x-vel       y-vel       z-vel      x-accl      y-accl      z-accl      x-coor      y-coor      z-coor
    22626  2.68218E-01 1.93984E-01-2.35799E+01 2.01152E-01 1.42786E-01-1.67048E+00 7.57185E-02-2.28729E-02 7.04503E-01 4.82324E+01-2.18358E+01-1.62414E+01



 n o d a l   p r i n t   o u t   f o r   t i m e  s t e p   16202                              ( at time 8.0996894E+00 )

 nodal point  x-rot      y-rot       z-rot       x-rot vel   y-rot vel   z-rot vel   x-rot acc   y-rot acc   z-rot acc
    22626  8.55196E-03 1.44045E-02-2.92744E-03 6.72695E-03 9.08377E-03-2.44651E-03 3.29306E-03 2.15187E-03-6.21704E-04



 n o d a l   p r i n t   o u t   f o r   t i m e  s t e p   16402                              ( at time 8.1996794E+00 )

 nodal point  x-disp     y-disp      z-disp      x-vel       y-vel       z-vel      x-accl      y-accl      z-accl      x-coor      y-coor      z-coor
    22626  2.88578E-01 2.08089E-01-2.37433E+01 2.05734E-01 1.40818E-01-1.59920E+00 4.58294E-02-1.96797E-02 7.12826E-01 4.82528E+01-2.18217E+01-1.64048E+01



 n o d a l   p r i n t   o u t   f o r   t i m e  s t e p   16402                              ( at time 8.1996794E+00 )

 nodal point  x-rot      y-rot       z-rot       x-rot vel   y-rot vel   z-rot vel   x-rot acc   y-rot acc   z-rot acc
    22626  9.24225E-03 1.53241E-02-3.17461E-03 7.08608E-03 9.28953E-03-2.51340E-03 3.59168E-03 2.05773E-03-6.68948E-04



 n o d a l   p r i n t   o u t   f o r   t i m e  s t e p   16602                              ( at time 8.2996694E+00 )

 nodal point  x-disp     y-disp      z-disp      x-vel       y-vel       z-vel      x-accl      y-accl      z-accl      x-coor      y-coor      z-coor
    22626  3.09476E-01 2.22045E-01-2.38997E+01 2.11452E-01 1.37518E-01-1.52708E+00 5.71812E-02-3.30087E-02 7.21320E-01 4.82737E+01-2.18077E+01-1.65612E+01



 n o d a l   p r i n t   o u t   f o r   t i m e  s t e p   16602                              ( at time 8.2996694E+00 )

 nodal point  x-rot      y-rot       z-rot       x-rot vel   y-rot vel   z-rot vel   x-rot acc   y-rot acc   z-rot acc
    22626  9.96839E-03 1.62624E-02-3.42895E-03 7.43161E-03 9.46836E-03-2.56941E-03 3.45564E-03 1.78850E-03-5.60170E-04



 n o d a l   p r i n t   o u t   f o r   t i m e  s t e p   16802                              ( at time 8.3996594E+00 )

 nodal point  x-disp     y-disp      z-disp      x-vel       y-vel       z-vel      x-accl      y-accl      z-accl      x-coor      y-coor      z-coor
    22626  3.30980E-01 2.35482E-01-2.40487E+01 2.18958E-01 1.31392E-01-1.45360E+00 7.50707E-02-6.12638E-02 7.34840E-01 4.82952E+01-2.17943E+01-1.67102E+01



 n o d a l   p r i n t   o u t   f o r   t i m e  s t e p   16802                              ( at time 8.3996594E+00 )

 nodal point  x-rot      y-rot       z-rot       x-rot vel   y-rot vel   z-rot vel   x-rot acc   y-rot acc   z-rot acc
    22626  1.07286E-02 1.72167E-02-3.68945E-03 7.78061E-03 9.63734E-03-2.62711E-03 3.49029E-03 1.68994E-03-5.77055E-04



 n o d a l   p r i n t   o u t   f o r   t i m e  s t e p   17002                              ( at time 8.4996494E+00 )

 nodal point  x-disp     y-disp      z-disp      x-vel       y-vel       z-vel      x-accl      y-accl      z-accl      x-coor      y-coor      z-coor
    22626  3.53142E-01 2.48365E-01-2.41902E+01 2.23636E-01 1.25189E-01-1.37853E+00 4.67836E-02-6.20416E-02 7.50776E-01 4.83173E+01-2.17814E+01-1.68517E+01



 n o d a l   p r i n t   o u t   f o r   t i m e  s t e p   17002                              ( at time 8.4996494E+00 )

 nodal point  x-rot      y-rot       z-rot       x-rot vel   y-rot vel   z-rot vel   x-rot acc   y-rot acc   z-rot acc
    22626  1.15263E-02 1.81867E-02-3.95655E-03 8.17677E-03 9.77097E-03-2.70151E-03 3.96208E-03 1.33646E-03-7.44093E-04



 n o d a l   p r i n t   o u t   f o r   t i m e  s t e p   17202                              ( at time 8.5996394E+00 )

 nodal point  x-disp     y-disp      z-disp      x-vel       y-vel       z-vel      x-accl      y-accl      z-accl      x-coor      y-coor      z-coor
    22626  3.75819E-01 2.60610E-01-2.43243E+01 2.30159E-01 1.19154E-01-1.30326E+00 6.52406E-02-6.03557E-02 7.52802E-01 4.83400E+01-2.17692E+01-1.69858E+01



 n o d a l   p r i n t   o u t   f o r   t i m e  s t e p   17202                              ( at time 8.5996394E+00 )

 nodal point  x-rot      y-rot       z-rot       x-rot vel   y-rot vel   z-rot vel   x-rot acc   y-rot acc   z-rot acc
    22626  1.23612E-02 1.91693E-02-4.22926E-03 8.51306E-03 9.88149E-03-2.75246E-03 3.36322E-03 1.10529E-03-5.09466E-04



 n o d a l   p r i n t   o u t   f o r   t i m e  s t e p   17402                              ( at time 8.6996293E+00 )

 nodal point  x-disp     y-disp      z-disp      x-vel       y-vel       z-vel      x-accl      y-accl      z-accl      x-coor      y-coor      z-coor
    22626  3.99154E-01 2.72152E-01-2.44506E+01 2.37168E-01 1.10857E-01-1.22543E+00 7.00973E-02-8.29734E-02 7.78370E-01 4.83633E+01-2.17576E+01-1.71121E+01



 n o d a l   p r i n t   o u t   f o r   t i m e  s t e p   17402                              ( at time 8.6996293E+00 )

 nodal point  x-rot      y-rot       z-rot       x-rot vel   y-rot vel   z-rot vel   x-rot acc   y-rot acc   z-rot acc
    22626  1.32327E-02 2.01608E-02-4.50758E-03 8.92084E-03 9.95413E-03-2.79932E-03 4.07809E-03 7.26545E-04-4.68731E-04



 n o d a l   p r i n t   o u t   f o r   t i m e  s t e p   17602                              ( at time 8.7996193E+00 )

 nodal point  x-disp     y-disp      z-disp      x-vel       y-vel       z-vel      x-accl      y-accl      z-accl      x-coor      y-coor      z-coor
    22626  4.23199E-01 2.82962E-01-2.45694E+01 2.42543E-01 1.05743E-01-1.14960E+00 5.37560E-02-5.11474E-02 7.58300E-01 4.83874E+01-2.17468E+01-1.72309E+01



 n o d a l   p r i n t   o u t   f o r   t i m e  s t e p   17602                              ( at time 8.7996193E+00 )

 nodal point  x-rot      y-rot       z-rot       x-rot vel   y-rot vel   z-rot vel   x-rot acc   y-rot acc   z-rot acc
    22626  1.41458E-02 2.11619E-02-4.79163E-03 9.31915E-03 1.00916E-02-2.86711E-03 3.98350E-03 1.37471E-03-6.77939E-04



 n o d a l   p r i n t   o u t   f o r   t i m e  s t e p   17802                              ( at time 8.8996093E+00 )

 nodal point  x-disp     y-disp      z-disp      x-vel       y-vel       z-vel      x-accl      y-accl      z-accl      x-coor      y-coor      z-coor
    22626  4.47772E-01 2.93094E-01-2.46807E+01 2.48971E-01 9.76720E-02-1.07679E+00 6.42838E-02-8.07162E-02 7.28249E-01 4.84120E+01-2.17367E+01-1.73422E+01



 n o d a l   p r i n t   o u t   f o r   t i m e  s t e p   17802                              ( at time 8.8996093E+00 )

 nodal point  x-rot      y-rot       z-rot       x-rot vel   y-rot vel   z-rot vel   x-rot acc   y-rot acc   z-rot acc
    22626  1.50959E-02 2.21747E-02-5.08074E-03 9.70150E-03 1.01428E-02-2.90947E-03 3.82389E-03 5.12531E-04-4.23601E-04



 n o d a l   p r i n t   o u t   f o r   t i m e  s t e p   18002                              ( at time 8.9995993E+00 )

 nodal point  x-disp     y-disp      z-disp      x-vel       y-vel       z-vel      x-accl      y-accl      z-accl      x-coor      y-coor      z-coor
    22626  4.73213E-01 3.02591E-01-2.47846E+01 2.57943E-01 9.18877E-02-1.00253E+00 8.97269E-02-5.78493E-02 7.42645E-01 4.84374E+01-2.17272E+01-1.74461E+01



 n o d a l   p r i n t   o u t   f o r   t i m e  s t e p   18002                              ( at time 8.9995993E+00 )

 nodal point  x-rot      y-rot       z-rot       x-rot vel   y-rot vel   z-rot vel   x-rot acc   y-rot acc   z-rot acc
    22626  1.60851E-02 2.31921E-02-5.37380E-03 1.00986E-02 1.02090E-02-2.95377E-03 3.97102E-03 6.61595E-04-4.43031E-04



 n o d a l   p r i n t   o u t   f o r   t i m e  s t e p   18202                              ( at time 9.0995893E+00 )

 nodal point  x-disp     y-disp      z-disp      x-vel       y-vel       z-vel      x-accl      y-accl      z-accl      x-coor      y-coor      z-coor
    22626  4.99352E-01 3.11587E-01-2.48811E+01 2.65662E-01 8.90399E-02-9.28595E-01 7.72045E-02-2.84812E-02 7.39413E-01 4.84635E+01-2.17182E+01-1.75426E+01



 n o d a l   p r i n t   o u t   f o r   t i m e  s t e p   18202                              ( at time 9.0995893E+00 )

 nodal point  x-rot      y-rot       z-rot       x-rot vel   y-rot vel   z-rot vel   x-rot acc   y-rot acc   z-rot acc
    22626  1.71163E-02 2.42169E-02-5.67154E-03 1.05319E-02 1.02835E-02-3.00958E-03 4.33401E-03 7.45040E-04-5.58224E-04



 n o d a l   p r i n t   o u t   f o r   t i m e  s t e p   18402                              ( at time 9.1995793E+00 )

 nodal point  x-disp     y-disp      z-disp      x-vel       y-vel       z-vel      x-accl      y-accl      z-accl      x-coor      y-coor      z-coor
    22626  5.26267E-01 3.20143E-01-2.49705E+01 2.71766E-01 8.27745E-02-8.59617E-01 6.10386E-02-6.26600E-02 6.89858E-01 4.84904E+01-2.17096E+01-1.76320E+01



 n o d a l   p r i n t   o u t   f o r   t i m e  s t e p   18402                              ( at time 9.1995793E+00 )

 nodal point  x-rot      y-rot       z-rot       x-rot vel   y-rot vel   z-rot vel   x-rot acc   y-rot acc   z-rot acc
    22626  1.81890E-02 2.52478E-02-5.97356E-03 1.09025E-02 1.03517E-02-3.03196E-03 3.70654E-03 6.81927E-04-2.23838E-04



 n o d a l   p r i n t   o u t   f o r   t i m e  s t e p   18602                              ( at time 9.2995693E+00 )

 nodal point  x-disp     y-disp      z-disp      x-vel       y-vel       z-vel      x-accl      y-accl      z-accl      x-coor      y-coor      z-coor
    22626  5.53857E-01 3.28315E-01-2.50531E+01 2.79746E-01 7.97523E-02-7.93512E-01 7.98124E-02-3.02252E-02 6.61115E-01 4.85180E+01-2.17015E+01-1.77146E+01



 n o d a l   p r i n t   o u t   f o r   t i m e  s t e p   18602                              ( at time 9.2995693E+00 )

 nodal point  x-rot      y-rot       z-rot       x-rot vel   y-rot vel   z-rot vel   x-rot acc   y-rot acc   z-rot acc
    22626  1.92988E-02 2.62882E-02-6.27956E-03 1.12871E-02 1.04421E-02-3.06876E-03 3.84649E-03 9.04434E-04-3.68000E-04



 n o d a l   p r i n t   o u t   f o r   t i m e  s t e p   18802                              ( at time 9.3995593E+00 )

 nodal point  x-disp     y-disp      z-disp      x-vel       y-vel       z-vel      x-accl      y-accl      z-accl      x-coor      y-coor      z-coor
    22626  5.82260E-01 3.36140E-01-2.51289E+01 2.87995E-01 7.63487E-02-7.23489E-01 8.24988E-02-3.40390E-02 7.00294E-01 4.85464E+01-2.16936E+01-1.77904E+01



 n o d a l   p r i n t   o u t   f o r   t i m e  s t e p   18802                              ( at time 9.3995593E+00 )

 nodal point  x-rot      y-rot       z-rot       x-rot vel   y-rot vel   z-rot vel   x-rot acc   y-rot acc   z-rot acc
    22626  2.04491E-02 2.73332E-02-6.58753E-03 1.16944E-02 1.04721E-02-3.09073E-03 4.07270E-03 3.00121E-04-2.19717E-04



 n o d a l   p r i n t   o u t   f o r   t i m e  s t e p   19002                              ( at time 9.4995493E+00 )

 nodal point  x-disp     y-disp      z-disp      x-vel       y-vel       z-vel      x-accl      y-accl      z-accl      x-coor      y-coor      z-coor
    22626  6.11407E-01 3.43790E-01-2.51979E+01 2.95232E-01 7.61964E-02-6.56164E-01 7.23724E-02-1.52328E-03 6.73320E-01 4.85756E+01-2.16860E+01-1.78594E+01



 n o d a l   p r i n t   o u t   f o r   t i m e  s t e p   19002                              ( at time 9.4995493E+00 )

 nodal point  x-rot      y-rot       z-rot       x-rot vel   y-rot vel   z-rot vel   x-rot acc   y-rot acc   z-rot acc
    22626  2.16396E-02 2.83823E-02-6.90083E-03 1.21064E-02 1.05653E-02-3.17026E-03 4.12103E-03 9.31435E-04-7.95402E-04



 n o d a l   p r i n t   o u t   f o r   t i m e  s t e p   19202                              ( at time 9.5995393E+00 )

 nodal point  x-disp     y-disp      z-disp      x-vel       y-vel       z-vel      x-accl      y-accl      z-accl      x-coor      y-coor      z-coor
    22626  6.41353E-01 3.51395E-01-2.52605E+01 3.03523E-01 7.40726E-02-5.97421E-01 8.29254E-02-2.12402E-02 5.87489E-01 4.86055E+01-2.16784E+01-1.79220E+01



 n o d a l   p r i n t   o u t   f o r   t i m e  s t e p   19202                              ( at time 9.5995393E+00 )

 nodal point  x-rot      y-rot       z-rot       x-rot vel   y-rot vel   z-rot vel   x-rot acc   y-rot acc   z-rot acc
    22626  2.28702E-02 2.94387E-02-7.21952E-03 1.24538E-02 1.05705E-02-3.20070E-03 3.47437E-03 5.24289E-05-3.04386E-04



 n o d a l   p r i n t   o u t   f o r   t i m e  s t e p   19402                              ( at time 9.6995293E+00 )

 nodal point  x-disp     y-disp      z-disp      x-vel       y-vel       z-vel      x-accl      y-accl      z-accl      x-coor      y-coor      z-coor
    22626  6.72074E-01 3.58748E-01-2.53167E+01 3.09614E-01 7.29498E-02-5.30529E-01 6.09158E-02-1.12289E-02 6.68983E-01 4.86363E+01-2.16710E+01-1.79782E+01



 n o d a l   p r i n t   o u t   f o r   t i m e  s t e p   19402                              ( at time 9.6995293E+00 )

 nodal point  x-rot      y-rot       z-rot       x-rot vel   y-rot vel   z-rot vel   x-rot acc   y-rot acc   z-rot acc
    22626  2.41354E-02 3.04997E-02-7.53933E-03 1.28638E-02 1.06195E-02-3.23495E-03 4.10003E-03 4.90316E-04-3.42584E-04



 n o d a l   p r i n t   o u t   f o r   t i m e  s t e p   19602                              ( at time 9.7995193E+00 )

 nodal point  x-disp     y-disp      z-disp      x-vel       y-vel       z-vel      x-accl      y-accl      z-accl      x-coor      y-coor      z-coor
    22626  7.03511E-01 3.66122E-01-2.53666E+01 3.17661E-01 7.43336E-02-4.65836E-01 8.04720E-02 1.38397E-02 6.46998E-01 4.86677E+01-2.16637E+01-1.80281E+01



 n o d a l   p r i n t   o u t   f o r   t i m e  s t e p   19602                              ( at time 9.7995193E+00 )

 nodal point  x-rot      y-rot       z-rot       x-rot vel   y-rot vel   z-rot vel   x-rot acc   y-rot acc   z-rot acc
    22626  2.54415E-02 3.15636E-02-7.86375E-03 1.32575E-02 1.06933E-02-3.27811E-03 3.93764E-03 7.37468E-04-4.31602E-04



 n o d a l   p r i n t   o u t   f o r   t i m e  s t e p   19802                              ( at time 9.8995093E+00 )

 nodal point  x-disp     y-disp      z-disp      x-vel       y-vel       z-vel      x-accl      y-accl      z-accl      x-coor      y-coor      z-coor
    22626  7.35551E-01 3.73600E-01-2.54103E+01 3.24603E-01 7.52735E-02-4.09884E-01 6.94330E-02 9.39978E-03 5.59576E-01 4.86997E+01-2.16562E+01-1.80718E+01



 n o d a l   p r i n t   o u t   f o r   t i m e  s t e p   19802                              ( at time 9.8995093E+00 )

 nodal point  x-rot      y-rot       z-rot       x-rot vel   y-rot vel   z-rot vel   x-rot acc   y-rot acc   z-rot acc
    22626  2.67873E-02 3.26305E-02-8.19467E-03 1.36634E-02 1.06923E-02-3.31593E-03 4.05905E-03-1.00034E-05-3.78258E-04



 n o d a l   p r i n t   o u t   f o r   t i m e  s t e p   20003                              ( at time 9.9999992E+00 )

 nodal point  x-disp     y-disp      z-disp      x-vel       y-vel       z-vel      x-accl      y-accl      z-accl      x-coor      y-coor      z-coor
[...]
    22626  2.60254E-01 1.56317E-01-7.14442E-02 1.89790E-02 8.99589E-03-6.33114E-03-4.82656E-05 1.00536E-04 4.25747E-04



 n o d a l   p r i n t   o u t   f o r   t i m e  s t e p   45205                              ( at time 2.2599738E+01 )

 nodal point  x-disp     y-disp      z-disp      x-vel       y-vel       z-vel      x-accl      y-accl      z-accl      x-coor      y-coor      z-coor
    22626  4.68609E+00 1.14589E+00-1.99794E+01 2.50854E-01-8.60393E-04 5.20309E-01 1.78127E-02-2.55074E-02-9.59663E-03 5.26503E+01-2.08839E+01-1.26409E+01



 n o d a l   p r i n t   o u t   f o r   t i m e  s t e p   45205                              ( at time 2.2599738E+01 )

 nodal point  x-rot      y-rot       z-rot       x-rot vel   y-rot vel   z-rot vel   x-rot acc   y-rot acc   z-rot acc
    22626  2.62152E-01 1.57216E-01-7.20757E-02 1.89808E-02 9.00320E-03-6.29313E-03 1.78458E-05 7.31528E-05 3.80145E-04



 n o d a l   p r i n t   o u t   f o r   t i m e  s t e p   45405                              ( at time 2.2699728E+01 )

 nodal point  x-disp     y-disp      z-disp      x-vel       y-vel       z-vel      x-accl      y-accl      z-accl      x-coor      y-coor      z-coor
    22626  4.71125E+00 1.14563E+00-1.99274E+01 2.52421E-01-4.23288E-03 5.18212E-01 1.56733E-02-3.37286E-02-2.09700E-02 5.26754E+01-2.08842E+01-1.25889E+01



 n o d a l   p r i n t   o u t   f o r   t i m e  s t e p   45405                              ( at time 2.2699728E+01 )

 nodal point  x-rot      y-rot       z-rot       x-rot vel   y-rot vel   z-rot vel   x-rot acc   y-rot acc   z-rot acc
    22626  2.64049E-01 1.58117E-01-7.27028E-02 1.89572E-02 9.00275E-03-6.25065E-03-2.35800E-04-4.52673E-06 4.24884E-04



 n o d a l   p r i n t   o u t   f o r   t i m e  s t e p   45605                              ( at time 2.2799718E+01 )

 nodal point  x-disp     y-disp      z-disp      x-vel       y-vel       z-vel      x-accl      y-accl      z-accl      x-coor      y-coor      z-coor
    22626  4.73658E+00 1.14503E+00-1.98757E+01 2.54267E-01-7.99333E-03 5.15437E-01 1.84547E-02-3.76079E-02-2.77610E-02 5.27008E+01-2.08848E+01-1.25372E+01



 n o d a l   p r i n t   o u t   f o r   t i m e  s t e p   45605                              ( at time 2.2799718E+01 )

 nodal point  x-rot      y-rot       z-rot       x-rot vel   y-rot vel   z-rot vel   x-rot acc   y-rot acc   z-rot acc
    22626  2.65943E-01 1.59017E-01-7.33253E-02 1.89394E-02 8.99694E-03-6.20572E-03-1.78048E-04-5.80640E-05 4.49269E-04



 n o d a l   p r i n t   o u t   f o r   t i m e  s t e p   45805                              ( at time 2.2899708E+01 )

 nodal point  x-disp     y-disp      z-disp      x-vel       y-vel       z-vel      x-accl      y-accl      z-accl      x-coor      y-coor      z-coor
    22626  4.76212E+00 1.14402E+00-1.98243E+01 2.56601E-01-1.21497E-02 5.12571E-01 2.33438E-02-4.15688E-02-2.86587E-02 5.27263E+01-2.08858E+01-1.24858E+01



 n o d a l   p r i n t   o u t   f o r   t i m e  s t e p   45805                              ( at time 2.2899708E+01 )

 nodal point  x-rot      y-rot       z-rot       x-rot vel   y-rot vel   z-rot vel   x-rot acc   y-rot acc   z-rot acc
    22626  2.67835E-01 1.59916E-01-7.39432E-02 1.89066E-02 8.98024E-03-6.15592E-03-3.28458E-04-1.67070E-04 4.98071E-04



 n o d a l   p r i n t   o u t   f o r   t i m e  s t e p   46005                              ( at time 2.2999698E+01 )

 nodal point  x-disp     y-disp      z-disp      x-vel       y-vel       z-vel      x-accl      y-accl      z-accl      x-coor      y-coor      z-coor
    22626  4.78787E+00 1.14256E+00-1.97733E+01 2.58524E-01-1.69161E-02 5.07564E-01 1.92329E-02-4.76683E-02-5.00796E-02 5.27521E+01-2.08872E+01-1.24348E+01



 n o d a l   p r i n t   o u t   f o r   t i m e  s t e p   46005                              ( at time 2.2999698E+01 )

 nodal point  x-rot      y-rot       z-rot       x-rot vel   y-rot vel   z-rot vel   x-rot acc   y-rot acc   z-rot acc
    22626  2.69723E-01 1.60812E-01-7.45559E-02 1.88554E-02 8.95070E-03-6.09819E-03-5.12107E-04-2.95387E-04 5.77403E-04



 n o d a l   p r i n t   o u t   f o r   t i m e  s t e p   46205                              ( at time 2.3099688E+01 )

 nodal point  x-disp     y-disp      z-disp      x-vel       y-vel       z-vel      x-accl      y-accl      z-accl      x-coor      y-coor      z-coor
    22626  4.81384E+00 1.14061E+00-1.97229E+01 2.61009E-01-2.23214E-02 5.01939E-01 2.48528E-02-5.40583E-02-5.62527E-02 5.27780E+01-2.08892E+01-1.23844E+01



 n o d a l   p r i n t   o u t   f o r   t i m e  s t e p   46205                              ( at time 2.3099688E+01 )

 nodal point  x-rot      y-rot       z-rot       x-rot vel   y-rot vel   z-rot vel   x-rot acc   y-rot acc   z-rot acc
    22626  2.71606E-01 1.61705E-01-7.51631E-02 1.88000E-02 8.91945E-03-6.04371E-03-5.53975E-04-3.12577E-04 5.44889E-04



 n o d a l   p r i n t   o u t   f o r   t i m e  s t e p   46405                              ( at time 2.3199678E+01 )

 nodal point  x-disp     y-disp      z-disp      x-vel       y-vel       z-vel      x-accl      y-accl      z-accl      x-coor      y-coor      z-coor
    22626  4.84006E+00 1.13812E+00-1.96730E+01 2.63555E-01-2.76258E-02 4.95758E-01 2.54675E-02-5.30495E-02-6.18187E-02 5.28042E+01-2.08917E+01-1.23345E+01



 n o d a l   p r i n t   o u t   f o r   t i m e  s t e p   46405                              ( at time 2.3199678E+01 )

 nodal point  x-rot      y-rot       z-rot       x-rot vel   y-rot vel   z-rot vel   x-rot acc   y-rot acc   z-rot acc
    22626  2.73483E-01 1.62595E-01-7.57650E-02 1.87405E-02 8.87009E-03-5.99361E-03-5.95095E-04-4.93609E-04 5.01000E-04



 n o d a l   p r i n t   o u t   f o r   t i m e  s t e p   46605                              ( at time 2.3299668E+01 )

 nodal point  x-disp     y-disp      z-disp      x-vel       y-vel       z-vel      x-accl      y-accl      z-accl      x-coor      y-coor      z-coor
    22626  4.86655E+00 1.13506E+00-1.96237E+01 2.65862E-01-3.33704E-02 4.88925E-01 2.30633E-02-5.74517E-02-6.83342E-02 5.28307E+01-2.08947E+01-1.22852E+01



 n o d a l   p r i n t   o u t   f o r   t i m e  s t e p   46605                              ( at time 2.3299668E+01 )

 nodal point  x-rot      y-rot       z-rot       x-rot vel   y-rot vel   z-rot vel   x-rot acc   y-rot acc   z-rot acc
    22626  2.75354E-01 1.63479E-01-7.63611E-02 1.86754E-02 8.81657E-03-5.93529E-03-6.51346E-04-5.35216E-04 5.83217E-04



 n o d a l   p r i n t   o u t   f o r   t i m e  s t e p   46805                              ( at time 2.3399658E+01 )

 nodal point  x-disp     y-disp      z-disp      x-vel       y-vel       z-vel      x-accl      y-accl      z-accl      x-coor      y-coor      z-coor
    22626  4.89327E+00 1.13148E+00-1.95752E+01 2.68460E-01-3.83120E-02 4.81451E-01 2.59855E-02-4.94212E-02-7.47469E-02 5.28574E+01-2.08983E+01-1.22367E+01



 n o d a l   p r i n t   o u t   f o r   t i m e  s t e p   46805                              ( at time 2.3399658E+01 )

 nodal point  x-rot      y-rot       z-rot       x-rot vel   y-rot vel   z-rot vel   x-rot acc   y-rot acc   z-rot acc
    22626  2.77217E-01 1.64359E-01-7.69515E-02 1.86028E-02 8.77171E-03-5.87534E-03-7.26181E-04-4.48696E-04 5.99622E-04



 n o d a l   p r i n t   o u t   f o r   t i m e  s t e p   47005                              ( at time 2.3499648E+01 )

 nodal point  x-disp     y-disp      z-disp      x-vel       y-vel       z-vel      x-accl      y-accl      z-accl      x-coor      y-coor      z-coor
    22626  4.92025E+00 1.12735E+00-1.95275E+01 2.71138E-01-4.41439E-02 4.73477E-01 2.67855E-02-5.83239E-02-7.97434E-02 5.28844E+01-2.09024E+01-1.21890E+01



 n o d a l   p r i n t   o u t   f o r   t i m e  s t e p   47005                              ( at time 2.3499648E+01 )

 nodal point  x-rot      y-rot       z-rot       x-rot vel   y-rot vel   z-rot vel   x-rot acc   y-rot acc   z-rot acc
    22626  2.79074E-01 1.65233E-01-7.75360E-02 1.85276E-02 8.71005E-03-5.81995E-03-7.51907E-04-6.16639E-04 5.53885E-04



 n o d a l   p r i n t   o u t   f o r   t i m e  s t e p   47205                              ( at time 2.3599638E+01 )

 nodal point  x-disp     y-disp      z-disp      x-vel       y-vel       z-vel      x-accl      y-accl      z-accl      x-coor      y-coor      z-coor
    22626  4.94748E+00 1.12268E+00-1.94805E+01 2.73514E-01-4.89701E-02 4.65538E-01 2.37575E-02-4.82668E-02-7.94022E-02 5.29117E+01-2.09071E+01-1.21420E+01



 n o d a l   p r i n t   o u t   f o r   t i m e  s t e p   47205                              ( at time 2.3599638E+01 )

 nodal point  x-rot      y-rot       z-rot       x-rot vel   y-rot vel   z-rot vel   x-rot acc   y-rot acc   z-rot acc
    22626  2.80923E-01 1.66100E-01-7.81154E-02 1.84526E-02 8.64449E-03-5.77092E-03-7.50133E-04-6.55686E-04 4.90372E-04



 n o d a l   p r i n t   o u t   f o r   t i m e  s t e p   47405                              ( at time 2.3699628E+01 )

 nodal point  x-disp     y-disp      z-disp      x-vel       y-vel       z-vel      x-accl      y-accl      z-accl      x-coor      y-coor      z-coor
    22626  4.97493E+00 1.11755E+00-1.94344E+01 2.75527E-01-5.34456E-02 4.57652E-01 2.01351E-02-4.47592E-02-7.88663E-02 5.29391E+01-2.09122E+01-1.20959E+01



 n o d a l   p r i n t   o u t   f o r   t i m e  s t e p   47405                              ( at time 2.3699628E+01 )

 nodal point  x-rot      y-rot       z-rot       x-rot vel   y-rot vel   z-rot vel   x-rot acc   y-rot acc   z-rot acc
    22626  2.82764E-01 1.66962E-01-7.86895E-02 1.83823E-02 8.59038E-03-5.71758E-03-7.03083E-04-5.41129E-04 5.33441E-04



 n o d a l   p r i n t   o u t   f o r   t i m e  s t e p   47605                              ( at time 2.3799618E+01 )

 nodal point  x-disp     y-disp      z-disp      x-vel       y-vel       z-vel      x-accl      y-accl      z-accl      x-coor      y-coor      z-coor
    22626  5.00260E+00 1.11198E+00-1.93890E+01 2.77806E-01-5.78285E-02 4.49496E-01 2.27918E-02-4.38339E-02-8.15670E-02 5.29668E+01-2.09178E+01-1.20505E+01



 n o d a l   p r i n t   o u t   f o r   t i m e  s t e p   47605                              ( at time 2.3799618E+01 )

 nodal point  x-rot      y-rot       z-rot       x-rot vel   y-rot vel   z-rot vel   x-rot acc   y-rot acc   z-rot acc
    22626  2.84599E-01 1.67818E-01-7.92588E-02 1.83128E-02 8.53018E-03-5.67137E-03-6.94676E-04-6.02027E-04 4.62197E-04



 n o d a l   p r i n t   o u t   f o r   t i m e  s t e p   47805                              ( at time 2.3899608E+01 )

 nodal point  x-disp     y-disp      z-disp      x-vel       y-vel       z-vel      x-accl      y-accl      z-accl      x-coor      y-coor      z-coor
    22626  5.03048E+00 1.10603E+00-1.93445E+01 2.79892E-01-6.11356E-02 4.41896E-01 2.08677E-02-3.30745E-02-7.60145E-02 5.29947E+01-2.09238E+01-1.20060E+01



 n o d a l   p r i n t   o u t   f o r   t i m e  s t e p   47805                              ( at time 2.3899608E+01 )

 nodal point  x-rot      y-rot       z-rot       x-rot vel   y-rot vel   z-rot vel   x-rot acc   y-rot acc   z-rot acc
    22626  2.86426E-01 1.68668E-01-7.98236E-02 1.82466E-02 8.46689E-03-5.62719E-03-6.62436E-04-6.33050E-04 4.41837E-04



 n o d a l   p r i n t   o u t   f o r   t i m e  s t e p   48005                              ( at time 2.3999598E+01 )

 nodal point  x-disp     y-disp      z-disp      x-vel       y-vel       z-vel      x-accl      y-accl      z-accl      x-coor      y-coor      z-coor
    22626  5.05856E+00 1.09978E+00-1.93007E+01 2.81650E-01-6.38025E-02 4.34557E-01 1.75749E-02-2.66720E-02-7.33978E-02 5.30227E+01-2.09300E+01-1.19622E+01



 n o d a l   p r i n t   o u t   f o r   t i m e  s t e p   48005                              ( at time 2.3999598E+01 )

 nodal point  x-rot      y-rot       z-rot       x-rot vel   y-rot vel   z-rot vel   x-rot acc   y-rot acc   z-rot acc
    22626  2.88248E-01 1.69512E-01-8.03843E-02 1.81891E-02 8.41041E-03-5.59002E-03-5.74392E-04-5.64779E-04 3.71713E-04



 n o d a l   p r i n t   o u t   f o r   t i m e  s t e p   48205                              ( at time 2.4099588E+01 )

 nodal point  x-disp     y-disp      z-disp      x-vel       y-vel       z-vel      x-accl      y-accl      z-accl      x-coor      y-coor      z-coor
    22626  5.08681E+00 1.09328E+00-1.92576E+01 2.83266E-01-6.59642E-02 4.27380E-01 1.61594E-02-2.16185E-02-7.17729E-02 5.30510E+01-2.09365E+01-1.19191E+01



 n o d a l   p r i n t   o u t   f o r   t i m e  s t e p   48205                              ( at time 2.4099588E+01 )

 nodal point  x-rot      y-rot       z-rot       x-rot vel   y-rot vel   z-rot vel   x-rot acc   y-rot acc   z-rot acc
    22626  2.90065E-01 1.70350E-01-8.09413E-02 1.81418E-02 8.35917E-03-5.55596E-03-4.73584E-04-5.12498E-04 3.40681E-04



 n o d a l   p r i n t   o u t   f o r   t i m e  s t e p   48405                              ( at time 2.4199578E+01 )

 nodal point  x-disp     y-disp      z-disp      x-vel       y-vel       z-vel      x-accl      y-accl      z-accl      x-coor      y-coor      z-coor
    22626  5.11520E+00 1.08659E+00-1.92152E+01 2.84449E-01-6.76362E-02 4.20000E-01 1.18349E-02-1.67217E-02-7.38118E-02 5.30794E+01-2.09432E+01-1.18767E+01



 n o d a l   p r i n t   o u t   f o r   t i m e  s t e p   48405                              ( at time 2.4199578E+01 )

 nodal point  x-rot      y-rot       z-rot       x-rot vel   y-rot vel   z-rot vel   x-rot acc   y-rot acc   z-rot acc
    22626  2.91876E-01 1.71183E-01-8.14950E-02 1.80951E-02 8.30133E-03-5.52210E-03-4.66514E-04-5.78443E-04 3.38596E-04



 n o d a l   p r i n t   o u t   f o r   t i m e  s t e p   48605                              ( at time 2.4299568E+01 )

 nodal point  x-disp     y-disp      z-disp      x-vel       y-vel       z-vel      x-accl      y-accl      z-accl      x-coor      y-coor      z-coor
    22626  5.14371E+00 1.07979E+00-1.91735E+01 2.85584E-01-6.83127E-02 4.13904E-01 1.13527E-02-6.76597E-03-6.09615E-02 5.31079E+01-2.09500E+01-1.18350E+01



 n o d a l   p r i n t   o u t   f o r   t i m e  s t e p   48605                              ( at time 2.4299568E+01 )

 nodal point  x-rot      y-rot       z-rot       x-rot vel   y-rot vel   z-rot vel   x-rot acc   y-rot acc   z-rot acc
    22626  2.93683E-01 1.72010E-01-8.20455E-02 1.80523E-02 8.25635E-03-5.48929E-03-4.28168E-04-4.49870E-04 3.28135E-04



 n o d a l   p r i n t   o u t   f o r   t i m e  s t e p   48805                              ( at time 2.4399558E+01 )

 nodal point  x-disp     y-disp      z-disp      x-vel       y-vel       z-vel      x-accl      y-accl      z-accl      x-coor      y-coor      z-coor
    22626  5.17233E+00 1.07294E+00-1.91325E+01 2.86485E-01-6.87091E-02 4.06906E-01 9.00858E-03-3.96407E-03-6.99891E-02 5.31365E+01-2.09569E+01-1.17940E+01



 n o d a l   p r i n t   o u t   f o r   t i m e  s t e p   48805                              ( at time 2.4399558E+01 )

 nodal point  x-rot      y-rot       z-rot       x-rot vel   y-rot vel   z-rot vel   x-rot acc   y-rot acc   z-rot acc
    22626  2.95486E-01 1.72833E-01-8.25938E-02 1.80104E-02 8.20623E-03-5.47076E-03-4.19078E-04-5.01218E-04 1.85299E-04



 n o d a l   p r i n t   o u t   f o r   t i m e  s t e p   49006                              ( at time 2.4500048E+01 )

 nodal point  x-disp     y-disp      z-disp      x-vel       y-vel       z-vel      x-accl      y-accl      z-accl      x-coor      y-coor      z-coor
    22626  5.20116E+00 1.06603E+00-1.90919E+01 2.87243E-01-6.85458E-02 4.01199E-01 7.54128E-03 1.62515E-03-5.67915E-02 5.31653E+01-2.09638E+01-1.17534E+01



 n o d a l   p r i n t   o u t   f o r   t i m e  s t e p   49006                              ( at time 2.4500048E+01 )

 nodal point  x-rot      y-rot       z-rot       x-rot vel   y-rot vel   z-rot vel   x-rot acc   y-rot acc   z-rot acc
    22626  2.97294E-01 1.73656E-01-8.31426E-02 1.79769E-02 8.16581E-03-5.45046E-03-3.33071E-04-4.02256E-04 2.02069E-04



 n o d a l   p r i n t   o u t   f o r   t i m e  s t e p   49206                              ( at time 2.4600038E+01 )

 nodal point  x-disp     y-disp      z-disp      x-vel       y-vel       z-vel      x-accl      y-accl      z-accl      x-coor      y-coor      z-coor
    22626  5.22991E+00 1.05919E+00-1.90521E+01 2.87526E-01-6.77885E-02 3.95625E-01 2.83357E-03 7.57339E-03-5.57453E-02 5.31941E+01-2.09706E+01-1.17136E+01



 n o d a l   p r i n t   o u t   f o r   t i m e  s t e p   49206                              ( at time 2.4600038E+01 )

 nodal point  x-rot      y-rot       z-rot       x-rot vel   y-rot vel   z-rot vel   x-rot acc   y-rot acc   z-rot acc
    22626  2.99090E-01 1.74470E-01-8.36866E-02 1.79412E-02 8.11709E-03-5.42772E-03-3.56971E-04-4.87247E-04 2.27371E-04



 n o d a l   p r i n t   o u t   f o r   t i m e  s t e p   49406                              ( at time 2.4700028E+01 )

 nodal point  x-disp     y-disp      z-disp      x-vel       y-vel       z-vel      x-accl      y-accl      z-accl      x-coor      y-coor      z-coor
    22626  5.25868E+00 1.05248E+00-1.90128E+01 2.87767E-01-6.65738E-02 3.90514E-01 2.41306E-03 1.21478E-02-5.11154E-02 5.32229E+01-2.09773E+01-1.16743E+01



 n o d a l   p r i n t   o u t   f o r   t i m e  s t e p   49406                              ( at time 2.4700028E+01 )

 nodal point  x-rot      y-rot       z-rot       x-rot vel   y-rot vel   z-rot vel   x-rot acc   y-rot acc   z-rot acc
    22626  3.00883E-01 1.75280E-01-8.42290E-02 1.79221E-02 8.08210E-03-5.42038E-03-1.91408E-04-3.49899E-04 7.34569E-05



 n o d a l   p r i n t   o u t   f o r   t i m e  s t e p   49606                              ( at time 2.4800018E+01 )

 nodal point  x-disp     y-disp      z-disp      x-vel       y-vel       z-vel      x-accl      y-accl      z-accl      x-coor      y-coor      z-coor
    22626  5.28747E+00 1.04587E+00-1.89740E+01 2.88055E-01-6.55502E-02 3.86019E-01 2.88125E-03 1.02373E-02-4.49564E-02 5.32517E+01-2.09839E+01-1.16355E+01



 n o d a l   p r i n t   o u t   f o r   t i m e  s t e p   49606                              ( at time 2.4800018E+01 )

 nodal point  x-rot      y-rot       z-rot       x-rot vel   y-rot vel   z-rot vel   x-rot acc   y-rot acc   z-rot acc
    22626  3.02674E-01 1.76086E-01-8.47703E-02 1.78988E-02 8.05255E-03-5.40405E-03-2.33262E-04-2.95508E-04 1.63262E-04



 n o d a l   p r i n t   o u t   f o r   t i m e  s t e p   49806                              ( at time 2.4900008E+01 )

 nodal point  x-disp     y-disp      z-disp      x-vel       y-vel       z-vel      x-accl      y-accl      z-accl      x-coor      y-coor      z-coor
    22626  5.31626E+00 1.03938E+00-1.89356E+01 2.87851E-01-6.43632E-02 3.81672E-01-2.04258E-03 1.18713E-02-4.34673E-02 5.32804E+01-2.09904E+01-1.15971E+01



 n o d a l   p r i n t   o u t   f o r   t i m e  s t e p   49806                              ( at time 2.4900008E+01 )

 nodal point  x-rot      y-rot       z-rot       x-rot vel   y-rot vel   z-rot vel   x-rot acc   y-rot acc   z-rot acc
    22626  3.04463E-01 1.76890E-01-8.53103E-02 1.78920E-02 8.02191E-03-5.39596E-03-6.81990E-05-3.06486E-04 8.09455E-05



 n o d a l   p r i n t   o u t   f o r   t i m e  s t e p   50006                              ( at time 2.4999998E+01 )

 nodal point  x-disp     y-disp      z-disp      x-vel       y-vel       z-vel      x-accl      y-accl      z-accl      x-coor      y-coor      z-coor
    22626  5.34502E+00 1.03305E+00-1.88976E+01 2.87240E-01-6.26529E-02 3.78244E-01-6.10735E-03 1.71048E-02-3.42833E-02 5.33092E+01-2.09967E+01-1.15591E+01



 n o d a l   p r i n t   o u t   f o r   t i m e  s t e p   50006                              ( at time 2.4999998E+01 )

 nodal point  x-rot      y-rot       z-rot       x-rot vel   y-rot vel   z-rot vel   x-rot acc   y-rot acc   z-rot acc
    22626  3.06251E-01 1.77691E-01-8.58496E-02 1.78719E-02 7.98921E-03-5.38271E-03-2.00662E-04-3.27008E-04 1.32507E-04
