 LSTC 50th% Full_FE H-III Dummy (Beta Version, February 17, 2019)        
                    ls-dyna smp s R16 R16.0_619_d222963 date 03/18/2025

{BEGIN LEGEND}
 Entity #        Title
    22626                                                                                     
{END LEGEND}




 n o d a l   p r i n t   o u t   f o r   t i m e  s t e p       1                              ( at time 0.0000000E+00 )

 nodal point  x-disp     y-disp      z-disp      x-vel       y-vel       z-vel      x-accl      y-accl      z-accl      x-coor      y-coor      z-coor
    22626  0.00000E+00 0.00000E+00 0.00000E+00 0.00000E+00 0.00000E+00 0.00000E+00 0.00000E+00 0.00000E+00 0.00000E+00 4.65938E+00-2.81908E+01-4.49817E+01



 n o d a l   p r i n t   o u t   f o r   t i m e  s t e p       1                              ( at time 0.0000000E+00 )

 nodal point  x-rot      y-rot       z-rot       x-rot vel   y-rot vel   z-rot vel   x-rot acc   y-rot acc   z-rot acc
    22626  0.00000E+00 0.00000E+00 0.00000E+00 0.00000E+00 0.00000E+00 0.00000E+00 0.00000E+00 0.00000E+00 0.00000E+00



 n o d a l   p r i n t   o u t   f o r   t i m e  s t e p     201                              ( at time 9.9989993E-02 )

 nodal point  x-disp     y-disp      z-disp      x-vel       y-vel       z-vel      x-accl      y-accl      z-accl      x-coor      y-coor      z-coor
    22626  2.73585E-07 1.73664E-06-5.34276E-05 4.19765E-05 2.55585E-04-1.46815E-03 4.19807E-04 2.55610E-03-1.46830E-02 4.65938E+00-2.81908E+01-4.49818E+01



 n o d a l   p r i n t   o u t   f o r   t i m e  s t e p     201                              ( at time 9.9989993E-02 )

 nodal point  x-rot      y-rot       z-rot       x-rot vel   y-rot vel   z-rot vel   x-rot acc   y-rot acc   z-rot acc
    22626 -5.98899E-08-8.38532E-09-5.45973E-09-5.86836E-06-9.70030E-07-9.27185E-07-5.86894E-05-9.70127E-06-9.27278E-06



 n o d a l   p r i n t   o u t   f o r   t i m e  s t e p     401                              ( at time 1.9997999E-01 )

 nodal point  x-disp     y-disp      z-disp      x-vel       y-vel       z-vel      x-accl      y-accl      z-accl      x-coor      y-coor      z-coor
    22626  1.73020E-05 3.61749E-04-6.67595E-04 2.88103E-05 7.81123E-03-1.21545E-02-1.31675E-04 7.55640E-02-1.06874E-01 4.65939E+00-2.81905E+01-4.49824E+01



 n o d a l   p r i n t   o u t   f o r   t i m e  s t e p     401                              ( at time 1.9997999E-01 )

 nodal point  x-rot      y-rot       z-rot       x-rot vel   y-rot vel   z-rot vel   x-rot acc   y-rot acc   z-rot acc
    22626 -2.81989E-06-3.37038E-07-3.34371E-07-3.94239E-05-1.73308E-06-2.25957E-06-3.35589E-04-7.63126E-06-1.33252E-05



 n o d a l   p r i n t   o u t   f o r   t i m e  s t e p     601                              ( at time 2.9996998E-01 )

 nodal point  x-disp     y-disp      z-disp      x-vel       y-vel       z-vel      x-accl      y-accl      z-accl      x-coor      y-coor      z-coor
    22626  2.73853E-05 1.24006E-03-2.33845E-03 4.22821E-04 8.44963E-03-1.92539E-02 3.94050E-03 6.38472E-03-7.10009E-02 4.65940E+00-2.81896E+01-4.49841E+01



 n o d a l   p r i n t   o u t   f o r   t i m e  s t e p     601                              ( at time 2.9996998E-01 )

 nodal point  x-rot      y-rot       z-rot       x-rot vel   y-rot vel   z-rot vel   x-rot acc   y-rot acc   z-rot acc
    22626 -5.38465E-06-3.90294E-07-6.42383E-07-1.54049E-05-5.48752E-06-6.68566E-06 2.40214E-04-3.75482E-05-4.42653E-05



 n o d a l   p r i n t   o u t   f o r   t i m e  s t e p     801                              ( at time 3.9995997E-01 )

 nodal point  x-disp     y-disp      z-disp      x-vel       y-vel       z-vel      x-accl      y-accl      z-accl      x-coor      y-coor      z-coor
    22626  2.60441E-05 2.16243E-03-4.28290E-03-3.15193E-04 1.07404E-02-2.10855E-02-7.38088E-03 2.29096E-02-1.83185E-02 4.65940E+00-2.81887E+01-4.49860E+01



 n o d a l   p r i n t   o u t   f o r   t i m e  s t e p     801                              ( at time 3.9995997E-01 )

 nodal point  x-rot      y-rot       z-rot       x-rot vel   y-rot vel   z-rot vel   x-rot acc   y-rot acc   z-rot acc
    22626 -7.61687E-06-1.25016E-06-9.80893E-07-4.48922E-05-6.25069E-06-1.50708E-06-2.94902E-04-7.63247E-06 5.17909E-05



 n o d a l   p r i n t   o u t   f o r   t i m e  s t e p    1001                              ( at time 4.9994997E-01 )

 nodal point  x-disp     y-disp      z-disp      x-vel       y-vel       z-vel      x-accl      y-accl      z-accl      x-coor      y-coor      z-coor
    22626  3.67357E-06 3.43652E-03-6.74478E-03-2.38596E-04 1.41514E-02-2.87080E-02 7.66044E-04 3.41138E-02-7.62320E-02 4.65938E+00-2.81874E+01-4.49885E+01



 n o d a l   p r i n t   o u t   f o r   t i m e  s t e p    1001                              ( at time 4.9994997E-01 )

 nodal point  x-rot      y-rot       z-rot       x-rot vel   y-rot vel   z-rot vel   x-rot acc   y-rot acc   z-rot acc
    22626 -1.35615E-05-1.16533E-06-9.49945E-07-8.41731E-05 3.28268E-06 4.10652E-06-3.92848E-04 9.53432E-05 5.61417E-05



 n o d a l   p r i n t   o u t   f o r   t i m e  s t e p    1201                              ( at time 5.9993996E-01 )

 nodal point  x-disp     y-disp      z-disp      x-vel       y-vel       z-vel      x-accl      y-accl      z-accl      x-coor      y-coor      z-coor
    22626 -8.73277E-07 5.01225E-03-9.71615E-03 4.61146E-05 1.67008E-02-3.09926E-02 2.84739E-03 2.54961E-02-2.28482E-02 4.65937E+00-2.81858E+01-4.49914E+01



 n o d a l   p r i n t   o u t   f o r   t i m e  s t e p    1201                              ( at time 5.9993996E-01 )

 nodal point  x-rot      y-rot       z-rot       x-rot vel   y-rot vel   z-rot vel   x-rot acc   y-rot acc   z-rot acc
    22626 -2.02871E-05-8.87123E-07-9.57727E-07-5.90386E-05 3.88818E-06-2.03218E-06 2.51370E-04 6.05567E-06-6.13931E-05



 n o d a l   p r i n t   o u t   f o r   t i m e  s t e p    1401                              ( at time 6.9992995E-01 )

 nodal point  x-disp     y-disp      z-disp      x-vel       y-vel       z-vel      x-accl      y-accl      z-accl      x-coor      y-coor      z-coor
    22626 -5.09719E-05 6.85039E-03-1.31710E-02-4.92830E-04 1.96588E-02-3.89643E-02-5.38999E-03 2.95835E-02-7.97255E-02 4.65932E+00-2.81840E+01-4.49949E+01



 n o d a l   p r i n t   o u t   f o r   t i m e  s t e p    1401                              ( at time 6.9992995E-01 )

 nodal point  x-rot      y-rot       z-rot       x-rot vel   y-rot vel   z-rot vel   x-rot acc   y-rot acc   z-rot acc
    22626 -2.62085E-05-9.01271E-07-6.32402E-07-7.08391E-05 3.59710E-07 3.86275E-06-1.18017E-04-3.52882E-05 5.89552E-05



 n o d a l   p r i n t   o u t   f o r   t i m e  s t e p    1601                              ( at time 7.9991994E-01 )

 nodal point  x-disp     y-disp      z-disp      x-vel       y-vel       z-vel      x-accl      y-accl      z-accl      x-coor      y-coor      z-coor
    22626 -8.02675E-05 8.98676E-03-1.74642E-02-4.95616E-04 2.21667E-02-4.51184E-02-2.78534E-05 2.50814E-02-6.15466E-02 4.65929E+00-2.81818E+01-4.49992E+01



 n o d a l   p r i n t   o u t   f o r   t i m e  s t e p    1601                              ( at time 7.9991994E-01 )

 nodal point  x-rot      y-rot       z-rot       x-rot vel   y-rot vel   z-rot vel   x-rot acc   y-rot acc   z-rot acc
    22626 -3.43990E-05-8.78092E-07-5.14742E-07-9.19114E-05-4.82914E-06 1.53768E-06-2.10744E-04-5.18937E-05-2.32530E-05



 n o d a l   p r i n t   o u t   f o r   t i m e  s t e p    1801                              ( at time 8.9990994E-01 )

 nodal point  x-disp     y-disp      z-disp      x-vel       y-vel       z-vel      x-accl      y-accl      z-accl      x-coor      y-coor      z-coor
    22626 -1.16883E-04 1.12542E-02-2.19906E-02-2.88373E-04 2.40414E-02-4.55885E-02 2.07263E-03 1.87484E-02-4.70134E-03 4.65926E+00-2.81796E+01-4.50037E+01



 n o d a l   p r i n t   o u t   f o r   t i m e  s t e p    1801                              ( at time 8.9990994E-01 )

 nodal point  x-rot      y-rot       z-rot       x-rot vel   y-rot vel   z-rot vel   x-rot acc   y-rot acc   z-rot acc
    22626 -4.28171E-05-9.57645E-07-5.01622E-07-8.24874E-05 1.97707E-06-7.13583E-07 9.42496E-05 6.80689E-05-2.25149E-05



 n o d a l   p r i n t   o u t   f o r   t i m e  s t e p    2001                              ( at time 9.9989993E-01 )

 nodal point  x-disp     y-disp      z-disp      x-vel       y-vel       z-vel      x-accl      y-accl      z-accl      x-coor      y-coor      z-coor
    22626 -1.52038E-04 1.37913E-02-2.67304E-02-3.52027E-05 2.64982E-02-5.00313E-02 2.53196E-03 2.45712E-02-4.44331E-02 4.65922E+00-2.81770E+01-4.50084E+01



 n o d a l   p r i n t   o u t   f o r   t i m e  s t e p    2001                              ( at time 9.9989993E-01 )

 nodal point  x-rot      y-rot       z-rot       x-rot vel   y-rot vel   z-rot vel   x-rot acc   y-rot acc   z-rot acc
    22626 -5.18495E-05-9.07877E-07-4.37563E-07-1.06226E-04 1.19418E-06-3.08901E-06-2.37412E-04-7.82967E-06-2.37566E-05



 n o d a l   p r i n t   o u t   f o r   t i m e  s t e p    2201                              ( at time 1.0998899E+00 )

 nodal point  x-disp     y-disp      z-disp      x-vel       y-vel       z-vel      x-accl      y-accl      z-accl      x-coor      y-coor      z-coor
    22626 -1.59816E-04 1.65321E-02-3.20559E-02-3.44453E-04 2.88840E-02-5.60789E-02-3.09281E-03 2.38604E-02-6.04819E-02 4.65921E+00-2.81743E+01-4.50138E+01



 n o d a l   p r i n t   o u t   f o r   t i m e  s t e p    2201                              ( at time 1.0998899E+00 )

 nodal point  x-rot      y-rot       z-rot       x-rot vel   y-rot vel   z-rot vel   x-rot acc   y-rot acc   z-rot acc
    22626 -6.29454E-05-1.00410E-06-7.48999E-07-1.03746E-04-7.61728E-06-2.07566E-06 2.47998E-05-8.81235E-05 1.01345E-05



 n o d a l   p r i n t   o u t   f o r   t i m e  s t e p    2401                              ( at time 1.1998799E+00 )

 nodal point  x-disp     y-disp      z-disp      x-vel       y-vel       z-vel      x-accl      y-accl      z-accl      x-coor      y-coor      z-coor
    22626 -1.89779E-04 1.94752E-02-3.79327E-02-1.96040E-04 3.02248E-02-6.12088E-02 1.48427E-03 1.34090E-02-5.13042E-02 4.65919E+00-2.81714E+01-4.50197E+01



 n o d a l   p r i n t   o u t   f o r   t i m e  s t e p    2401                              ( at time 1.1998799E+00 )

 nodal point  x-rot      y-rot       z-rot       x-rot vel   y-rot vel   z-rot vel   x-rot acc   y-rot acc   z-rot acc
    22626 -7.29507E-05-1.61415E-06-9.90434E-07-1.01302E-04-7.16062E-06-3.01038E-06 2.44468E-05 4.56709E-06-9.34808E-06



 n o d a l   p r i n t   o u t   f o r   t i m e  s t e p    2601                              ( at time 1.2998699E+00 )

 nodal point  x-disp     y-disp      z-disp      x-vel       y-vel       z-vel      x-accl      y-accl      z-accl      x-coor      y-coor      z-coor
    22626 -2.23830E-04 2.26249E-02-4.42079E-02-2.49886E-04 3.25983E-02-6.40547E-02-5.38511E-04 2.37374E-02-2.84618E-02 4.65915E+00-2.81682E+01-4.50259E+01



 n o d a l   p r i n t   o u t   f o r   t i m e  s t e p    2601                              ( at time 1.2998699E+00 )

 nodal point  x-rot      y-rot       z-rot       x-rot vel   y-rot vel   z-rot vel   x-rot acc   y-rot acc   z-rot acc
    22626 -8.39952E-05-2.17119E-06-1.24591E-06-1.29523E-04-3.01852E-08-1.43433E-06-2.82237E-04 7.13114E-05 1.57620E-05



 n o d a l   p r i n t   o u t   f o r   t i m e  s t e p    2801                              ( at time 1.3998599E+00 )

 nodal point  x-disp     y-disp      z-disp      x-vel       y-vel       z-vel      x-accl      y-accl      z-accl      x-coor      y-coor      z-coor
    22626 -2.51439E-04 2.59923E-02-5.07121E-02-4.46924E-04 3.45172E-02-6.66737E-02-1.97058E-03 1.91907E-02-2.61922E-02 4.65912E+00-2.81648E+01-4.50324E+01



 n o d a l   p r i n t   o u t   f o r   t i m e  s t e p    2801                              ( at time 1.3998599E+00 )

 nodal point  x-rot      y-rot       z-rot       x-rot vel   y-rot vel   z-rot vel   x-rot acc   y-rot acc   z-rot acc
    22626 -9.73988E-05-2.01108E-06-1.34451E-06-1.36735E-04-2.80701E-07 1.76023E-06-7.21317E-05-2.50541E-06 3.19488E-05



 n o d a l   p r i n t   o u t   f o r   t i m e  s t e p    3001                              ( at time 1.4998499E+00 )

 nodal point  x-disp     y-disp      z-disp      x-vel       y-vel       z-vel      x-accl      y-accl      z-accl      x-coor      y-coor      z-coor
    22626 -2.96279E-04 2.95911E-02-5.77242E-02-4.47437E-04 3.72801E-02-7.39885E-02-5.12773E-06 2.76321E-02-7.31557E-02 4.65908E+00-2.81612E+01-4.50394E+01



 n o d a l   p r i n t   o u t   f o r   t i m e  s t e p    3001                              ( at time 1.4998499E+00 )

 nodal point  x-rot      y-rot       z-rot       x-rot vel   y-rot vel   z-rot vel   x-rot acc   y-rot acc   z-rot acc
    22626 -1.10707E-04-2.03164E-06-1.27100E-06-1.28731E-04-1.01706E-06-1.77942E-06 8.00536E-05-7.36432E-06-3.54001E-05



 n o d a l   p r i n t   o u t   f o r   t i m e  s t e p    3201                              ( at time 1.5998399E+00 )

 nodal point  x-disp     y-disp      z-disp      x-vel       y-vel       z-vel      x-accl      y-accl      z-accl      x-coor      y-coor      z-coor
    22626 -3.60005E-04 3.34890E-02-6.54465E-02-5.83345E-04 4.05432E-02-7.97069E-02-1.35921E-03 3.26344E-02-5.71901E-02 4.65902E+00-2.81573E+01-4.50472E+01



 n o d a l   p r i n t   o u t   f o r   t i m e  s t e p    3201                              ( at time 1.5998399E+00 )

 nodal point  x-rot      y-rot       z-rot       x-rot vel   y-rot vel   z-rot vel   x-rot acc   y-rot acc   z-rot acc
    22626 -1.23311E-04-2.14973E-06-1.09862E-06-1.34753E-04-2.98386E-06 3.14237E-06-6.02233E-05-1.96699E-05 4.92229E-05



 n o d a l   p r i n t   o u t   f o r   t i m e  s t e p    3401                              ( at time 1.6998299E+00 )

 nodal point  x-disp     y-disp      z-disp      x-vel       y-vel       z-vel      x-accl      y-accl      z-accl      x-coor      y-coor      z-coor
    22626 -4.21630E-04 3.76416E-02-7.35824E-02-7.26495E-04 4.22375E-02-8.25898E-02-1.43165E-03 1.69439E-02-2.88312E-02 4.65895E+00-2.81532E+01-4.50553E+01



 n o d a l   p r i n t   o u t   f o r   t i m e  s t e p    3401                              ( at time 1.6998299E+00 )

 nodal point  x-rot      y-rot       z-rot       x-rot vel   y-rot vel   z-rot vel   x-rot acc   y-rot acc   z-rot acc
    22626 -1.37611E-04-2.15409E-06-9.09605E-07-1.47455E-04 1.62260E-06 3.89253E-06-1.27038E-04 4.60691E-05 7.50238E-06



 n o d a l   p r i n t   o u t   f o r   t i m e  s t e p    3601                              ( at time 1.7998199E+00 )

 nodal point  x-disp     y-disp      z-disp      x-vel       y-vel       z-vel      x-accl      y-accl      z-accl      x-coor      y-coor      z-coor
    22626 -4.84727E-04 4.19001E-02-8.19599E-02-5.12265E-04 4.32813E-02-8.48740E-02 2.14252E-03 1.04394E-02-2.28450E-02 4.65889E+00-2.81489E+01-4.50637E+01



 n o d a l   p r i n t   o u t   f o r   t i m e  s t e p    3601                              ( at time 1.7998199E+00 )

 nodal point  x-rot      y-rot       z-rot       x-rot vel   y-rot vel   z-rot vel   x-rot acc   y-rot acc   z-rot acc
    22626 -1.52821E-04-2.06526E-06-7.78738E-07-1.49807E-04 1.56856E-06-1.42922E-06-2.35193E-05-5.40454E-07-5.32229E-05



 n o d a l   p r i n t   o u t   f o r   t i m e  s t e p    3801                              ( at time 1.8998099E+00 )

 nodal point  x-disp     y-disp      z-disp      x-vel       y-vel       z-vel      x-accl      y-accl      z-accl      x-coor      y-coor      z-coor
    22626 -5.43981E-04 4.63775E-02-9.06360E-02-5.21766E-04 4.60733E-02-8.88753E-02-9.50213E-05 2.79224E-02-4.00162E-02 4.65883E+00-2.81445E+01-4.50724E+01



 n o d a l   p r i n t   o u t   f o r   t i m e  s t e p    3801                              ( at time 1.8998099E+00 )

 nodal point  x-rot      y-rot       z-rot       x-rot vel   y-rot vel   z-rot vel   x-rot acc   y-rot acc   z-rot acc
    22626 -1.67676E-04-1.85595E-06-6.48113E-07-1.50049E-04-1.55873E-06-4.97505E-07-2.41819E-06-3.12760E-05 9.31804E-06



 n o d a l   p r i n t   o u t   f o r   t i m e  s t e p    4001                              ( at time 1.9997999E+00 )

 nodal point  x-disp     y-disp      z-disp      x-vel       y-vel       z-vel      x-accl      y-accl      z-accl      x-coor      y-coor      z-coor
    22626 -5.94865E-04 5.10272E-02-9.97454E-02-5.47679E-04 4.71685E-02-9.31134E-02-2.59158E-04 1.09533E-02-4.23856E-02 4.65878E+00-2.81398E+01-4.50815E+01



 n o d a l   p r i n t   o u t   f o r   t i m e  s t e p    4001                              ( at time 1.9997999E+00 )

 nodal point  x-rot      y-rot       z-rot       x-rot vel   y-rot vel   z-rot vel   x-rot acc   y-rot acc   z-rot acc
    22626 -1.82767E-04-2.09104E-06-6.98982E-07-1.56048E-04-4.60155E-06-3.05513E-07-6.00049E-05-3.04312E-05 1.92012E-06



 n o d a l   p r i n t   o u t   f o r   t i m e  s t e p    4201                              ( at time 2.0997899E+00 )

 nodal point  x-disp     y-disp      z-disp      x-vel       y-vel       z-vel      x-accl      y-accl      z-accl      x-coor      y-coor      z-coor
    22626 -6.48929E-04 5.57836E-02-1.09162E-01-5.58408E-04 4.81962E-02-9.53054E-02-1.07300E-04 1.02782E-02-2.19225E-02 4.65873E+00-2.81350E+01-4.50909E+01



 n o d a l   p r i n t   o u t   f o r   t i m e  s t e p    4201                              ( at time 2.0997899E+00 )

 nodal point  x-rot      y-rot       z-rot       x-rot vel   y-rot vel   z-rot vel   x-rot acc   y-rot acc   z-rot acc
    22626 -1.97945E-04-2.48172E-06-8.61802E-07-1.50051E-04-1.59174E-06 2.08995E-06 5.99801E-05 3.01010E-05 2.39570E-05



 n o d a l   p r i n t   o u t   f o r   t i m e  s t e p    4401                              ( at time 2.1997798E+00 )

 nodal point  x-disp     y-disp      z-disp      x-vel       y-vel       z-vel      x-accl      y-accl      z-accl      x-coor      y-coor      z-coor
    22626 -7.07672E-04 6.06673E-02-1.18761E-01-4.96030E-04 4.91615E-02-9.67334E-02 6.23845E-04 9.65410E-03-1.42812E-02 4.65867E+00-2.81302E+01-4.51005E+01



 n o d a l   p r i n t   o u t   f o r   t i m e  s t e p    4401                              ( at time 2.1997798E+00 )

 nodal point  x-rot      y-rot       z-rot       x-rot vel   y-rot vel   z-rot vel   x-rot acc   y-rot acc   z-rot acc
    22626 -2.13319E-04-2.58871E-06-8.59485E-07-1.59259E-04-1.56663E-06-1.00232E-06-9.20855E-05 2.51187E-07-3.09257E-05



 n o d a l   p r i n t   o u t   f o r   t i m e  s t e p    4601                              ( at time 2.2997698E+00 )

 nodal point  x-disp     y-disp      z-disp      x-vel       y-vel       z-vel      x-accl      y-accl      z-accl      x-coor      y-coor      z-coor
    22626 -7.62814E-04 6.56143E-02-1.28510E-01-6.45529E-04 5.01834E-02-9.87440E-02-1.49514E-03 1.02202E-02-2.01080E-02 4.65861E+00-2.81252E+01-4.51102E+01



 n o d a l   p r i n t   o u t   f o r   t i m e  s t e p    4601                              ( at time 2.2997698E+00 )

 nodal point  x-rot      y-rot       z-rot       x-rot vel   y-rot vel   z-rot vel   x-rot acc   y-rot acc   z-rot acc
    22626 -2.29836E-04-2.52161E-06-8.66918E-07-1.61238E-04 8.81549E-07-9.78634E-07-1.97972E-05 2.44842E-05 2.36849E-07



 n o d a l   p r i n t   o u t   f o r   t i m e  s t e p    4801                              ( at time 2.3997598E+00 )

 nodal point  x-disp     y-disp      z-disp      x-vel       y-vel       z-vel      x-accl      y-accl      z-accl      x-coor      y-coor      z-coor
    22626 -8.37270E-04 7.07390E-02-1.38609E-01-7.68224E-04 5.20322E-02-1.03266E-01-1.22708E-03 1.84900E-02-4.52267E-02 4.65854E+00-2.81201E+01-4.51203E+01



 n o d a l   p r i n t   o u t   f o r   t i m e  s t e p    4801                              ( at time 2.3997598E+00 )

 nodal point  x-rot      y-rot       z-rot       x-rot vel   y-rot vel   z-rot vel   x-rot acc   y-rot acc   z-rot acc
    22626 -2.45590E-04-2.51440E-06-5.95679E-07-1.55328E-04-5.15300E-08 4.21064E-06 5.91103E-05-9.33173E-06 5.18980E-05



 n o d a l   p r i n t   o u t   f o r   t i m e  s t e p    5001                              ( at time 2.4997498E+00 )

 nodal point  x-disp     y-disp      z-disp      x-vel       y-vel       z-vel      x-accl      y-accl      z-accl      x-coor      y-coor      z-coor
    22626 -9.18437E-04 7.60401E-02-1.49107E-01-9.20571E-04 5.34354E-02-1.05952E-01-1.52362E-03 1.40327E-02-2.68640E-02 4.65846E+00-2.81148E+01-4.51308E+01



 n o d a l   p r i n t   o u t   f o r   t i m e  s t e p    5001                              ( at time 2.4997498E+00 )

 nodal point  x-rot      y-rot       z-rot       x-rot vel   y-rot vel   z-rot vel   x-rot acc   y-rot acc   z-rot acc
    22626 -2.61160E-04-2.39396E-06-3.33668E-07-1.54697E-04 1.73936E-06 4.40264E-06 6.30713E-06 1.79107E-05 1.92016E-06



 n o d a l   p r i n t   o u t   f o r   t i m e  s t e p    5201                              ( at time 2.5997398E+00 )

 nodal point  x-disp     y-disp      z-disp      x-vel       y-vel       z-vel      x-accl      y-accl      z-accl      x-coor      y-coor      z-coor
    22626 -1.00920E-03 8.13921E-02-1.59710E-01-9.90553E-04 5.34912E-02-1.06025E-01-6.99883E-04 5.57881E-04-7.31497E-04 4.65837E+00-2.81094E+01-4.51414E+01



 n o d a l   p r i n t   o u t   f o r   t i m e  s t e p    5201                              ( at time 2.5997398E+00 )

 nodal point  x-rot      y-rot       z-rot       x-rot vel   y-rot vel   z-rot vel   x-rot acc   y-rot acc   z-rot acc
    22626 -2.76668E-04-2.06627E-06 5.80915E-08-1.51478E-04 5.18024E-06 4.96753E-06 3.21944E-05 3.44123E-05 5.64948E-06



 n o d a l   p r i n t   o u t   f o r   t i m e  s t e p    5401                              ( at time 2.6997298E+00 )

 nodal point  x-disp     y-disp      z-disp      x-vel       y-vel       z-vel      x-accl      y-accl      z-accl      x-coor      y-coor      z-coor
    22626 -1.10732E-03 8.67282E-02-1.70314E-01-8.15234E-04 5.35635E-02-1.06229E-01 1.75336E-03 7.23225E-04-2.03048E-03 4.65827E+00-2.81041E+01-4.51520E+01



 n o d a l   p r i n t   o u t   f o r   t i m e  s t e p    5401                              ( at time 2.6997298E+00 )

 nodal point  x-rot      y-rot       z-rot       x-rot vel   y-rot vel   z-rot vel   x-rot acc   y-rot acc   z-rot acc
    22626 -2.92382E-04-1.62843E-06 5.83924E-07-1.63132E-04 5.27620E-06 3.58084E-06-1.16555E-04 9.59712E-07-1.38683E-05



 n o d a l   p r i n t   o u t   f o r   t i m e  s t e p    5601                              ( at time 2.7997198E+00 )

 nodal point  x-disp     y-disp      z-disp      x-vel       y-vel       z-vel      x-accl      y-accl      z-accl      x-coor      y-coor      z-coor
    22626 -1.19434E-03 9.21214E-02-1.80983E-01-8.86154E-04 5.42806E-02-1.07484E-01-7.09280E-04 7.17228E-03-1.25601E-02 4.65818E+00-2.80987E+01-4.51627E+01



 n o d a l   p r i n t   o u t   f o r   t i m e  s t e p    5601                              ( at time 2.7997198E+00 )

 nodal point  x-rot      y-rot       z-rot       x-rot vel   y-rot vel   z-rot vel   x-rot acc   y-rot acc   z-rot acc
    22626 -3.07868E-04-1.11603E-06 9.99614E-07-1.44597E-04 3.17775E-06 4.36222E-06 1.85368E-04-2.09866E-05 7.81458E-06



 n o d a l   p r i n t   o u t   f o r   t i m e  s t e p    5801                              ( at time 2.8997098E+00 )

 nodal point  x-disp     y-disp      z-disp      x-vel       y-vel       z-vel      x-accl      y-accl      z-accl      x-coor      y-coor      z-coor
    22626 -1.27558E-03 9.75422E-02-1.91832E-01-7.39754E-04 5.41954E-02-1.09469E-01 1.46415E-03-8.52656E-04-1.98464E-02 4.65810E+00-2.80933E+01-4.51736E+01



 n o d a l   p r i n t   o u t   f o r   t i m e  s t e p    5801                              ( at time 2.8997098E+00 )

 nodal point  x-rot      y-rot       z-rot       x-rot vel   y-rot vel   z-rot vel   x-rot acc   y-rot acc   z-rot acc
    22626 -3.21817E-04-9.21785E-07 1.29918E-06-1.40017E-04 6.09660E-07 3.68994E-06 4.58098E-05-2.56835E-05-6.72344E-06



 n o d a l   p r i n t   o u t   f o r   t i m e  s t e p    6001                              ( at time 2.9996998E+00 )

 nodal point  x-disp     y-disp      z-disp      x-vel       y-vel       z-vel      x-accl      y-accl      z-accl      x-coor      y-coor      z-coor
    22626 -1.35898E-03 1.02937E-01-2.02797E-01-7.23505E-04 5.36821E-02-1.09375E-01 1.62506E-04-5.13321E-03 9.40431E-04 4.65802E+00-2.80879E+01-4.51845E+01



 n o d a l   p r i n t   o u t   f o r   t i m e  s t e p    6001                              ( at time 2.9996998E+00 )

 nodal point  x-rot      y-rot       z-rot       x-rot vel   y-rot vel   z-rot vel   x-rot acc   y-rot acc   z-rot acc
    22626 -3.36597E-04-8.82245E-07 1.48561E-06-1.50668E-04 4.25096E-07 2.50126E-06-1.06520E-04-1.84582E-06-1.18880E-05



 n o d a l   p r i n t   o u t   f o r   t i m e  s t e p    6201                              ( at time 3.0996898E+00 )

 nodal point  x-disp     y-disp      z-disp      x-vel       y-vel       z-vel      x-accl      y-accl      z-accl      x-coor      y-coor      z-coor
    22626 -1.42707E-03 1.08302E-01-2.13691E-01-7.17054E-04 5.38268E-02-1.08982E-01 6.45175E-05 1.44686E-03 3.92864E-03 4.65795E+00-2.80825E+01-4.51954E+01



 n o d a l   p r i n t   o u t   f o r   t i m e  s t e p    6201                              ( at time 3.0996898E+00 )

 nodal point  x-rot      y-rot       z-rot       x-rot vel   y-rot vel   z-rot vel   x-rot acc   y-rot acc   z-rot acc
    22626 -3.51698E-04-7.99070E-07 1.77038E-06-1.50103E-04 3.47841E-07 5.27631E-06 5.65006E-06-7.72629E-07 2.77533E-05



 n o d a l   p r i n t   o u t   f o r   t i m e  s t e p    6401                              ( at time 3.1996798E+00 )

 nodal point  x-disp     y-disp      z-disp      x-vel       y-vel       z-vel      x-accl      y-accl      z-accl      x-coor      y-coor      z-coor
    22626 -1.48912E-03 1.13718E-01-2.24680E-01-6.03081E-04 5.45834E-02-1.10988E-01 1.13984E-03 7.56655E-03-2.00659E-02 4.65789E+00-2.80771E+01-4.52064E+01



 n o d a l   p r i n t   o u t   f o r   t i m e  s t e p    6401                              ( at time 3.1996798E+00 )

 nodal point  x-rot      y-rot       z-rot       x-rot vel   y-rot vel   z-rot vel   x-rot acc   y-rot acc   z-rot acc
    22626 -3.66701E-04-6.41653E-07 1.99157E-06-1.43815E-04 1.74110E-06 2.01644E-06 6.28799E-05 1.39340E-05-3.26019E-05



 n o d a l   p r i n t   o u t   f o r   t i m e  s t e p    6601                              ( at time 3.2996698E+00 )

 nodal point  x-disp     y-disp      z-disp      x-vel       y-vel       z-vel      x-accl      y-accl      z-accl      x-coor      y-coor      z-coor
    22626 -1.56368E-03 1.19241E-01-2.35896E-01-8.12478E-04 5.57891E-02-1.13071E-01-2.09418E-03 1.20589E-02-2.08317E-02 4.65781E+00-2.80716E+01-4.52176E+01



 n o d a l   p r i n t   o u t   f o r   t i m e  s t e p    6601                              ( at time 3.2996698E+00 )

 nodal point  x-rot      y-rot       z-rot       x-rot vel   y-rot vel   z-rot vel   x-rot acc   y-rot acc   z-rot acc
    22626 -3.81287E-04-4.48556E-07 2.29312E-06-1.43969E-04 2.38812E-06 2.34105E-06-1.53305E-06 6.47079E-06 3.24646E-06



 n o d a l   p r i n t   o u t   f o r   t i m e  s t e p    6801                              ( at time 3.3996598E+00 )

 nodal point  x-disp     y-disp      z-disp      x-vel       y-vel       z-vel      x-accl      y-accl      z-accl      x-coor      y-coor      z-coor
    22626 -1.65390E-03 1.24870E-01-2.47230E-01-1.02151E-03 5.67236E-02-1.13497E-01-2.09050E-03 9.34607E-03-4.25873E-03 4.65772E+00-2.80660E+01-4.52290E+01



 n o d a l   p r i n t   o u t   f o r   t i m e  s t e p    6801                              ( at time 3.3996598E+00 )

 nodal point  x-rot      y-rot       z-rot       x-rot vel   y-rot vel   z-rot vel   x-rot acc   y-rot acc   z-rot acc
    22626 -3.95992E-04-3.38495E-07 2.56435E-06-1.48363E-04 3.78711E-06 4.51433E-06-4.39504E-05 1.39913E-05 2.17349E-05



 n o d a l   p r i n t   o u t   f o r   t i m e  s t e p    7001                              ( at time 3.4996498E+00 )

 nodal point  x-disp     y-disp      z-disp      x-vel       y-vel       z-vel      x-accl      y-accl      z-accl      x-coor      y-coor      z-coor
    22626 -1.76260E-03 1.30590E-01-2.58544E-01-1.27010E-03 5.78635E-02-1.12843E-01-2.48614E-03 1.13996E-02 6.54458E-03 4.65761E+00-2.80602E+01-4.52403E+01



 n o d a l   p r i n t   o u t   f o r   t i m e  s t e p    7001                              ( at time 3.4996498E+00 )

 nodal point  x-rot      y-rot       z-rot       x-rot vel   y-rot vel   z-rot vel   x-rot acc   y-rot acc   z-rot acc
    22626 -4.11606E-04-1.73738E-07 2.56990E-06-1.55931E-04 2.02511E-06-2.20696E-06-7.56865E-05-1.76218E-05-6.72198E-05



 n o d a l   p r i n t   o u t   f o r   t i m e  s t e p    7201                              ( at time 3.5996397E+00 )

 nodal point  x-disp     y-disp      z-disp      x-vel       y-vel       z-vel      x-accl      y-accl      z-accl      x-coor      y-coor      z-coor
    22626 -1.88457E-03 1.36467E-01-2.69777E-01-1.21752E-03 5.96323E-02-1.12335E-01 5.25799E-04 1.76901E-02 5.07533E-03 4.65749E+00-2.80544E+01-4.52515E+01



 n o d a l   p r i n t   o u t   f o r   t i m e  s t e p    7201                              ( at time 3.5996397E+00 )

 nodal point  x-rot      y-rot       z-rot       x-rot vel   y-rot vel   z-rot vel   x-rot acc   y-rot acc   z-rot acc
    22626 -4.27730E-04 1.23830E-07 2.39082E-06-1.68183E-04 1.71527E-06-5.86450E-06-1.22533E-04-3.09867E-06-3.65790E-05



 n o d a l   p r i n t   o u t   f o r   t i m e  s t e p    7401                              ( at time 3.6996297E+00 )

 nodal point  x-disp     y-disp      z-disp      x-vel       y-vel       z-vel      x-accl      y-accl      z-accl      x-coor      y-coor      z-coor
    22626 -2.01521E-03 1.42553E-01-2.81010E-01-1.45408E-03 6.20811E-02-1.12409E-01-2.36584E-03 2.44903E-02-7.40884E-04 4.65736E+00-2.80483E+01-4.52627E+01



 n o d a l   p r i n t   o u t   f o r   t i m e  s t e p    7401                              ( at time 3.6996297E+00 )

 nodal point  x-rot      y-rot       z-rot       x-rot vel   y-rot vel   z-rot vel   x-rot acc   y-rot acc   z-rot acc
    22626 -4.45735E-04 6.54744E-08 1.64744E-06-1.87018E-04-4.86305E-06-1.55176E-05-1.88370E-04-6.57897E-05-9.65401E-05



 n o d a l   p r i n t   o u t   f o r   t i m e  s t e p    7601                              ( at time 3.7996197E+00 )

 nodal point  x-disp     y-disp      z-disp      x-vel       y-vel       z-vel      x-accl      y-accl      z-accl      x-coor      y-coor      z-coor
    22626 -2.18876E-03 1.48909E-01-2.92230E-01-1.92978E-03 6.51761E-02-1.11900E-01-4.75745E-03 3.09528E-02 5.09083E-03 4.65719E+00-2.80419E+01-4.52739E+01



 n o d a l   p r i n t   o u t   f o r   t i m e  s t e p    7601                              ( at time 3.7996197E+00 )

 nodal point  x-rot      y-rot       z-rot       x-rot vel   y-rot vel   z-rot vel   x-rot acc   y-rot acc   z-rot acc
    22626 -4.65868E-04-8.67588E-07-2.43979E-07-2.15566E-04-9.64248E-06-2.08502E-05-2.85509E-04-4.77991E-05-5.33316E-05



 n o d a l   p r i n t   o u t   f o r   t i m e  s t e p    7801                              ( at time 3.8996097E+00 )

 nodal point  x-disp     y-disp      z-disp      x-vel       y-vel       z-vel      x-accl      y-accl      z-accl      x-coor      y-coor      z-coor
    22626 -2.35310E-03 1.55611E-01-3.03370E-01-1.47775E-03 6.87223E-02-1.10634E-01 4.52076E-03 3.54661E-02 1.26634E-02 4.65702E+00-2.80352E+01-4.52851E+01



 n o d a l   p r i n t   o u t   f o r   t i m e  s t e p    7801                              ( at time 3.8996097E+00 )

 nodal point  x-rot      y-rot       z-rot       x-rot vel   y-rot vel   z-rot vel   x-rot acc   y-rot acc   z-rot acc
    22626 -4.89629E-04-1.80606E-06-2.11625E-06-2.56725E-04-7.60646E-06-1.57797E-05-4.11630E-04 2.03622E-05 5.07097E-05



 n o d a l   p r i n t   o u t   f o r   t i m e  s t e p    8001                              ( at time 3.9995997E+00 )

 nodal point  x-disp     y-disp      z-disp      x-vel       y-vel       z-vel      x-accl      y-accl      z-accl      x-coor      y-coor      z-coor
    22626 -2.50385E-03 1.62705E-01-3.14319E-01-1.93689E-03 7.34277E-02-1.08494E-01-4.59191E-03 4.70586E-02 2.14008E-02 4.65687E+00-2.80281E+01-4.52960E+01



 n o d a l   p r i n t   o u t   f o r   t i m e  s t e p    8001                              ( at time 3.9995997E+00 )

 nodal point  x-rot      y-rot       z-rot       x-rot vel   y-rot vel   z-rot vel   x-rot acc   y-rot acc   z-rot acc
    22626 -5.17732E-04-3.05535E-06-4.64039E-06-2.93812E-04-2.09797E-05-3.54878E-05-3.70898E-04-1.33746E-04-1.97100E-04



 n o d a l   p r i n t   o u t   f o r   t i m e  s t e p    8201                              ( at time 4.0995897E+00 )

 nodal point  x-disp     y-disp      z-disp      x-vel       y-vel       z-vel      x-accl      y-accl      z-accl      x-coor      y-coor      z-coor
    22626 -2.76105E-03 1.70342E-01-3.25144E-01-2.68314E-03 7.92934E-02-1.08245E-01-7.46322E-03 5.86632E-02 2.49358E-03 4.65661E+00-2.80205E+01-4.53069E+01



 n o d a l   p r i n t   o u t   f o r   t i m e  s t e p    8201                              ( at time 4.0995897E+00 )

 nodal point  x-rot      y-rot       z-rot       x-rot vel   y-rot vel   z-rot vel   x-rot acc   y-rot acc   z-rot acc
    22626 -5.49477E-04-5.47075E-06-8.66618E-06-3.36852E-04-2.70349E-05-4.23902E-05-4.30443E-04-6.05587E-05-6.90314E-05



 n o d a l   p r i n t   o u t   f o r   t i m e  s t e p    8401                              ( at time 4.1995797E+00 )

 nodal point  x-disp     y-disp      z-disp      x-vel       y-vel       z-vel      x-accl      y-accl      z-accl      x-coor      y-coor      z-coor
    22626 -3.02261E-03 1.78643E-01-3.35956E-01-2.71153E-03 8.68889E-02-1.07823E-01-2.83942E-04 7.59626E-02 4.22014E-03 4.65635E+00-2.80122E+01-4.53177E+01



 n o d a l   p r i n t   o u t   f o r   t i m e  s t e p    8401                              ( at time 4.1995797E+00 )

 nodal point  x-rot      y-rot       z-rot       x-rot vel   y-rot vel   z-rot vel   x-rot acc   y-rot acc   z-rot acc
    22626 -5.86332E-04-7.84302E-06-1.29340E-05-3.98723E-04-2.08816E-05-4.55342E-05-6.18773E-04 6.15399E-05-3.14429E-05



 n o d a l   p r i n t   o u t   f o r   t i m e  s t e p    8601                              ( at time 4.2995697E+00 )

 nodal point  x-disp     y-disp      z-disp      x-vel       y-vel       z-vel      x-accl      y-accl      z-accl      x-coor      y-coor      z-coor
    22626 -3.33480E-03 1.87686E-01-3.46668E-01-3.53218E-03 9.42440E-02-1.06258E-01-8.20726E-03 7.35586E-02 1.56538E-02 4.65604E+00-2.80031E+01-4.53284E+01



 n o d a l   p r i n t   o u t   f o r   t i m e  s t e p    8601                              ( at time 4.2995697E+00 )

 nodal point  x-rot      y-rot       z-rot       x-rot vel   y-rot vel   z-rot vel   x-rot acc   y-rot acc   z-rot acc
    22626 -6.28868E-04-1.05152E-05-1.80936E-05-4.54627E-04-2.77963E-05-5.03532E-05-5.59099E-04-6.91546E-05-4.81950E-05



 n o d a l   p r i n t   o u t   f o r   t i m e  s t e p    8801                              ( at time 4.3995597E+00 )

 nodal point  x-disp     y-disp      z-disp      x-vel       y-vel       z-vel      x-accl      y-accl      z-accl      x-coor      y-coor      z-coor
    22626 -3.70640E-03 1.97497E-01-3.57171E-01-3.37371E-03 1.02250E-01-1.03924E-01 1.58481E-03 8.00659E-02 2.33378E-02 4.65567E+00-2.79933E+01-4.53389E+01



 n o d a l   p r i n t   o u t   f o r   t i m e  s t e p    8801                              ( at time 4.3995597E+00 )

 nodal point  x-rot      y-rot       z-rot       x-rot vel   y-rot vel   z-rot vel   x-rot acc   y-rot acc   z-rot acc
    22626 -6.77831E-04-1.35245E-05-2.30480E-05-5.22474E-04-2.75877E-05-4.64425E-05-6.78538E-04 2.08656E-06 3.91111E-05



 n o d a l   p r i n t   o u t   f o r   t i m e  s t e p    9001                              ( at time 4.4995497E+00 )

 nodal point  x-disp     y-disp      z-disp      x-vel       y-vel       z-vel      x-accl      y-accl      z-accl      x-coor      y-coor      z-coor
    22626 -4.02936E-03 2.08224E-01-3.67515E-01-3.39816E-03 1.12545E-01-1.03050E-01-2.44549E-04 1.02962E-01 8.74209E-03 4.65535E+00-2.79826E+01-4.53492E+01



 n o d a l   p r i n t   o u t   f o r   t i m e  s t e p    9001                              ( at time 4.4995497E+00 )

 nodal point  x-rot      y-rot       z-rot       x-rot vel   y-rot vel   z-rot vel   x-rot acc   y-rot acc   z-rot acc
    22626 -7.34782E-04-1.56797E-05-2.74669E-05-6.05141E-04-2.27208E-05-4.61937E-05-8.26755E-04 4.86738E-05 2.48760E-06



 n o d a l   p r i n t   o u t   f o r   t i m e  s t e p    9201                              ( at time 4.5995397E+00 )

 nodal point  x-disp     y-disp      z-disp      x-vel       y-vel       z-vel      x-accl      y-accl      z-accl      x-coor      y-coor      z-coor
    22626 -4.40034E-03 2.20044E-01-3.77837E-01-4.16613E-03 1.23911E-01-1.02803E-01-7.68046E-03 1.13675E-01 2.46870E-03 4.65497E+00-2.79708E+01-4.53596E+01



 n o d a l   p r i n t   o u t   f o r   t i m e  s t e p    9201                              ( at time 4.5995397E+00 )

 nodal point  x-rot      y-rot       z-rot       x-rot vel   y-rot vel   z-rot vel   x-rot acc   y-rot acc   z-rot acc
    22626 -7.99639E-04-1.83796E-05-3.23709E-05-6.84523E-04-3.81373E-05-5.42178E-05-7.93898E-04-1.54180E-04-8.02490E-05



 n o d a l   p r i n t   o u t   f o r   t i m e  s t e p    9401                              ( at time 4.6995297E+00 )

 nodal point  x-disp     y-disp      z-disp      x-vel       y-vel       z-vel      x-accl      y-accl      z-accl      x-coor      y-coor      z-coor
    22626 -4.82666E-03 2.33005E-01-3.88094E-01-4.05826E-03 1.35993E-01-1.01910E-01 1.07885E-03 1.20826E-01 8.93750E-03 4.65455E+00-2.79578E+01-4.53698E+01



 n o d a l   p r i n t   o u t   f o r   t i m e  s t e p    9401                              ( at time 4.6995297E+00 )

 nodal point  x-rot      y-rot       z-rot       x-rot vel   y-rot vel   z-rot vel   x-rot acc   y-rot acc   z-rot acc
    22626 -8.73240E-04-2.24737E-05-3.82683E-05-7.89530E-04-3.69551E-05-6.08838E-05-1.05017E-03 1.18228E-05-6.66661E-05



 n o d a l   p r i n t   o u t   f o r   t i m e  s t e p    9601                              ( at time 4.7995197E+00 )

 nodal point  x-disp     y-disp      z-disp      x-vel       y-vel       z-vel      x-accl      y-accl      z-accl      x-coor      y-coor      z-coor
    22626 -5.23302E-03 2.47229E-01-3.98203E-01-3.77635E-03 1.48846E-01-1.00143E-01 2.81938E-03 1.28545E-01 1.76667E-02 4.65414E+00-2.79436E+01-4.53799E+01



 n o d a l   p r i n t   o u t   f o r   t i m e  s t e p    9601                              ( at time 4.7995197E+00 )

 nodal point  x-rot      y-rot       z-rot       x-rot vel   y-rot vel   z-rot vel   x-rot acc   y-rot acc   z-rot acc
    22626 -9.57479E-04-2.58256E-05-4.41216E-05-9.00229E-04-2.66416E-05-4.63892E-05-1.10710E-03 1.03145E-04 1.44961E-04



 n o d a l   p r i n t   o u t   f o r   t i m e  s t e p    9801                              ( at time 4.8995097E+00 )

 nodal point  x-disp     y-disp      z-disp      x-vel       y-vel       z-vel      x-accl      y-accl      z-accl      x-coor      y-coor      z-coor
    22626 -5.62112E-03 2.62822E-01-4.08111E-01-4.46035E-03 1.62815E-01-9.85217E-02-6.84075E-03 1.39701E-01 1.62153E-02 4.65375E+00-2.79280E+01-4.53898E+01



 n o d a l   p r i n t   o u t   f o r   t i m e  s t e p    9801                              ( at time 4.8995097E+00 )

 nodal point  x-rot      y-rot       z-rot       x-rot vel   y-rot vel   z-rot vel   x-rot acc   y-rot acc   z-rot acc
    22626 -1.05209E-03-2.93914E-05-4.92171E-05-9.95096E-04-5.03319E-05-6.19792E-05-9.48769E-04-2.36927E-04-1.55916E-04



 n o d a l   p r i n t   o u t   f o r   t i m e  s t e p   10001                              ( at time 4.9994997E+00 )

 nodal point  x-disp     y-disp      z-disp      x-vel       y-vel       z-vel      x-accl      y-accl      z-accl      x-coor      y-coor      z-coor
    22626 -6.12133E-03 2.79839E-01-4.17959E-01-5.73081E-03 1.77867E-01-9.86880E-02-1.27058E-02 1.50537E-01-1.66298E-03 4.65325E+00-2.79110E+01-4.53997E+01



 n o d a l   p r i n t   o u t   f o r   t i m e  s t e p   10001                              ( at time 4.9994997E+00 )

 nodal point  x-rot      y-rot       z-rot       x-rot vel   y-rot vel   z-rot vel   x-rot acc   y-rot acc   z-rot acc
    22626 -1.15683E-03-3.47148E-05-5.70317E-05-1.10876E-03-5.19982E-05-8.87370E-05-1.13680E-03-1.66645E-05-2.67604E-04



 n o d a l   p r i n t   o u t   f o r   t i m e  s t e p   10202                              ( at time 5.0999896E+00 )

 nodal point  x-disp     y-disp      z-disp      x-vel       y-vel       z-vel      x-accl      y-accl      z-accl      x-coor      y-coor      z-coor
    22626 -6.69054E-03 2.98522E-01-4.27832E-01-5.36439E-03 1.93573E-01-9.74015E-02 3.64635E-03 1.56301E-01 1.28019E-02 4.65268E+00-2.78923E+01-4.54096E+01



 n o d a l   p r i n t   o u t   f o r   t i m e  s t e p   10202                              ( at time 5.0999896E+00 )

 nodal point  x-rot      y-rot       z-rot       x-rot vel   y-rot vel   z-rot vel   x-rot acc   y-rot acc   z-rot acc
    22626 -1.27450E-03-3.94606E-05-6.48287E-05-1.23685E-03-3.98138E-05-6.39300E-05-1.27463E-03 1.21250E-04 2.46861E-04



 n o d a l   p r i n t   o u t   f o r   t i m e  s t e p   10402                              ( at time 5.1999796E+00 )

 nodal point  x-disp     y-disp      z-disp      x-vel       y-vel       z-vel      x-accl      y-accl      z-accl      x-coor      y-coor      z-coor
    22626 -7.22226E-03 3.18638E-01-4.37454E-01-5.17986E-03 2.08845E-01-9.57770E-02 1.84555E-03 1.52733E-01 1.62465E-02 4.65215E+00-2.78722E+01-4.54192E+01



 n o d a l   p r i n t   o u t   f o r   t i m e  s t e p   10402                              ( at time 5.1999796E+00 )

 nodal point  x-rot      y-rot       z-rot       x-rot vel   y-rot vel   z-rot vel   x-rot acc   y-rot acc   z-rot acc
    22626 -1.40351E-03-4.40237E-05-7.09417E-05-1.34946E-03-4.33249E-05-6.32802E-05-1.12623E-03-3.51145E-05 6.49886E-06



 n o d a l   p r i n t   o u t   f o r   t i m e  s t e p   10602                              ( at time 5.2999696E+00 )

 nodal point  x-disp     y-disp      z-disp      x-vel       y-vel       z-vel      x-accl      y-accl      z-accl      x-coor      y-coor      z-coor
    22626 -7.79049E-03 3.40397E-01-4.47002E-01-6.42157E-03 2.25994E-01-9.50542E-02-1.24184E-02 1.71509E-01 7.22936E-03 4.65158E+00-2.78504E+01-4.54287E+01



 n o d a l   p r i n t   o u t   f o r   t i m e  s t e p   10602                              ( at time 5.2999696E+00 )

 nodal point  x-rot      y-rot       z-rot       x-rot vel   y-rot vel   z-rot vel   x-rot acc   y-rot acc   z-rot acc
    22626 -1.54442E-03-4.88949E-05-7.81789E-05-1.47344E-03-5.43723E-05-7.84033E-05-1.23986E-03-1.10485E-04-1.51246E-04



 n o d a l   p r i n t   o u t   f o r   t i m e  s t e p   10802                              ( at time 5.3999596E+00 )

 nodal point  x-disp     y-disp      z-disp      x-vel       y-vel       z-vel      x-accl      y-accl      z-accl      x-coor      y-coor      z-coor
    22626 -8.49076E-03 3.63820E-01-4.56375E-01-7.32522E-03 2.42953E-01-9.25432E-02-9.03747E-03 1.69600E-01 2.51122E-02 4.65088E+00-2.78270E+01-4.54381E+01



 n o d a l   p r i n t   o u t   f o r   t i m e  s t e p   10802                              ( at time 5.3999596E+00 )

 nodal point  x-rot      y-rot       z-rot       x-rot vel   y-rot vel   z-rot vel   x-rot acc   y-rot acc   z-rot acc
    22626 -1.69834E-03-5.43517E-05-8.61710E-05-1.60261E-03-5.74545E-05-7.43795E-05-1.29190E-03-3.08255E-05 4.02420E-05



 n o d a l   p r i n t   o u t   f o r   t i m e  s t e p   11002                              ( at time 5.4999496E+00 )

 nodal point  x-disp     y-disp      z-disp      x-vel       y-vel       z-vel      x-accl      y-accl      z-accl      x-coor      y-coor      z-coor
    22626 -9.12813E-03 3.88957E-01-4.65598E-01-5.31515E-03 2.59937E-01-9.15482E-02 2.01028E-02 1.69864E-01 9.95133E-03 4.65025E+00-2.78019E+01-4.54473E+01



 n o d a l   p r i n t   o u t   f o r   t i m e  s t e p   11002                              ( at time 5.4999496E+00 )

 nodal point  x-rot      y-rot       z-rot       x-rot vel   y-rot vel   z-rot vel   x-rot acc   y-rot acc   z-rot acc
    22626 -1.86514E-03-5.89190E-05-9.26709E-05-1.73180E-03-3.79631E-05-5.83533E-05-1.29198E-03 1.94934E-04 1.60279E-04



 n o d a l   p r i n t   o u t   f o r   t i m e  s t e p   11202                              ( at time 5.5999396E+00 )

 nodal point  x-disp     y-disp      z-disp      x-vel       y-vel       z-vel      x-accl      y-accl      z-accl      x-coor      y-coor      z-coor
    22626 -9.69578E-03 4.15845E-01-4.74627E-01-6.50321E-03 2.77810E-01-8.90451E-02-1.18818E-02 1.78743E-01 2.50334E-02 4.64968E+00-2.77750E+01-4.54563E+01



 n o d a l   p r i n t   o u t   f o r   t i m e  s t e p   11202                              ( at time 5.5999396E+00 )

 nodal point  x-rot      y-rot       z-rot       x-rot vel   y-rot vel   z-rot vel   x-rot acc   y-rot acc   z-rot acc
    22626 -2.04513E-03-6.35349E-05-9.87267E-05-1.87059E-03-5.27090E-05-6.73261E-05-1.38800E-03-1.47474E-04-8.97369E-05



 n o d a l   p r i n t   o u t   f o r   t i m e  s t e p   11402                              ( at time 5.6999296E+00 )

 nodal point  x-disp     y-disp      z-disp      x-vel       y-vel       z-vel      x-accl      y-accl      z-accl      x-coor      y-coor      z-coor
    22626 -1.04227E-02 4.44502E-01-4.83330E-01-7.44452E-03 2.95116E-01-8.53803E-02-9.41402E-03 1.73075E-01 3.66509E-02 4.64895E+00-2.77463E+01-4.54650E+01



 n o d a l   p r i n t   o u t   f o r   t i m e  s t e p   11402                              ( at time 5.6999296E+00 )

 nodal point  x-rot      y-rot       z-rot       x-rot vel   y-rot vel   z-rot vel   x-rot acc   y-rot acc   z-rot acc
    22626 -2.23857E-03-6.99583E-05-1.06377E-04-2.00728E-03-6.11086E-05-7.90878E-05-1.36709E-03-8.40047E-05-1.17628E-04



 n o d a l   p r i n t   o u t   f o r   t i m e  s t e p   11602                              ( at time 5.7999195E+00 )

 nodal point  x-disp     y-disp      z-disp      x-vel       y-vel       z-vel      x-accl      y-accl      z-accl      x-coor      y-coor      z-coor
    22626 -1.10686E-02 4.74967E-01-4.91627E-01-5.61501E-03 3.14250E-01-8.13430E-02 1.82969E-02 1.91362E-01 4.03776E-02 4.64831E+00-2.77159E+01-4.54733E+01



 n o d a l   p r i n t   o u t   f o r   t i m e  s t e p   11602                              ( at time 5.7999195E+00 )

 nodal point  x-rot      y-rot       z-rot       x-rot vel   y-rot vel   z-rot vel   x-rot acc   y-rot acc   z-rot acc
    22626 -2.44564E-03-7.41397E-05-1.12377E-04-2.14304E-03-3.17003E-05-4.91283E-05-1.35769E-03 2.94113E-04 2.99625E-04



 n o d a l   p r i n t   o u t   f o r   t i m e  s t e p   11802                              ( at time 5.8999095E+00 )

 nodal point  x-disp     y-disp      z-disp      x-vel       y-vel       z-vel      x-accl      y-accl      z-accl      x-coor      y-coor      z-coor
    22626 -1.16155E-02 5.07298E-01-4.99674E-01-6.14173E-03 3.32636E-01-7.90415E-02-5.26780E-03 1.83882E-01 2.30168E-02 4.64776E+00-2.76835E+01-4.54814E+01



 n o d a l   p r i n t   o u t   f o r   t i m e  s t e p   11802                              ( at time 5.8999095E+00 )

 nodal point  x-rot      y-rot       z-rot       x-rot vel   y-rot vel   z-rot vel   x-rot acc   y-rot acc   z-rot acc
    22626 -2.66671E-03-7.80406E-05-1.17040E-04-2.27890E-03-5.75346E-05-5.63840E-05-1.35874E-03-2.58369E-04-7.25646E-05



 n o d a l   p r i n t   o u t   f o r   t i m e  s t e p   12002                              ( at time 5.9998995E+00 )

 nodal point  x-disp     y-disp      z-disp      x-vel       y-vel       z-vel      x-accl      y-accl      z-accl      x-coor      y-coor      z-coor
    22626 -1.23147E-02 5.41504E-01-5.07451E-01-7.37049E-03 3.51961E-01-7.57260E-02-1.22888E-02 1.93266E-01 3.31589E-02 4.64706E+00-2.76493E+01-4.54892E+01



 n o d a l   p r i n t   o u t   f o r   t i m e  s t e p   12002                              ( at time 5.9998995E+00 )

 nodal point  x-rot      y-rot       z-rot       x-rot vel   y-rot vel   z-rot vel   x-rot acc   y-rot acc   z-rot acc
    22626 -2.90231E-03-8.42484E-05-1.23949E-04-2.43037E-03-5.53241E-05-6.32713E-05-1.51484E-03 2.21065E-05-6.88798E-05



 n o d a l   p r i n t   o u t   f o r   t i m e  s t e p   12202                              ( at time 6.0998895E+00 )

 nodal point  x-disp     y-disp      z-disp      x-vel       y-vel       z-vel      x-accl      y-accl      z-accl      x-coor      y-coor      z-coor
    22626 -1.30214E-02 5.77663E-01-5.14803E-01-5.89472E-03 3.70846E-01-7.11698E-02 1.47591E-02 1.88874E-01 4.55668E-02 4.64635E+00-2.76132E+01-4.54965E+01



 n o d a l   p r i n t   o u t   f o r   t i m e  s t e p   12202                              ( at time 6.0998895E+00 )

 nodal point  x-rot      y-rot       z-rot       x-rot vel   y-rot vel   z-rot vel   x-rot acc   y-rot acc   z-rot acc
    22626 -3.15295E-03-8.83055E-05-1.28827E-04-2.58243E-03-2.57630E-05-3.48521E-05-1.52075E-03 2.95640E-04 2.84219E-04



 n o d a l   p r i n t   o u t   f o r   t i m e  s t e p   12402                              ( at time 6.1998795E+00 )

 nodal point  x-disp     y-disp      z-disp      x-vel       y-vel       z-vel      x-accl      y-accl      z-accl      x-coor      y-coor      z-coor
    22626 -1.35975E-02 6.15718E-01-5.21717E-01-6.32166E-03 3.90541E-01-6.77932E-02-4.26985E-03 1.96967E-01 3.37688E-02 4.64578E+00-2.75751E+01-4.55034E+01



 n o d a l   p r i n t   o u t   f o r   t i m e  s t e p   12402                              ( at time 6.1998795E+00 )

 nodal point  x-rot      y-rot       z-rot       x-rot vel   y-rot vel   z-rot vel   x-rot acc   y-rot acc   z-rot acc
    22626 -3.41763E-03-9.13450E-05-1.32829E-04-2.72520E-03-4.52218E-05-5.13330E-05-1.42792E-03-1.94608E-04-1.64826E-04



 n o d a l   p r i n t   o u t   f o r   t i m e  s t e p   12602                              ( at time 6.2998695E+00 )

 nodal point  x-disp     y-disp      z-disp      x-vel       y-vel       z-vel      x-accl      y-accl      z-accl      x-coor      y-coor      z-coor
    22626 -1.43078E-02 6.55800E-01-5.28356E-01-7.87187E-03 4.11014E-01-6.44724E-02-1.55036E-02 2.04754E-01 3.32112E-02 4.64507E+00-2.75350E+01-4.55101E+01



 n o d a l   p r i n t   o u t   f o r   t i m e  s t e p   12602                              ( at time 6.2998695E+00 )

 nodal point  x-rot      y-rot       z-rot       x-rot vel   y-rot vel   z-rot vel   x-rot acc   y-rot acc   z-rot acc
    22626 -3.69768E-03-9.66934E-05-1.38602E-04-2.87376E-03-5.40321E-05-5.51633E-05-1.48570E-03-8.81120E-05-3.83061E-05



 n o d a l   p r i n t   o u t   f o r   t i m e  s t e p   12802                              ( at time 6.3998595E+00 )

 nodal point  x-disp     y-disp      z-disp      x-vel       y-vel       z-vel      x-accl      y-accl      z-accl      x-coor      y-coor      z-coor
    22626 -1.49937E-02 6.97870E-01-5.34533E-01-5.77997E-03 4.30772E-01-5.86672E-02 2.09211E-02 1.97598E-01 5.80586E-02 4.64438E+00-2.74930E+01-4.55163E+01



 n o d a l   p r i n t   o u t   f o r   t i m e  s t e p   12802                              ( at time 6.3998595E+00 )

 nodal point  x-rot      y-rot       z-rot       x-rot vel   y-rot vel   z-rot vel   x-rot acc   y-rot acc   z-rot acc
    22626 -3.99201E-03-1.00102E-04-1.42294E-04-3.01255E-03-1.50575E-05-2.03093E-05-1.38806E-03 3.89785E-04 3.48575E-04



 n o d a l   p r i n t   o u t   f o r   t i m e  s t e p   13002                              ( at time 6.4998495E+00 )

 nodal point  x-disp     y-disp      z-disp      x-vel       y-vel       z-vel      x-accl      y-accl      z-accl      x-coor      y-coor      z-coor
    22626 -1.55565E-02 7.41900E-01-5.40137E-01-5.40357E-03 4.49870E-01-5.32591E-02 3.76439E-03 1.90993E-01 5.40865E-02 4.64382E+00-2.74489E+01-4.55219E+01



 n o d a l   p r i n t   o u t   f o r   t i m e  s t e p   13002                              ( at time 6.4998495E+00 )

 nodal point  x-rot      y-rot       z-rot       x-rot vel   y-rot vel   z-rot vel   x-rot acc   y-rot acc   z-rot acc
    22626 -4.30211E-03-1.02061E-04-1.44462E-04-3.18278E-03-2.79410E-05-2.96129E-05-1.70248E-03-1.28848E-04-9.30455E-05



 n o d a l   p r i n t   o u t   f o r   t i m e  s t e p   13202                              ( at time 6.5998395E+00 )

 nodal point  x-disp     y-disp      z-disp      x-vel       y-vel       z-vel      x-accl      y-accl      z-accl      x-coor      y-coor      z-coor
    22626 -1.61648E-02 7.87843E-01-5.45145E-01-6.84201E-03 4.69320E-01-4.69884E-02-1.43858E-02 1.94520E-01 6.27122E-02 4.64321E+00-2.74030E+01-4.55269E+01



 n o d a l   p r i n t   o u t   f o r   t i m e  s t e p   13202                              ( at time 6.5998395E+00 )

 nodal point  x-rot      y-rot       z-rot       x-rot vel   y-rot vel   z-rot vel   x-rot acc   y-rot acc   z-rot acc
    22626 -4.62731E-03-1.06541E-04-1.48094E-04-3.31771E-03-4.68324E-05-3.38024E-05-1.34944E-03-1.88932E-04-4.18986E-05



 n o d a l   p r i n t   o u t   f o r   t i m e  s t e p   13402                              ( at time 6.6998295E+00 )

 nodal point  x-disp     y-disp      z-disp      x-vel       y-vel       z-vel      x-accl      y-accl      z-accl      x-coor      y-coor      z-coor
    22626 -1.68055E-02 8.35788E-01-5.49503E-01-5.72925E-03 4.89112E-01-4.03151E-02 1.11287E-02 1.97943E-01 6.67402E-02 4.64257E+00-2.73550E+01-4.55312E+01



 n o d a l   p r i n t   o u t   f o r   t i m e  s t e p   13402                              ( at time 6.6998295E+00 )

 nodal point  x-rot      y-rot       z-rot       x-rot vel   y-rot vel   z-rot vel   x-rot acc   y-rot acc   z-rot acc
    22626 -4.96646E-03-1.09282E-04-1.50627E-04-3.47683E-03-1.35892E-05-2.20947E-05-1.59131E-03 3.32465E-04 1.17089E-04



 n o d a l   p r i n t   o u t   f o r   t i m e  s t e p   13602                              ( at time 6.7998195E+00 )

 nodal point  x-disp     y-disp      z-disp      x-vel       y-vel       z-vel      x-accl      y-accl      z-accl      x-coor      y-coor      z-coor
    22626 -1.72908E-02 8.85654E-01-5.53204E-01-4.69279E-03 5.08667E-01-3.35421E-02 1.03657E-02 1.95565E-01 6.77372E-02 4.64208E+00-2.73052E+01-4.55349E+01



 n o d a l   p r i n t   o u t   f o r   t i m e  s t e p   13602                              ( at time 6.7998195E+00 )

 nodal point  x-rot      y-rot       z-rot       x-rot vel   y-rot vel   z-rot vel   x-rot acc   y-rot acc   z-rot acc
    22626 -5.32285E-03-1.10755E-04-1.52272E-04-3.64970E-03-2.54807E-05-1.18358E-05-1.72889E-03-1.18927E-04 1.02599E-04



 n o d a l   p r i n t   o u t   f o r   t i m e  s t e p   13802                              ( at time 6.8998095E+00 )

 nodal point  x-disp     y-disp      z-disp      x-vel       y-vel       z-vel      x-accl      y-accl      z-accl      x-coor      y-coor      z-coor
    22626 -1.78317E-02 9.37550E-01-5.56220E-01-5.73838E-03 5.29134E-01-2.64790E-02-1.04570E-02 2.04696E-01 7.06372E-02 4.64154E+00-2.72533E+01-4.55379E+01



 n o d a l   p r i n t   o u t   f o r   t i m e  s t e p   13802                              ( at time 6.8998095E+00 )

 nodal point  x-rot      y-rot       z-rot       x-rot vel   y-rot vel   z-rot vel   x-rot acc   y-rot acc   z-rot acc
    22626 -5.69477E-03-1.13900E-04-1.53605E-04-3.79706E-03-3.03716E-05-1.44171E-05-1.47380E-03-4.89139E-05-2.58158E-05



 n o d a l   p r i n t   o u t   f o r   t i m e  s t e p   14002                              ( at time 6.9997995E+00 )

 nodal point  x-disp     y-disp      z-disp      x-vel       y-vel       z-vel      x-accl      y-accl      z-accl      x-coor      y-coor      z-coor
    22626 -1.83891E-02 9.91415E-01-5.58435E-01-5.53918E-03 5.48316E-01-1.79698E-02 1.99220E-03 1.91835E-01 8.51013E-02 4.64099E+00-2.71994E+01-4.55402E+01



 n o d a l   p r i n t   o u t   f o r   t i m e  s t e p   14002                              ( at time 6.9997995E+00 )

 nodal point  x-rot      y-rot       z-rot       x-rot vel   y-rot vel   z-rot vel   x-rot acc   y-rot acc   z-rot acc
    22626 -6.08230E-03-1.16021E-04-1.55402E-04-3.95807E-03-1.37567E-05-1.41570E-05-1.61017E-03 1.66166E-04 2.60134E-06



 n o d a l   p r i n t   o u t   f o r   t i m e  s t e p   14202                              ( at time 7.0997895E+00 )

 nodal point  x-disp     y-disp      z-disp      x-vel       y-vel       z-vel      x-accl      y-accl      z-accl      x-coor      y-coor      z-coor
    22626 -1.89053E-02 1.04730E+00-5.59822E-01-4.66511E-03 5.69212E-01-9.75003E-03 8.74157E-03 2.08980E-01 8.22054E-02 4.64047E+00-2.71435E+01-4.55415E+01



 n o d a l   p r i n t   o u t   f o r   t i m e  s t e p   14202                              ( at time 7.0997895E+00 )

 nodal point  x-rot      y-rot       z-rot       x-rot vel   y-rot vel   z-rot vel   x-rot acc   y-rot acc   z-rot acc
    22626 -6.48608E-03-1.16990E-04-1.55459E-04-4.12250E-03-7.80359E-06 6.18485E-06-1.64447E-03 5.95373E-05 2.03438E-04



 n o d a l   p r i n t   o u t   f o r   t i m e  s t e p   14402                              ( at time 7.1997794E+00 )

 nodal point  x-disp     y-disp      z-disp      x-vel       y-vel       z-vel      x-accl      y-accl      z-accl      x-coor      y-coor      z-coor
    22626 -1.93418E-02 1.10518E+00-5.60348E-01-4.68214E-03 5.88767E-01-6.01001E-04-1.70305E-04 1.95570E-01 9.14996E-02 4.64003E+00-2.70856E+01-4.55421E+01



 n o d a l   p r i n t   o u t   f o r   t i m e  s t e p   14402                              ( at time 7.1997794E+00 )

 nodal point  x-rot      y-rot       z-rot       x-rot vel   y-rot vel   z-rot vel   x-rot acc   y-rot acc   z-rot acc
    22626 -6.90619E-03-1.17957E-04-1.54738E-04-4.27835E-03-7.13861E-06 5.31467E-06-1.55870E-03 6.65052E-06-8.70272E-06



 n o d a l   p r i n t   o u t   f o r   t i m e  s t e p   14602                              ( at time 7.2997694E+00 )

 nodal point  x-disp     y-disp      z-disp      x-vel       y-vel       z-vel      x-accl      y-accl      z-accl      x-coor      y-coor      z-coor
    22626 -1.98131E-02 1.16500E+00-5.59904E-01-4.47692E-03 6.07744E-01 1.00728E-02 2.05245E-03 1.89791E-01 1.06749E-01 4.63956E+00-2.70258E+01-4.55416E+01



 n o d a l   p r i n t   o u t   f o r   t i m e  s t e p   14602                              ( at time 7.2997694E+00 )

 nodal point  x-rot      y-rot       z-rot       x-rot vel   y-rot vel   z-rot vel   x-rot acc   y-rot acc   z-rot acc
    22626 -7.34204E-03-1.18514E-04-1.53909E-04-4.43653E-03-1.30605E-06 1.60687E-05-1.58191E-03 5.83315E-05 1.07551E-04



 n o d a l   p r i n t   o u t   f o r   t i m e  s t e p   14802                              ( at time 7.3997594E+00 )

 nodal point  x-disp     y-disp      z-disp      x-vel       y-vel       z-vel      x-accl      y-accl      z-accl      x-coor      y-coor      z-coor
    22626 -2.02202E-02 1.22673E+00-5.58289E-01-3.42955E-03 6.26885E-01 2.19392E-02 1.04747E-02 1.91427E-01 1.18676E-01 4.63915E+00-2.69641E+01-4.55400E+01



 n o d a l   p r i n t   o u t   f o r   t i m e  s t e p   14802                              ( at time 7.3997594E+00 )

 nodal point  x-rot      y-rot       z-rot       x-rot vel   y-rot vel   z-rot vel   x-rot acc   y-rot acc   z-rot acc
    22626 -7.79467E-03-1.18650E-04-1.51718E-04-4.61533E-03 5.50127E-06 2.60007E-05-1.78820E-03 6.80801E-05 9.93302E-05



 n o d a l   p r i n t   o u t   f o r   t i m e  s t e p   15002                              ( at time 7.4997494E+00 )

 nodal point  x-disp     y-disp      z-disp      x-vel       y-vel       z-vel      x-accl      y-accl      z-accl      x-coor      y-coor      z-coor
    22626 -2.05463E-02 1.29036E+00-5.55494E-01-3.26793E-03 6.45738E-01 3.37588E-02 1.61644E-03 1.88549E-01 1.18207E-01 4.63883E+00-2.69005E+01-4.55372E+01



 n o d a l   p r i n t   o u t   f o r   t i m e  s t e p   15002                              ( at time 7.4997494E+00 )

 nodal point  x-rot      y-rot       z-rot       x-rot vel   y-rot vel   z-rot vel   x-rot acc   y-rot acc   z-rot acc
    22626 -8.26409E-03-1.17829E-04-1.49497E-04-4.77560E-03 3.75415E-06 1.49018E-05-1.60283E-03-1.74730E-05-1.11000E-04



 n o d a l   p r i n t   o u t   f o r   t i m e  s t e p   15202                              ( at time 7.5997394E+00 )

 nodal point  x-disp     y-disp      z-disp      x-vel       y-vel       z-vel      x-accl      y-accl      z-accl      x-coor      y-coor      z-coor
    22626 -2.09023E-02 1.35591E+00-5.51506E-01-3.97781E-03 6.64666E-01 4.58865E-02-7.09951E-03 1.89298E-01 1.21289E-01 4.63847E+00-2.68349E+01-4.55332E+01



 n o d a l   p r i n t   o u t   f o r   t i m e  s t e p   15202                              ( at time 7.5997394E+00 )

 nodal point  x-rot      y-rot       z-rot       x-rot vel   y-rot vel   z-rot vel   x-rot acc   y-rot acc   z-rot acc
    22626 -8.74942E-03-1.18291E-04-1.48269E-04-4.93415E-03-1.33176E-05 1.21687E-05-1.58572E-03-1.70735E-04-2.73343E-05



 n o d a l   p r i n t   o u t   f o r   t i m e  s t e p   15402                              ( at time 7.6997294E+00 )

 nodal point  x-disp     y-disp      z-disp      x-vel       y-vel       z-vel      x-accl      y-accl      z-accl      x-coor      y-coor      z-coor
    22626 -2.12945E-02 1.42332E+00-5.46334E-01-3.50968E-03 6.83279E-01 5.77567E-02 4.68172E-03 1.86155E-01 1.18714E-01 4.63808E+00-2.67675E+01-4.55281E+01



 n o d a l   p r i n t   o u t   f o r   t i m e  s t e p   15402                              ( at time 7.6997294E+00 )

 nodal point  x-rot      y-rot       z-rot       x-rot vel   y-rot vel   z-rot vel   x-rot acc   y-rot acc   z-rot acc
    22626 -9.25134E-03-1.18991E-04-1.46891E-04-5.10768E-03-5.50412E-08 1.30991E-05-1.73549E-03 1.32639E-04 9.30515E-06



 n o d a l   p r i n t   o u t   f o r   t i m e  s t e p   15602                              ( at time 7.7997194E+00 )

 nodal point  x-disp     y-disp      z-disp      x-vel       y-vel       z-vel      x-accl      y-accl      z-accl      x-coor      y-coor      z-coor
    22626 -2.16022E-02 1.49263E+00-5.39866E-01-2.94492E-03 7.02500E-01 7.15548E-02 5.64814E-03 1.92229E-01 1.37995E-01 4.63777E+00-2.66982E+01-4.55216E+01



 n o d a l   p r i n t   o u t   f o r   t i m e  s t e p   15602                              ( at time 7.7997194E+00 )

 nodal point  x-rot      y-rot       z-rot       x-rot vel   y-rot vel   z-rot vel   x-rot acc   y-rot acc   z-rot acc
    22626 -9.77048E-03-1.19245E-04-1.45894E-04-5.27562E-03-3.20695E-06 1.06111E-05-1.67954E-03-3.15222E-05-2.48822E-05



 n o d a l   p r i n t   o u t   f o r   t i m e  s t e p   15802                              ( at time 7.8997094E+00 )

 nodal point  x-disp     y-disp      z-disp      x-vel       y-vel       z-vel      x-accl      y-accl      z-accl      x-coor      y-coor      z-coor
    22626 -2.19230E-02 1.56384E+00-5.32033E-01-3.35897E-03 7.21393E-01 8.38952E-02-4.14088E-03 1.88951E-01 1.23416E-01 4.63745E+00-2.66270E+01-4.55138E+01



 n o d a l   p r i n t   o u t   f o r   t i m e  s t e p   15802                              ( at time 7.8997094E+00 )

 nodal point  x-rot      y-rot       z-rot       x-rot vel   y-rot vel   z-rot vel   x-rot acc   y-rot acc   z-rot acc
    22626 -1.03048E-02-1.19391E-04-1.44291E-04-5.42721E-03-8.06994E-07 2.22161E-05-1.51599E-03 2.40019E-05 1.16062E-04



 n o d a l   p r i n t   o u t   f o r   t i m e  s t e p   16002                              ( at time 7.9996994E+00 )

 nodal point  x-disp     y-disp      z-disp      x-vel       y-vel       z-vel      x-accl      y-accl      z-accl      x-coor      y-coor      z-coor
    22626 -2.22227E-02 1.63692E+00-5.22936E-01-2.61914E-03 7.40446E-01 9.77004E-02 7.39897E-03 1.90549E-01 1.38065E-01 4.63715E+00-2.65539E+01-4.55047E+01



 n o d a l   p r i n t   o u t   f o r   t i m e  s t e p   16002                              ( at time 7.9996994E+00 )

 nodal point  x-rot      y-rot       z-rot       x-rot vel   y-rot vel   z-rot vel   x-rot acc   y-rot acc   z-rot acc
    22626 -1.08542E-02-1.19265E-04-1.42123E-04-5.58244E-03 2.66953E-06 2.59743E-05-1.55248E-03 3.47686E-05 3.75860E-05



 n o d a l   p r i n t   o u t   f o r   t i m e  s t e p   16202                              ( at time 8.0996894E+00 )

 nodal point  x-disp     y-disp      z-disp      x-vel       y-vel       z-vel      x-accl      y-accl      z-accl      x-coor      y-coor      z-coor
    22626 -2.24676E-02 1.71189E+00-5.12406E-01-2.04500E-03 7.58860E-01 1.12941E-01 5.74201E-03 1.84151E-01 1.52417E-01 4.63691E+00-2.64789E+01-4.54941E+01



 n o d a l   p r i n t   o u t   f o r   t i m e  s t e p   16202                              ( at time 8.0996894E+00 )

 nodal point  x-rot      y-rot       z-rot       x-rot vel   y-rot vel   z-rot vel   x-rot acc   y-rot acc   z-rot acc
    22626 -1.14195E-02-1.18380E-04-1.39203E-04-5.72441E-03 1.56044E-05 3.05322E-05-1.41984E-03 1.29362E-04 4.55835E-05



 n o d a l   p r i n t   o u t   f o r   t i m e  s t e p   16402                              ( at time 8.1996794E+00 )

 nodal point  x-disp     y-disp      z-disp      x-vel       y-vel       z-vel      x-accl      y-accl      z-accl      x-coor      y-coor      z-coor
    22626 -2.26865E-02 1.78862E+00-5.00402E-01-2.54186E-03 7.76078E-01 1.27678E-01-4.96907E-03 1.72200E-01 1.47391E-01 4.63669E+00-2.64022E+01-4.54821E+01



 n o d a l   p r i n t   o u t   f o r   t i m e  s t e p   16402                              ( at time 8.1996794E+00 )

 nodal point  x-rot      y-rot       z-rot       x-rot vel   y-rot vel   z-rot vel   x-rot acc   y-rot acc   z-rot acc
    22626 -1.19997E-02-1.17668E-04-1.36265E-04-5.86918E-03 2.41774E-06 2.67473E-05-1.44785E-03-1.31880E-04-3.78533E-05



 n o d a l   p r i n t   o u t   f o r   t i m e  s t e p   16602                              ( at time 8.2996694E+00 )

 nodal point  x-disp     y-disp      z-disp      x-vel       y-vel       z-vel      x-accl      y-accl      z-accl      x-coor      y-coor      z-coor
    22626 -2.29202E-02 1.86707E+00-4.86876E-01-2.04544E-03 7.93544E-01 1.43703E-01 4.96469E-03 1.74675E-01 1.60262E-01 4.63645E+00-2.63238E+01-4.54686E+01



 n o d a l   p r i n t   o u t   f o r   t i m e  s t e p   16602                              ( at time 8.2996694E+00 )

 nodal point  x-rot      y-rot       z-rot       x-rot vel   y-rot vel   z-rot vel   x-rot acc   y-rot acc   z-rot acc
    22626 -1.25946E-02-1.17338E-04-1.33644E-04-6.00446E-03 8.57501E-06 2.28966E-05-1.35293E-03 6.15789E-05-3.85108E-05



 n o d a l   p r i n t   o u t   f o r   t i m e  s t e p   16802                              ( at time 8.3996594E+00 )

 nodal point  x-disp     y-disp      z-disp      x-vel       y-vel       z-vel      x-accl      y-accl      z-accl      x-coor      y-coor      z-coor
    22626 -2.30833E-02 1.94726E+00-4.71766E-01-1.47557E-03 8.10979E-01 1.59287E-01 5.69932E-03 1.74369E-01 1.55863E-01 4.63629E+00-2.62436E+01-4.54535E+01



 n o d a l   p r i n t   o u t   f o r   t i m e  s t e p   16802                              ( at time 8.3996594E+00 )

 nodal point  x-rot      y-rot       z-rot       x-rot vel   y-rot vel   z-rot vel   x-rot acc   y-rot acc   z-rot acc
    22626 -1.32029E-02-1.16536E-04-1.31237E-04-6.14951E-03 2.71571E-06 2.30924E-05-1.45062E-03-5.85989E-05 1.95810E-06



 n o d a l   p r i n t   o u t   f o r   t i m e  s t e p   17002                              ( at time 8.4996494E+00 )

 nodal point  x-disp     y-disp      z-disp      x-vel       y-vel       z-vel      x-accl      y-accl      z-accl      x-coor      y-coor      z-coor
    22626 -2.32214E-02 2.02914E+00-4.55033E-01-1.16469E-03 8.27074E-01 1.75540E-01 3.10911E-03 1.60971E-01 1.62544E-01 4.63615E+00-2.61617E+01-4.54368E+01



 n o d a l   p r i n t   o u t   f o r   t i m e  s t e p   17002                              ( at time 8.4996494E+00 )

 nodal point  x-rot      y-rot       z-rot       x-rot vel   y-rot vel   z-rot vel   x-rot acc   y-rot acc   z-rot acc
    22626 -1.38258E-02-1.16544E-04-1.28277E-04-6.29271E-03-3.30989E-06 3.90757E-05-1.43220E-03-6.02621E-05 1.59850E-04



 n o d a l   p r i n t   o u t   f o r   t i m e  s t e p   17202                              ( at time 8.5996394E+00 )

 nodal point  x-disp     y-disp      z-disp      x-vel       y-vel       z-vel      x-accl      y-accl      z-accl      x-coor      y-coor      z-coor
    22626 -2.32747E-02 2.11268E+00-4.36660E-01 9.05109E-05 8.43493E-01 1.92117E-01 1.25532E-02 1.64202E-01 1.65789E-01 4.63610E+00-2.60782E+01-4.54184E+01



 n o d a l   p r i n t   o u t   f o r   t i m e  s t e p   17202                              ( at time 8.5996394E+00 )

 nodal point  x-rot      y-rot       z-rot       x-rot vel   y-rot vel   z-rot vel   x-rot acc   y-rot acc   z-rot acc
    22626 -1.44618E-02-1.15405E-04-1.23657E-04-6.41897E-03 2.51320E-05 5.02710E-05-1.26269E-03 2.84448E-04 1.11964E-04



 n o d a l   p r i n t   o u t   f o r   t i m e  s t e p   17402                              ( at time 8.6996293E+00 )

 nodal point  x-disp     y-disp      z-disp      x-vel       y-vel       z-vel      x-accl      y-accl      z-accl      x-coor      y-coor      z-coor
    22626 -2.32704E-02 2.19781E+00-4.16562E-01-3.03162E-04 8.59029E-01 2.10321E-01-3.93709E-03 1.55375E-01 1.82056E-01 4.63610E+00-2.59930E+01-4.53983E+01



 n o d a l   p r i n t   o u t   f o r   t i m e  s t e p   17402                              ( at time 8.6996293E+00 )

 nodal point  x-rot      y-rot       z-rot       x-rot vel   y-rot vel   z-rot vel   x-rot acc   y-rot acc   z-rot acc
    22626 -1.51106E-02-1.12864E-04-1.18957E-04-6.54470E-03 1.61178E-05 4.23504E-05-1.25748E-03-9.01500E-05-7.92128E-05



 n o d a l   p r i n t   o u t   f o r   t i m e  s t e p   17602                              ( at time 8.7996193E+00 )

 nodal point  x-disp     y-disp      z-disp      x-vel       y-vel       z-vel      x-accl      y-accl      z-accl      x-coor      y-coor      z-coor
    22626 -2.33338E-02 2.28451E+00-3.94636E-01-9.28264E-04 8.74796E-01 2.28046E-01-6.25165E-03 1.57690E-01 1.77265E-01 4.63604E+00-2.59063E+01-4.53764E+01



 n o d a l   p r i n t   o u t   f o r   t i m e  s t e p   17602                              ( at time 8.7996193E+00 )

 nodal point  x-rot      y-rot       z-rot       x-rot vel   y-rot vel   z-rot vel   x-rot acc   y-rot acc   z-rot acc
    22626 -1.57714E-02-1.12163E-04-1.14438E-04-6.66081E-03 1.19461E-05 4.86524E-05-1.16121E-03-4.17218E-05 6.30266E-05



 n o d a l   p r i n t   o u t   f o r   t i m e  s t e p   17802                              ( at time 8.8996093E+00 )

 nodal point  x-disp     y-disp      z-disp      x-vel       y-vel       z-vel      x-accl      y-accl      z-accl      x-coor      y-coor      z-coor
    22626 -2.33682E-02 2.37274E+00-3.70943E-01 9.54757E-05 8.89679E-01 2.46022E-01 1.02384E-02 1.48846E-01 1.79773E-01 4.63601E+00-2.58181E+01-4.53527E+01



 n o d a l   p r i n t   o u t   f o r   t i m e  s t e p   17802                              ( at time 8.8996093E+00 )

 nodal point  x-rot      y-rot       z-rot       x-rot vel   y-rot vel   z-rot vel   x-rot acc   y-rot acc   z-rot acc
    22626 -1.64440E-02-1.09373E-04-1.10042E-04-6.78551E-03 4.20192E-05 3.84146E-05-1.24714E-03 3.00762E-04-1.02389E-04



 n o d a l   p r i n t   o u t   f o r   t i m e  s t e p   18002                              ( at time 8.9995993E+00 )

 nodal point  x-disp     y-disp      z-disp      x-vel       y-vel       z-vel      x-accl      y-accl      z-accl      x-coor      y-coor      z-coor
    22626 -2.33924E-02 2.46245E+00-3.45399E-01-7.39946E-04 9.05144E-01 2.64924E-01-8.35506E-03 1.54659E-01 1.89045E-01 4.63598E+00-2.57284E+01-4.53271E+01



 n o d a l   p r i n t   o u t   f o r   t i m e  s t e p   18002                              ( at time 8.9995993E+00 )

 nodal point  x-rot      y-rot       z-rot       x-rot vel   y-rot vel   z-rot vel   x-rot acc   y-rot acc   z-rot acc
    22626 -1.71281E-02-1.06059E-04-1.06379E-04-6.88910E-03 1.69763E-05 3.62626E-05-1.03592E-03-2.50454E-04-2.15223E-05



 n o d a l   p r i n t   o u t   f o r   t i m e  s t e p   18202                              ( at time 9.0995893E+00 )

 nodal point  x-disp     y-disp      z-disp      x-vel       y-vel       z-vel      x-accl      y-accl      z-accl      x-coor      y-coor      z-coor
    22626 -2.34703E-02 2.55369E+00-3.17914E-01-2.48125E-04 9.19445E-01 2.84878E-01 4.91871E-03 1.43024E-01 1.99562E-01 4.63590E+00-2.56371E+01-4.52996E+01



 n o d a l   p r i n t   o u t   f o r   t i m e  s t e p   18202                              ( at time 9.0995893E+00 )

 nodal point  x-rot      y-rot       z-rot       x-rot vel   y-rot vel   z-rot vel   x-rot acc   y-rot acc   z-rot acc
    22626 -1.78227E-02-1.05164E-04-1.02813E-04-7.00083E-03 1.05832E-05 3.56416E-05-1.11750E-03-6.39378E-05-6.21069E-06



 n o d a l   p r i n t   o u t   f o r   t i m e  s t e p   18402                              ( at time 9.1995793E+00 )

 nodal point  x-disp     y-disp      z-disp      x-vel       y-vel       z-vel      x-accl      y-accl      z-accl      x-coor      y-coor      z-coor
    22626 -2.34484E-02 2.64632E+00-2.88467E-01 1.03700E-03 9.33489E-01 3.04011E-01 1.28525E-02 1.40454E-01 1.91346E-01 4.63593E+00-2.55445E+01-4.52702E+01



 n o d a l   p r i n t   o u t   f o r   t i m e  s t e p   18402                              ( at time 9.1995793E+00 )

 nodal point  x-rot      y-rot       z-rot       x-rot vel   y-rot vel   z-rot vel   x-rot acc   y-rot acc   z-rot acc
    22626 -1.85285E-02-1.02452E-04-9.89956E-05-7.10817E-03 4.15192E-05 4.16493E-05-1.07344E-03 3.09391E-04 6.00832E-05



 n o d a l   p r i n t   o u t   f o r   t i m e  s t e p   18602                              ( at time 9.2995693E+00 )

 nodal point  x-disp     y-disp      z-disp      x-vel       y-vel       z-vel      x-accl      y-accl      z-accl      x-coor      y-coor      z-coor
    22626 -2.33132E-02 2.74036E+00-2.57059E-01 1.07029E-03 9.47637E-01 3.24573E-01 3.32959E-04 1.41496E-01 2.05640E-01 4.63606E+00-2.54505E+01-4.52388E+01



 n o d a l   p r i n t   o u t   f o r   t i m e  s t e p   18602                              ( at time 9.2995693E+00 )

 nodal point  x-rot      y-rot       z-rot       x-rot vel   y-rot vel   z-rot vel   x-rot acc   y-rot acc   z-rot acc
    22626 -1.92439E-02-9.87662E-05-9.46305E-05-7.20499E-03 2.38874E-05 4.42226E-05-9.68305E-04-1.76335E-04 2.57352E-05



 n o d a l   p r i n t   o u t   f o r   t i m e  s t e p   18802                              ( at time 9.3995593E+00 )

 nodal point  x-disp     y-disp      z-disp      x-vel       y-vel       z-vel      x-accl      y-accl      z-accl      x-coor      y-coor      z-coor
    22626 -2.32415E-02 2.83581E+00-2.23576E-01 7.04129E-04 9.61132E-01 3.45291E-01-3.66200E-03 1.34960E-01 2.07205E-01 4.63613E+00-2.53550E+01-4.52053E+01



 n o d a l   p r i n t   o u t   f o r   t i m e  s t e p   18802                              ( at time 9.3995593E+00 )

 nodal point  x-rot      y-rot       z-rot       x-rot vel   y-rot vel   z-rot vel   x-rot acc   y-rot acc   z-rot acc
    22626 -1.99696E-02-9.73349E-05-9.03259E-05-7.31401E-03 1.15433E-05 4.09403E-05-1.09032E-03-1.23454E-04-3.28255E-05



 n o d a l   p r i n t   o u t   f o r   t i m e  s t e p   19002                              ( at time 9.4995493E+00 )

 nodal point  x-disp     y-disp      z-disp      x-vel       y-vel       z-vel      x-accl      y-accl      z-accl      x-coor      y-coor      z-coor
    22626 -2.30943E-02 2.93259E+00-1.87941E-01 2.09622E-03 9.74696E-01 3.67285E-01 1.39224E-02 1.35659E-01 2.19956E-01 4.63628E+00-2.52582E+01-4.51697E+01



 n o d a l   p r i n t   o u t   f o r   t i m e  s t e p   19002                              ( at time 9.4995493E+00 )

 nodal point  x-rot      y-rot       z-rot       x-rot vel   y-rot vel   z-rot vel   x-rot acc   y-rot acc   z-rot acc
    22626 -2.07063E-02-9.46717E-05-8.61158E-05-7.42868E-03 4.30687E-05 4.94161E-05-1.14679E-03 3.15286E-04 8.47663E-05



 n o d a l   p r i n t   o u t   f o r   t i m e  s t e p   19202                              ( at time 9.5995393E+00 )

 nodal point  x-disp     y-disp      z-disp      x-vel       y-vel       z-vel      x-accl      y-accl      z-accl      x-coor      y-coor      z-coor
    22626 -2.28690E-02 3.03071E+00-1.50035E-01 2.03773E-03 9.87484E-01 3.90873E-01-5.84989E-04 1.27888E-01 2.35903E-01 4.63651E+00-2.51601E+01-4.51318E+01



 n o d a l   p r i n t   o u t   f o r   t i m e  s t e p   19202                              ( at time 9.5995393E+00 )

 nodal point  x-rot      y-rot       z-rot       x-rot vel   y-rot vel   z-rot vel   x-rot acc   y-rot acc   z-rot acc
    22626 -2.14539E-02-9.05687E-05-8.11203E-05-7.53182E-03 3.04660E-05 5.32789E-05-1.03148E-03-1.26038E-04 3.86315E-05



 n o d a l   p r i n t   o u t   f o r   t i m e  s t e p   19402                              ( at time 9.6995293E+00 )

 nodal point  x-disp     y-disp      z-disp      x-vel       y-vel       z-vel      x-accl      y-accl      z-accl      x-coor      y-coor      z-coor
    22626 -2.26897E-02 3.13013E+00-1.09773E-01 1.95885E-03 1.00101E+00 4.14146E-01-7.88854E-04 1.35245E-01 2.32752E-01 4.63669E+00-2.50607E+01-4.50915E+01



 n o d a l   p r i n t   o u t   f o r   t i m e  s t e p   19402                              ( at time 9.6995293E+00 )

 nodal point  x-rot      y-rot       z-rot       x-rot vel   y-rot vel   z-rot vel   x-rot acc   y-rot acc   z-rot acc
    22626 -2.22126E-02-8.83534E-05-7.64460E-05-7.65104E-03 2.56074E-05 4.34059E-05-1.19242E-03-4.85915E-05-9.87404E-05



 n o d a l   p r i n t   o u t   f o r   t i m e  s t e p   19602                              ( at time 9.7995193E+00 )

 nodal point  x-disp     y-disp      z-disp      x-vel       y-vel       z-vel      x-accl      y-accl      z-accl      x-coor      y-coor      z-coor
    22626 -2.24447E-02 3.23083E+00-6.71338E-02 2.91373E-03 1.01292E+00 4.38561E-01 9.54975E-03 1.19125E-01 2.44176E-01 4.63693E+00-2.49600E+01-4.50489E+01



 n o d a l   p r i n t   o u t   f o r   t i m e  s t e p   19602                              ( at time 9.7995193E+00 )

 nodal point  x-rot      y-rot       z-rot       x-rot vel   y-rot vel   z-rot vel   x-rot acc   y-rot acc   z-rot acc
    22626 -2.29840E-02-8.48322E-05-7.16482E-05-7.78763E-03 4.35645E-05 5.24220E-05-1.36595E-03 1.79589E-04 9.01705E-05



 n o d a l   p r i n t   o u t   f o r   t i m e  s t e p   19802                              ( at time 9.8995093E+00 )

 nodal point  x-disp     y-disp      z-disp      x-vel       y-vel       z-vel      x-accl      y-accl      z-accl      x-coor      y-coor      z-coor
    22626 -2.21086E-02 3.33273E+00-2.19865E-02 3.46776E-03 1.02501E+00 4.64426E-01 5.54085E-03 1.20904E-01 2.58673E-01 4.63727E+00-2.48581E+01-4.50037E+01



 n o d a l   p r i n t   o u t   f o r   t i m e  s t e p   19802                              ( at time 9.8995093E+00 )

 nodal point  x-rot      y-rot       z-rot       x-rot vel   y-rot vel   z-rot vel   x-rot acc   y-rot acc   z-rot acc
    22626 -2.37690E-02-8.04069E-05-6.55151E-05-7.91596E-03 4.13113E-05 6.43608E-05-1.28349E-03-2.25339E-05 1.19400E-04



 n o d a l   p r i n t   o u t   f o r   t i m e  s t e p   20003                              ( at time 9.9999992E+00 )

 nodal point  x-disp     y-disp      z-disp      x-vel       y-vel       z-vel      x-accl      y-accl      z-accl      x-coor      y-coor      z-coor
[...]
    22626 -2.02250E-01 4.37312E-04 3.30352E-04-1.80308E-02 3.89855E-05 7.23731E-05-1.78737E-04-1.60357E-04 1.79771E-05



 n o d a l   p r i n t   o u t   f o r   t i m e  s t e p   45205                              ( at time 2.2599738E+01 )

 nodal point  x-disp     y-disp      z-disp      x-vel       y-vel       z-vel      x-accl      y-accl      z-accl      x-coor      y-coor      z-coor
    22626  1.05731E-01 2.08021E+01 1.77685E+01 4.07886E-03 1.69256E+00 9.20134E-01 6.30596E-04 3.39396E-02-1.27348E-01 4.76511E+00-7.38877E+00-2.72132E+01



 n o d a l   p r i n t   o u t   f o r   t i m e  s t e p   45205                              ( at time 2.2599738E+01 )

 nodal point  x-rot      y-rot       z-rot       x-rot vel   y-rot vel   z-rot vel   x-rot acc   y-rot acc   z-rot acc
    22626 -2.04053E-01 4.42670E-04 3.37489E-04-1.80357E-02 5.97502E-05 6.94132E-05-4.91038E-05 2.07667E-04-2.96025E-05



 n o d a l   p r i n t   o u t   f o r   t i m e  s t e p   45405                              ( at time 2.2699728E+01 )

 nodal point  x-disp     y-disp      z-disp      x-vel       y-vel       z-vel      x-accl      y-accl      z-accl      x-coor      y-coor      z-coor
    22626  1.06114E-01 2.09715E+01 1.78599E+01 3.23153E-03 1.69615E+00 9.09405E-01-8.47424E-03 3.59730E-02-1.07302E-01 4.76549E+00-7.21932E+00-2.71218E+01



 n o d a l   p r i n t   o u t   f o r   t i m e  s t e p   45405                              ( at time 2.2699728E+01 )

 nodal point  x-rot      y-rot       z-rot       x-rot vel   y-rot vel   z-rot vel   x-rot acc   y-rot acc   z-rot acc
    22626 -2.05858E-01 4.48969E-04 3.44861E-04-1.80498E-02 5.03069E-05 8.07838E-05-1.40683E-04-9.44443E-05 1.13719E-04



 n o d a l   p r i n t   o u t   f o r   t i m e  s t e p   45605                              ( at time 2.2799718E+01 )

 nodal point  x-disp     y-disp      z-disp      x-vel       y-vel       z-vel      x-accl      y-accl      z-accl      x-coor      y-coor      z-coor
    22626  1.06441E-01 2.11411E+01 1.79503E+01 3.55824E-03 1.69768E+00 8.98539E-01 3.26735E-03 1.52840E-02-1.08669E-01 4.76582E+00-7.04969E+00-2.70314E+01



 n o d a l   p r i n t   o u t   f o r   t i m e  s t e p   45605                              ( at time 2.2799718E+01 )

 nodal point  x-rot      y-rot       z-rot       x-rot vel   y-rot vel   z-rot vel   x-rot acc   y-rot acc   z-rot acc
    22626 -2.07664E-01 4.53438E-04 3.52486E-04-1.80572E-02 5.12870E-05 6.94270E-05-7.41773E-05 9.80201E-06-1.13578E-04



 n o d a l   p r i n t   o u t   f o r   t i m e  s t e p   45805                              ( at time 2.2899708E+01 )

 nodal point  x-disp     y-disp      z-disp      x-vel       y-vel       z-vel      x-accl      y-accl      z-accl      x-coor      y-coor      z-coor
    22626  1.06805E-01 2.13110E+01 1.80396E+01 3.85289E-03 1.69945E+00 8.88673E-01 2.94688E-03 1.77117E-02-9.86697E-02 4.76618E+00-6.87985E+00-2.69421E+01



 n o d a l   p r i n t   o u t   f o r   t i m e  s t e p   45805                              ( at time 2.2899708E+01 )

 nodal point  x-rot      y-rot       z-rot       x-rot vel   y-rot vel   z-rot vel   x-rot acc   y-rot acc   z-rot acc
    22626 -2.09470E-01 4.59667E-04 3.60225E-04-1.80576E-02 7.24232E-05 8.76310E-05-3.85610E-06 2.11386E-04 1.82061E-04



 n o d a l   p r i n t   o u t   f o r   t i m e  s t e p   46005                              ( at time 2.2999698E+01 )

 nodal point  x-disp     y-disp      z-disp      x-vel       y-vel       z-vel      x-accl      y-accl      z-accl      x-coor      y-coor      z-coor
    22626  1.07140E-01 2.14810E+01 1.81280E+01 2.61178E-03 1.70203E+00 8.79447E-01-1.24123E-02 2.57826E-02-9.22711E-02 4.76652E+00-6.70980E+00-2.68537E+01



 n o d a l   p r i n t   o u t   f o r   t i m e  s t e p   46005                              ( at time 2.2999698E+01 )

 nodal point  x-rot      y-rot       z-rot       x-rot vel   y-rot vel   z-rot vel   x-rot acc   y-rot acc   z-rot acc
    22626 -2.11276E-01 4.66192E-04 3.68539E-04-1.80597E-02 5.92579E-05 8.35538E-05-2.10871E-05-1.31665E-04-4.07762E-05



 n o d a l   p r i n t   o u t   f o r   t i m e  s t e p   46205                              ( at time 2.3099688E+01 )

 nodal point  x-disp     y-disp      z-disp      x-vel       y-vel       z-vel      x-accl      y-accl      z-accl      x-coor      y-coor      z-coor
    22626  1.07444E-01 2.16513E+01 1.82155E+01 3.85230E-03 1.70297E+00 8.70843E-01 1.24066E-02 9.37327E-03-8.60446E-02 4.76682E+00-6.53955E+00-2.67662E+01



 n o d a l   p r i n t   o u t   f o r   t i m e  s t e p   46205                              ( at time 2.3099688E+01 )

 nodal point  x-rot      y-rot       z-rot       x-rot vel   y-rot vel   z-rot vel   x-rot acc   y-rot acc   z-rot acc
    22626 -2.13082E-01 4.71884E-04 3.76100E-04-1.80524E-02 6.18544E-05 8.02450E-05 7.32473E-05 2.59674E-05-3.30917E-05



 n o d a l   p r i n t   o u t   f o r   t i m e  s t e p   46405                              ( at time 2.3199678E+01 )

 nodal point  x-disp     y-disp      z-disp      x-vel       y-vel       z-vel      x-accl      y-accl      z-accl      x-coor      y-coor      z-coor
    22626  1.07763E-01 2.18217E+01 1.83022E+01 2.87446E-03 1.70488E+00 8.62962E-01-9.77923E-03 1.91575E-02-7.88147E-02 4.76714E+00-6.36917E+00-2.66796E+01



 n o d a l   p r i n t   o u t   f o r   t i m e  s t e p   46405                              ( at time 2.3199678E+01 )

 nodal point  x-rot      y-rot       z-rot       x-rot vel   y-rot vel   z-rot vel   x-rot acc   y-rot acc   z-rot acc
    22626 -2.14886E-01 4.77951E-04 3.84473E-04-1.80416E-02 6.16807E-05 7.90310E-05 1.08025E-04-1.73686E-06-1.21411E-05



 n o d a l   p r i n t   o u t   f o r   t i m e  s t e p   46605                              ( at time 2.3299668E+01 )

 nodal point  x-disp     y-disp      z-disp      x-vel       y-vel       z-vel      x-accl      y-accl      z-accl      x-coor      y-coor      z-coor
    22626  1.08072E-01 2.19922E+01 1.83882E+01 2.71792E-03 1.70551E+00 8.56860E-01-1.56565E-03 6.28064E-03-6.10264E-02 4.76745E+00-6.19867E+00-2.65936E+01



 n o d a l   p r i n t   o u t   f o r   t i m e  s t e p   46605                              ( at time 2.3299668E+01 )

 nodal point  x-rot      y-rot       z-rot       x-rot vel   y-rot vel   z-rot vel   x-rot acc   y-rot acc   z-rot acc
    22626 -2.16690E-01 4.83978E-04 3.91853E-04-1.80354E-02 5.66409E-05 8.04369E-05 6.19398E-05-5.04038E-05 1.40607E-05



 n o d a l   p r i n t   o u t   f o r   t i m e  s t e p   46805                              ( at time 2.3399658E+01 )

 nodal point  x-disp     y-disp      z-disp      x-vel       y-vel       z-vel      x-accl      y-accl      z-accl      x-coor      y-coor      z-coor
    22626  1.08357E-01 2.21628E+01 1.84735E+01 2.81299E-03 1.70672E+00 8.50261E-01 9.50842E-04 1.20663E-02-6.59979E-02 4.76773E+00-6.02804E+00-2.65082E+01



 n o d a l   p r i n t   o u t   f o r   t i m e  s t e p   46805                              ( at time 2.3399658E+01 )

 nodal point  x-rot      y-rot       z-rot       x-rot vel   y-rot vel   z-rot vel   x-rot acc   y-rot acc   z-rot acc
    22626 -2.18492E-01 4.90403E-04 3.99800E-04-1.80180E-02 7.79739E-05 8.42907E-05 1.73968E-04 2.13350E-04 3.85410E-05



 n o d a l   p r i n t   o u t   f o r   t i m e  s t e p   47005                              ( at time 2.3499648E+01 )

 nodal point  x-disp     y-disp      z-disp      x-vel       y-vel       z-vel      x-accl      y-accl      z-accl      x-coor      y-coor      z-coor
    22626  1.08638E-01 2.23335E+01 1.85583E+01 2.99583E-03 1.70746E+00 8.45530E-01 1.82861E-03 7.41192E-03-4.73179E-02 4.76801E+00-5.85737E+00-2.64234E+01



 n o d a l   p r i n t   o u t   f o r   t i m e  s t e p   47005                              ( at time 2.3499648E+01 )

 nodal point  x-rot      y-rot       z-rot       x-rot vel   y-rot vel   z-rot vel   x-rot acc   y-rot acc   z-rot acc
    22626 -2.20292E-01 4.97520E-04 4.07603E-04-1.79877E-02 6.19000E-05 7.47922E-05 3.02596E-04-1.60753E-04-9.49937E-05



 n o d a l   p r i n t   o u t   f o r   t i m e  s t e p   47205                              ( at time 2.3599638E+01 )

 nodal point  x-disp     y-disp      z-disp      x-vel       y-vel       z-vel      x-accl      y-accl      z-accl      x-coor      y-coor      z-coor
    22626  1.08896E-01 2.25042E+01 1.86426E+01 2.36698E-03 1.70810E+00 8.41417E-01-6.28923E-03 6.40702E-03-4.11318E-02 4.76827E+00-5.68663E+00-2.63391E+01



 n o d a l   p r i n t   o u t   f o r   t i m e  s t e p   47205                              ( at time 2.3599638E+01 )

 nodal point  x-rot      y-rot       z-rot       x-rot vel   y-rot vel   z-rot vel   x-rot acc   y-rot acc   z-rot acc
    22626 -2.22089E-01 5.02876E-04 4.15354E-04-1.79616E-02 6.02709E-05 8.42671E-05 2.61302E-04-1.62934E-05 9.47601E-05



 n o d a l   p r i n t   o u t   f o r   t i m e  s t e p   47405                              ( at time 2.3699628E+01 )

 nodal point  x-disp     y-disp      z-disp      x-vel       y-vel       z-vel      x-accl      y-accl      z-accl      x-coor      y-coor      z-coor
    22626  1.09169E-01 2.26750E+01 1.87265E+01 2.35367E-03 1.70808E+00 8.38333E-01-1.33121E-04-1.90752E-04-3.08470E-02 4.76854E+00-5.51584E+00-2.62552E+01



 n o d a l   p r i n t   o u t   f o r   t i m e  s t e p   47405                              ( at time 2.3699628E+01 )

 nodal point  x-rot      y-rot       z-rot       x-rot vel   y-rot vel   z-rot vel   x-rot acc   y-rot acc   z-rot acc
    22626 -2.23885E-01 5.10860E-04 4.23711E-04-1.79317E-02 8.18512E-05 7.33798E-05 2.99392E-04 2.15823E-04-1.08883E-04



 n o d a l   p r i n t   o u t   f o r   t i m e  s t e p   47605                              ( at time 2.3799618E+01 )

 nodal point  x-disp     y-disp      z-disp      x-vel       y-vel       z-vel      x-accl      y-accl      z-accl      x-coor      y-coor      z-coor
    22626  1.09396E-01 2.28458E+01 1.88101E+01 2.39200E-03 1.70789E+00 8.34640E-01 3.83331E-04-1.93975E-03-3.69304E-02 4.76877E+00-5.34506E+00-2.61716E+01



 n o d a l   p r i n t   o u t   f o r   t i m e  s t e p   47605                              ( at time 2.3799618E+01 )

 nodal point  x-rot      y-rot       z-rot       x-rot vel   y-rot vel   z-rot vel   x-rot acc   y-rot acc   z-rot acc
    22626 -2.25677E-01 5.18295E-04 4.30998E-04-1.78979E-02 6.82148E-05 7.17400E-05 3.37791E-04-1.36380E-04-1.63994E-05



 n o d a l   p r i n t   o u t   f o r   t i m e  s t e p   47805                              ( at time 2.3899608E+01 )

 nodal point  x-disp     y-disp      z-disp      x-vel       y-vel       z-vel      x-accl      y-accl      z-accl      x-coor      y-coor      z-coor
    22626  1.09610E-01 2.30165E+01 1.88935E+01 1.68350E-03 1.70720E+00 8.32517E-01-7.08566E-03-6.90643E-03-2.12319E-02 4.76898E+00-5.17431E+00-2.60883E+01



 n o d a l   p r i n t   o u t   f o r   t i m e  s t e p   47805                              ( at time 2.3899608E+01 )

 nodal point  x-rot      y-rot       z-rot       x-rot vel   y-rot vel   z-rot vel   x-rot acc   y-rot acc   z-rot acc
    22626 -2.27465E-01 5.25511E-04 4.39452E-04-1.78839E-02 7.81157E-05 9.04925E-05 1.40494E-04 9.90184E-05 1.87542E-04



 n o d a l   p r i n t   o u t   f o r   t i m e  s t e p   48005                              ( at time 2.3999598E+01 )

 nodal point  x-disp     y-disp      z-disp      x-vel       y-vel       z-vel      x-accl      y-accl      z-accl      x-coor      y-coor      z-coor
    22626  1.09757E-01 2.31872E+01 1.89766E+01 1.99520E-03 1.70765E+00 8.30413E-01 3.11733E-03 4.53284E-03-2.10410E-02 4.76913E+00-5.00364E+00-2.60051E+01



 n o d a l   p r i n t   o u t   f o r   t i m e  s t e p   48005                              ( at time 2.3999598E+01 )

 nodal point  x-rot      y-rot       z-rot       x-rot vel   y-rot vel   z-rot vel   x-rot acc   y-rot acc   z-rot acc
    22626 -2.29251E-01 5.33258E-04 4.46923E-04-1.78306E-02 7.39691E-05 6.43522E-05 5.32496E-04-4.14703E-05-2.61432E-04



 n o d a l   p r i n t   o u t   f o r   t i m e  s t e p   48205                              ( at time 2.4099588E+01 )

 nodal point  x-disp     y-disp      z-disp      x-vel       y-vel       z-vel      x-accl      y-accl      z-accl      x-coor      y-coor      z-coor
    22626  1.10039E-01 2.33578E+01 1.90596E+01 3.29226E-03 1.70594E+00 8.29980E-01 1.29718E-02-1.70950E-02-4.33425E-03 4.76941E+00-4.83303E+00-2.59221E+01



 n o d a l   p r i n t   o u t   f o r   t i m e  s t e p   48205                              ( at time 2.4099588E+01 )

 nodal point  x-rot      y-rot       z-rot       x-rot vel   y-rot vel   z-rot vel   x-rot acc   y-rot acc   z-rot acc
    22626 -2.31032E-01 5.40763E-04 4.54315E-04-1.78001E-02 7.83711E-05 8.48933E-05 3.05166E-04 4.40236E-05 2.05429E-04



 n o d a l   p r i n t   o u t   f o r   t i m e  s t e p   48405                              ( at time 2.4199578E+01 )

 nodal point  x-disp     y-disp      z-disp      x-vel       y-vel       z-vel      x-accl      y-accl      z-accl      x-coor      y-coor      z-coor
    22626  1.10281E-01 2.35283E+01 1.91425E+01 2.10573E-03 1.70456E+00 8.28940E-01-1.18666E-02-1.38429E-02-1.03998E-02 4.76966E+00-4.66250E+00-2.58392E+01



 n o d a l   p r i n t   o u t   f o r   t i m e  s t e p   48405                              ( at time 2.4199578E+01 )

 nodal point  x-rot      y-rot       z-rot       x-rot vel   y-rot vel   z-rot vel   x-rot acc   y-rot acc   z-rot acc
    22626 -2.32809E-01 5.48298E-04 4.62670E-04-1.77615E-02 5.67248E-05 6.82844E-05 3.85796E-04-2.16486E-04-1.66107E-04



 n o d a l   p r i n t   o u t   f o r   t i m e  s t e p   48605                              ( at time 2.4299568E+01 )

 nodal point  x-disp     y-disp      z-disp      x-vel       y-vel       z-vel      x-accl      y-accl      z-accl      x-coor      y-coor      z-coor
    22626  1.10518E-01 2.36987E+01 1.92254E+01 2.60295E-03 1.70293E+00 8.29382E-01 4.97260E-03-1.62533E-02 4.41949E-03 4.76989E+00-4.49213E+00-2.57563E+01



 n o d a l   p r i n t   o u t   f o r   t i m e  s t e p   48605                              ( at time 2.4299568E+01 )

 nodal point  x-rot      y-rot       z-rot       x-rot vel   y-rot vel   z-rot vel   x-rot acc   y-rot acc   z-rot acc
    22626 -2.34582E-01 5.53990E-04 4.69357E-04-1.77101E-02 6.70653E-05 7.61003E-05 5.13895E-04 1.03414E-04 7.81664E-05



 n o d a l   p r i n t   o u t   f o r   t i m e  s t e p   48805                              ( at time 2.4399558E+01 )

 nodal point  x-disp     y-disp      z-disp      x-vel       y-vel       z-vel      x-accl      y-accl      z-accl      x-coor      y-coor      z-coor
    22626  1.10770E-01 2.38689E+01 1.93084E+01 2.94588E-03 1.70135E+00 8.30078E-01 3.42967E-03-1.57907E-02 6.96365E-03 4.77014E+00-4.32190E+00-2.56734E+01



 n o d a l   p r i n t   o u t   f o r   t i m e  s t e p   48805                              ( at time 2.4399558E+01 )

 nodal point  x-rot      y-rot       z-rot       x-rot vel   y-rot vel   z-rot vel   x-rot acc   y-rot acc   z-rot acc
    22626 -2.36350E-01 5.62401E-04 4.77893E-04-1.76628E-02 9.09396E-05 8.18067E-05 4.73230E-04 2.38766E-04 5.70693E-05



 n o d a l   p r i n t   o u t   f o r   t i m e  s t e p   49006                              ( at time 2.4500048E+01 )

 nodal point  x-disp     y-disp      z-disp      x-vel       y-vel       z-vel      x-accl      y-accl      z-accl      x-coor      y-coor      z-coor
    22626  1.11023E-01 2.40398E+01 1.93919E+01 2.34014E-03 1.69977E+00 8.31739E-01-6.02792E-03-1.57315E-02 1.65269E-02 4.77040E+00-4.15105E+00-2.55899E+01



 n o d a l   p r i n t   o u t   f o r   t i m e  s t e p   49006                              ( at time 2.4500048E+01 )

 nodal point  x-rot      y-rot       z-rot       x-rot vel   y-rot vel   z-rot vel   x-rot acc   y-rot acc   z-rot acc
    22626 -2.38123E-01 5.70003E-04 4.85596E-04-1.76089E-02 6.48782E-05 8.06874E-05 5.36836E-04-2.59347E-04-1.11384E-05



 n o d a l   p r i n t   o u t   f o r   t i m e  s t e p   49206                              ( at time 2.4600038E+01 )

 nodal point  x-disp     y-disp      z-disp      x-vel       y-vel       z-vel      x-accl      y-accl      z-accl      x-coor      y-coor      z-coor
    22626  1.11236E-01 2.42096E+01 1.94751E+01 1.40686E-03 1.69682E+00 8.33969E-01-9.33374E-03-2.95678E-02 2.23019E-02 4.77061E+00-3.98124E+00-2.55066E+01



 n o d a l   p r i n t   o u t   f o r   t i m e  s t e p   49206                              ( at time 2.4600038E+01 )

 nodal point  x-rot      y-rot       z-rot       x-rot vel   y-rot vel   z-rot vel   x-rot acc   y-rot acc   z-rot acc
    22626 -2.39882E-01 5.76882E-04 4.93622E-04-1.75639E-02 6.68069E-05 8.67892E-05 4.50187E-04 1.92887E-05 6.10232E-05



 n o d a l   p r i n t   o u t   f o r   t i m e  s t e p   49406                              ( at time 2.4700028E+01 )

 nodal point  x-disp     y-disp      z-disp      x-vel       y-vel       z-vel      x-accl      y-accl      z-accl      x-coor      y-coor      z-coor
    22626  1.11521E-01 2.43791E+01 1.95586E+01 3.58351E-03 1.69373E+00 8.36713E-01 2.17689E-02-3.08369E-02 2.74480E-02 4.77090E+00-3.81175E+00-2.54231E+01



 n o d a l   p r i n t   o u t   f o r   t i m e  s t e p   49406                              ( at time 2.4700028E+01 )

 nodal point  x-rot      y-rot       z-rot       x-rot vel   y-rot vel   z-rot vel   x-rot acc   y-rot acc   z-rot acc
    22626 -2.41636E-01 5.84296E-04 5.01537E-04-1.75116E-02 7.85171E-05 7.41545E-05 5.22735E-04 1.17114E-04-1.26361E-04



 n o d a l   p r i n t   o u t   f o r   t i m e  s t e p   49606                              ( at time 2.4800018E+01 )

 nodal point  x-disp     y-disp      z-disp      x-vel       y-vel       z-vel      x-accl      y-accl      z-accl      x-coor      y-coor      z-coor
    22626  1.11806E-01 2.45483E+01 1.96425E+01 2.62629E-03 1.69105E+00 8.40509E-01-9.57301E-03-2.68210E-02 3.79597E-02 4.77118E+00-3.64249E+00-2.53392E+01



 n o d a l   p r i n t   o u t   f o r   t i m e  s t e p   49606                              ( at time 2.4800018E+01 )

 nodal point  x-rot      y-rot       z-rot       x-rot vel   y-rot vel   z-rot vel   x-rot acc   y-rot acc   z-rot acc
    22626 -2.43384E-01 5.92547E-04 5.09693E-04-1.74576E-02 8.16726E-05 7.79739E-05 5.39918E-04 3.15578E-05 3.81978E-05



 n o d a l   p r i n t   o u t   f o r   t i m e  s t e p   49806                              ( at time 2.4900008E+01 )

 nodal point  x-disp     y-disp      z-disp      x-vel       y-vel       z-vel      x-accl      y-accl      z-accl      x-coor      y-coor      z-coor
    22626  1.12016E-01 2.47172E+01 1.97267E+01 2.14794E-03 1.68715E+00 8.44638E-01-4.78407E-03-3.89953E-02 4.12915E-02 4.77139E+00-3.47359E+00-2.52550E+01



 n o d a l   p r i n t   o u t   f o r   t i m e  s t e p   49806                              ( at time 2.4900008E+01 )

 nodal point  x-rot      y-rot       z-rot       x-rot vel   y-rot vel   z-rot vel   x-rot acc   y-rot acc   z-rot acc
    22626 -2.45127E-01 5.99474E-04 5.17653E-04-1.74101E-02 6.89177E-05 7.54928E-05 4.75456E-04-1.27562E-04-2.48140E-05



 n o d a l   p r i n t   o u t   f o r   t i m e  s t e p   50006                              ( at time 2.4999998E+01 )

 nodal point  x-disp     y-disp      z-disp      x-vel       y-vel       z-vel      x-accl      y-accl      z-accl      x-coor      y-coor      z-coor
    22626  1.12305E-01 2.48858E+01 1.98114E+01 2.91798E-03 1.68379E+00 8.49290E-01 7.70111E-03-3.35986E-02 4.65263E-02 4.77168E+00-3.30506E+00-2.51703E+01



 n o d a l   p r i n t   o u t   f o r   t i m e  s t e p   50006                              ( at time 2.4999998E+01 )

 nodal point  x-rot      y-rot       z-rot       x-rot vel   y-rot vel   z-rot vel   x-rot acc   y-rot acc   z-rot acc
    22626 -2.46865E-01 6.06566E-04 5.25599E-04-1.73567E-02 8.17588E-05 8.22435E-05 5.34088E-04 1.28423E-04 6.75129E-05
