 LSTC 50th% Full_FE H-III Dummy (Beta Version, February 17, 2019)        
                    ls-dyna smp s R16 R16.0_619_d222963 date 03/18/2025

{BEGIN LEGEND}
 Entity #        Title
        1     Upper_Neck_Force_INJURY                                              
{END LEGEND}



 line#1  section#     time        x-force     y-force     z-force    magnitude
 line#2  resultant  moments       x-moment    y-moment    z-moment   magnitude
 line#3  centroids                x           y           z            area  
           1    0.00000E+00     0.0000E+00  0.0000E+00  0.0000E+00  0.0000E+00
ac ID =   33377                 0.0000E+00  0.0000E+00  0.0000E+00  0.0000E+00
                               -3.7437E-01  1.0501E+01 -4.6940E+01  0.0000E+00

           1    1.00490E-01     1.3642E-04 -4.9877E-03  2.5982E-01  2.5987E-01
ac ID =   33377                 4.2550E-01 -1.2521E+00 -2.7103E-02  1.3227E+00
                               -3.7387E-01  1.0590E+01 -4.6886E+01  2.5147E+03

           1    2.00480E-01    -4.4318E-02  6.8473E-04  4.4130E-01  4.4352E-01
ac ID =   33377                 3.0700E-01 -1.5962E+00  2.1383E-02  1.6256E+00
                               -3.7386E-01  1.0591E+01 -4.6888E+01  2.5147E+03

           1    3.00470E-01     1.4979E-02 -3.2027E-03  2.1750E-01  2.1804E-01
ac ID =   33377                 3.3786E-02 -3.3549E-01  6.6986E-02  3.4378E-01
                               -3.7382E-01  1.0591E+01 -4.6889E+01  2.5147E+03

           1    4.00460E-01     2.8140E-03  1.0856E-02  8.7812E-02  8.8525E-02
ac ID =   33377                -4.9710E-01 -9.4338E-01 -1.7108E-03  1.0663E+00
                               -3.7384E-01  1.0592E+01 -4.6890E+01  2.5147E+03

           1    5.00450E-01    -4.0867E-02  4.4029E-03  1.6166E-01  1.6681E-01
ac ID =   33377                -3.9796E-01 -1.5051E+00 -1.0652E-01  1.5604E+00
                               -3.7385E-01  1.0594E+01 -4.6893E+01  2.5147E+03

           1    6.00440E-01    -1.0867E-02  4.1175E-03  3.4349E-01  3.4368E-01
ac ID =   33377                 9.4790E-02 -1.3225E+00 -3.4632E-02  1.3263E+00
                               -3.7385E-01  1.0595E+01 -4.6897E+01  2.5147E+03

           1    7.00430E-01     2.9153E-03 -5.4872E-03  2.9446E-01  2.9452E-01
ac ID =   33377                 1.4289E-01 -5.0403E-01  7.9355E-02  5.2987E-01
                               -3.7389E-01  1.0597E+01 -4.6901E+01  2.5147E+03

           1    8.00420E-01    -3.1216E-02 -9.6807E-04  1.0074E-01  1.0547E-01
ac ID =   33377                 8.1786E-02 -1.0538E+00  4.8022E-02  1.0580E+00
                               -3.7394E-01  1.0599E+01 -4.6905E+01  2.5147E+03

           1    9.00410E-01    -3.9143E-02  7.2770E-04  6.2412E-02  7.3674E-02
ac ID =   33377                 9.1322E-02 -1.0695E+00 -5.4672E-03  1.0734E+00
                               -3.7399E-01  1.0601E+01 -4.6909E+01  2.5147E+03

           1    1.00040E+00     1.4914E-02 -3.7973E-03  2.2074E-01  2.2127E-01
ac ID =   33377                 3.6577E-01 -2.8544E-01 -5.5386E-02  4.6725E-01
                               -3.7400E-01  1.0604E+01 -4.6915E+01  2.5147E+03

           1    1.10039E+00     2.5114E-04 -3.1106E-03  2.7076E-01  2.7078E-01
ac ID =   33377                 3.4508E-01 -8.8212E-01 -4.5514E-02  9.4830E-01
                               -3.7401E-01  1.0607E+01 -4.6921E+01  2.5147E+03

           1    1.20038E+00    -3.2184E-02 -5.8705E-04  1.2931E-01  1.3326E-01
ac ID =   33377                -1.5235E-01 -1.1748E+00  8.3289E-03  1.1846E+00
                               -3.7403E-01  1.0610E+01 -4.6927E+01  2.5147E+03

           1    1.30037E+00    -1.0398E-02  4.5202E-03  7.4625E-02  7.5482E-02
ac ID =   33377                -3.0204E-01 -8.8362E-01  1.6741E-02  9.3397E-01
                               -3.7407E-01  1.0612E+01 -4.6933E+01  2.5147E+03

           1    1.40036E+00     7.9717E-03  3.5982E-03  1.7377E-01  1.7399E-01
ac ID =   33377                -2.9211E-01 -8.3358E-01  2.7446E-02  8.8370E-01
                               -3.7409E-01  1.0616E+01 -4.6941E+01  2.5147E+03

           1    1.50035E+00    -2.6712E-02  1.0682E-03  3.2816E-01  3.2925E-01
ac ID =   33377                -1.6002E-02 -1.5792E+00 -4.5897E-02  1.5799E+00
                               -3.7413E-01  1.0620E+01 -4.6949E+01  2.5147E+03

           1    1.60034E+00    -1.8925E-02 -2.4487E-03  2.2098E-01  2.2180E-01
ac ID =   33377                -2.0330E-02 -1.3728E+00 -9.7221E-03  1.3730E+00
                               -3.7419E-01  1.0624E+01 -4.6957E+01  2.5147E+03

           1    1.70033E+00    -2.7760E-03 -5.9017E-04  5.8593E-02  5.8662E-02
ac ID =   33377                -4.4321E-02 -6.7121E-01  9.0570E-02  6.7874E-01
                               -3.7427E-01  1.0627E+01 -4.6965E+01  2.5147E+03

           1    1.80032E+00    -2.0098E-02  1.0888E-03  7.7333E-02  7.9910E-02
ac ID =   33377                 8.4346E-02 -1.1135E+00  1.3248E-01  1.1245E+00
                               -3.7434E-01  1.0632E+01 -4.6974E+01  2.5147E+03

           1    1.90031E+00    -8.0086E-03 -2.5991E-03  1.9184E-01  1.9202E-01
ac ID =   33377                 2.6917E-01 -8.2103E-01 -7.6426E-02  8.6740E-01
                               -3.7439E-01  1.0636E+01 -4.6984E+01  2.5147E+03

           1    2.00030E+00    -2.1095E-03 -4.6113E-03  1.5646E-01  1.5654E-01
ac ID =   33377                 2.1129E-01 -4.4321E-01 -1.4416E-01  5.1173E-01
                               -3.7444E-01  1.0641E+01 -4.6993E+01  2.5147E+03

           1    2.10029E+00    -2.5378E-02  2.2890E-03  2.5824E-03  2.5612E-02
ac ID =   33377                -7.6697E-02 -6.9865E-01  4.2421E-02  7.0413E-01
                               -3.7450E-01  1.0645E+01 -4.7003E+01  2.5147E+03

           1    2.20028E+00    -1.2972E-02  5.3657E-03  3.4417E-03  1.4454E-02
ac ID =   33377                -2.3163E-01 -6.6103E-01  2.2706E-02  7.0080E-01
                               -3.7456E-01  1.0650E+01 -4.7013E+01  2.5147E+03

           1    2.30027E+00     1.1050E-03  4.6933E-03  1.4883E-01  1.4891E-01
ac ID =   33377                -1.4526E-01 -8.1334E-01 -6.4410E-02  8.2871E-01
                               -3.7462E-01  1.0655E+01 -4.7024E+01  2.5147E+03

           1    2.40026E+00    -1.7251E-02 -1.6831E-03  1.8898E-01  1.8977E-01
ac ID =   33377                -1.5300E-01 -1.1842E+00  7.2111E-02  1.1962E+00
                               -3.7469E-01  1.0661E+01 -4.7035E+01  2.5147E+03

           1    2.50025E+00    -1.8284E-02  1.3595E-03 -1.4363E-04  1.8335E-02
ac ID =   33377                -1.9781E-01 -8.9028E-01  1.2990E-01  9.2119E-01
                               -3.7479E-01  1.0665E+01 -4.7045E+01  2.5147E+03

           1    2.60024E+00    -6.5226E-03  5.8159E-03 -7.6457E-02  7.6955E-02
ac ID =   33377                -2.0675E-01 -1.8542E-01  3.6758E-02  2.8014E-01
                               -3.7490E-01  1.0671E+01 -4.7056E+01  2.5147E+03

           1    2.70023E+00    -1.1784E-02 -1.9629E-03  1.0226E-02  1.5725E-02
ac ID =   33377                 3.1524E-02 -2.2052E-01  3.4195E-02  2.2537E-01
                               -3.7501E-01  1.0676E+01 -4.7068E+01  2.5147E+03

           1    2.80022E+00    -5.8011E-03 -4.6730E-03  6.3073E-02  6.3511E-02
ac ID =   33377                 3.6898E-01 -1.3863E-01 -1.4683E-02  3.9443E-01
                               -3.7510E-01  1.0682E+01 -4.7079E+01  2.5147E+03

           1    2.90021E+00     5.0202E-03 -2.8052E-03 -9.7005E-03  1.1277E-02
ac ID =   33377                 1.4579E-01  3.1500E-01 -8.0624E-02  3.5634E-01
                               -3.7520E-01  1.0687E+01 -4.7090E+01  2.5147E+03

           1    3.00020E+00    -6.7761E-03  1.9504E-03 -8.9349E-02  8.9627E-02
ac ID =   33377                -3.4348E-02  8.7330E-02 -4.8801E-02  1.0577E-01
                               -3.7530E-01  1.0692E+01 -4.7101E+01  2.5147E+03

           1    3.10019E+00    -1.6322E-03  2.5029E-04 -1.0608E-02  1.0736E-02
ac ID =   33377                 4.4319E-02 -2.2950E-01 -2.4696E-02  2.3504E-01
                               -3.7538E-01  1.0698E+01 -4.7113E+01  2.5147E+03

           1    3.20018E+00     4.8802E-03  1.9836E-03  6.8161E-02  6.8364E-02
ac ID =   33377                -1.8274E-02 -3.3077E-01  1.7766E-02  3.3175E-01
                               -3.7545E-01  1.0703E+01 -4.7125E+01  2.5147E+03

           1    3.30017E+00     5.5895E-03  1.0991E-03  7.8424E-03  9.6930E-03
ac ID =   33377                -2.3736E-01 -3.1475E-01  1.0109E-01  4.0697E-01
                               -3.7554E-01  1.0708E+01 -4.7137E+01  2.5147E+03

           1    3.40016E+00     3.1211E-03  3.2590E-03 -1.1178E-01  1.1187E-01
ac ID =   33377                -3.1785E-01  8.2761E-02  1.3572E-01  3.5538E-01
                               -3.7565E-01  1.0714E+01 -4.7148E+01  2.5147E+03

           1    3.50015E+00     4.5534E-03  4.1750E-03 -1.5026E-01  1.5039E-01
ac ID =   33377                -1.8402E-01  4.7550E-01  5.9086E-02  5.1328E-01
                               -3.7576E-01  1.0719E+01 -4.7160E+01  2.5147E+03

           1    3.60014E+00     1.9474E-02 -2.7192E-03 -7.9733E-02  8.2122E-02
ac ID =   33377                 8.1401E-02  1.0700E+00 -1.3310E-01  1.0813E+00
                               -3.7586E-01  1.0725E+01 -4.7172E+01  2.5147E+03

           1    3.70013E+00     2.4773E-02 -4.7001E-03 -7.6745E-02  8.0781E-02
ac ID =   33377                 2.3946E-01  1.2153E+00 -2.0116E-01  1.2549E+00
                               -3.7595E-01  1.0731E+01 -4.7184E+01  2.5147E+03

           1    3.80012E+00     2.4688E-02 -7.0946E-04 -1.6453E-01  1.6637E-01
ac ID =   33377                 1.5607E-01  1.4665E+00  5.5311E-02  1.4758E+00
                               -3.7606E-01  1.0738E+01 -4.7196E+01  2.5147E+03

           1    3.90011E+00     3.2508E-02 -1.8941E-03 -2.4140E-01  2.4358E-01
ac ID =   33377                 1.9185E-01  1.6554E+00 -1.4601E-03  1.6665E+00
                               -3.7615E-01  1.0744E+01 -4.7207E+01  2.5147E+03

           1    4.00010E+00     2.9235E-02  1.6066E-03 -1.9829E-01  2.0044E-01
ac ID =   33377                -1.8051E-01  1.2940E+00 -1.6516E-01  1.3169E+00
                               -3.7622E-01  1.0751E+01 -4.7220E+01  2.5147E+03

           1    4.10009E+00     3.3916E-02  2.4938E-04 -1.7203E-01  1.7534E-01
ac ID =   33377                -2.2774E-01  1.2219E+00 -2.6900E-02  1.2433E+00
                               -3.7629E-01  1.0759E+01 -4.7232E+01  2.5147E+03

           1    4.20008E+00     3.5822E-02  2.3729E-03 -2.3212E-01  2.3488E-01
ac ID =   33377                -1.8970E-01  1.3450E+00  1.6678E-01  1.3685E+00
                               -3.7641E-01  1.0767E+01 -4.7244E+01  2.5147E+03

           1    4.30007E+00     4.1657E-02  1.0921E-02 -3.4211E-01  3.4481E-01
ac ID =   33377                -5.2913E-01  1.8664E+00  2.6159E-01  1.9575E+00
                               -3.7652E-01  1.0776E+01 -4.7256E+01  2.5147E+03

           1    4.40006E+00     5.6143E-02  1.1862E-03 -3.2100E-01  3.2588E-01
ac ID =   33377                -1.9519E-01  2.3020E+00 -4.3171E-02  2.3106E+00
                               -3.7666E-01  1.0785E+01 -4.7268E+01  2.5147E+03

           1    4.50005E+00     6.0773E-02 -4.6645E-03 -2.5822E-01  2.6531E-01
ac ID =   33377                 1.8858E-01  2.2168E+00 -2.8331E-01  2.2428E+00
                               -3.7683E-01  1.0796E+01 -4.7281E+01  2.5147E+03

           1    4.60004E+00     6.7974E-02 -2.2450E-03 -3.2101E-01  3.2814E-01
ac ID =   33377                 1.2747E-01  2.4339E+00 -1.5693E-01  2.4423E+00
                               -3.7698E-01  1.0808E+01 -4.7294E+01  2.5147E+03

           1    4.70003E+00     6.7662E-02  4.1340E-03 -4.0771E-01  4.1331E-01
ac ID =   33377                 1.8724E-01  2.3680E+00  1.9643E-02  2.3755E+00
                               -3.7719E-01  1.0820E+01 -4.7307E+01  2.5147E+03

           1    4.80002E+00     7.2898E-02 -9.5420E-04 -4.4234E-01  4.4831E-01
ac ID =   33377                 6.4066E-02  2.4516E+00  1.7556E-01  2.4587E+00
                               -3.7737E-01  1.0834E+01 -4.7320E+01  2.5147E+03

           1    4.90001E+00     7.8810E-02 -4.9821E-03 -3.9802E-01  4.0578E-01
ac ID =   33377                -1.0503E-01  2.5130E+00 -1.9642E-01  2.5228E+00
                               -3.7752E-01  1.0850E+01 -4.7334E+01  2.5147E+03

           1    5.00000E+00     7.9929E-02  8.6578E-03 -4.0457E-01  4.1248E-01
ac ID =   33377                -5.8563E-01  2.5737E+00 -1.3464E-01  2.6430E+00
                               -3.7775E-01  1.0867E+01 -4.7348E+01  2.5147E+03

           1    5.10049E+00     8.6162E-02  5.1590E-03 -5.0209E-01  5.0946E-01
ac ID =   33377                -2.5271E-01  2.8951E+00  1.7704E-01  2.9115E+00
                               -3.7802E-01  1.0885E+01 -4.7362E+01  2.5147E+03

           1    5.20048E+00     8.3858E-02  3.0606E-03 -5.2580E-01  5.3246E-01
ac ID =   33377                -4.3653E-01  3.1480E+00  1.5361E-01  3.1819E+00
                               -3.7826E-01  1.0905E+01 -4.7376E+01  2.5147E+03

           1    5.30047E+00     1.0225E-01  5.9563E-03 -5.2795E-01  5.3780E-01
ac ID =   33377                -6.0283E-01  3.2866E+00 -1.3692E-01  3.3442E+00
                               -3.7857E-01  1.0926E+01 -4.7392E+01  2.5147E+03

           1    5.40046E+00     1.0354E-01 -2.1356E-03 -5.3520E-01  5.4513E-01
ac ID =   33377                 1.1929E-01  3.4319E+00 -2.8410E-01  3.4457E+00
                               -3.7895E-01  1.0950E+01 -4.7407E+01  2.5147E+03

           1    5.50045E+00     1.0023E-01 -5.9949E-03 -6.1409E-01  6.2225E-01
ac ID =   33377                 1.9877E-01  3.5710E+00 -5.8218E-02  3.5770E+00
                               -3.7927E-01  1.0974E+01 -4.7422E+01  2.5147E+03

           1    5.60044E+00     9.7210E-02  3.0754E-03 -7.0842E-01  7.1506E-01
ac ID =   33377                -1.3423E-01  3.7593E+00  1.1876E-01  3.7635E+00
                               -3.7965E-01  1.1001E+01 -4.7438E+01  2.5147E+03

           1    5.70043E+00     1.1549E-01 -2.3877E-03 -7.3471E-01  7.4373E-01
ac ID =   33377                -4.0567E-02  3.9949E+00  7.4870E-02  3.9958E+00
                               -3.8006E-01  1.1029E+01 -4.7454E+01  2.5147E+03

           1    5.80042E+00     1.2070E-01 -4.4446E-03 -7.0928E-01  7.1949E-01
ac ID =   33377                -2.6146E-02  4.0317E+00  3.1295E-02  4.0319E+00
                               -3.8043E-01  1.1059E+01 -4.7471E+01  2.5147E+03

           1    5.90041E+00     1.0923E-01 -5.9853E-04 -7.3786E-01  7.4590E-01
ac ID =   33377                -3.1134E-01  4.0734E+00  2.1345E-02  4.0853E+00
                               -3.8081E-01  1.1091E+01 -4.7487E+01  2.5147E+03

           1    6.00040E+00     1.2705E-01  1.8406E-02 -8.1844E-01  8.2844E-01
ac ID =   33377                -6.9440E-01  4.3974E+00  1.5135E-01  4.4545E+00
                               -3.8129E-01  1.1125E+01 -4.7504E+01  2.5147E+03

           1    6.10039E+00     1.2943E-01 -1.1662E-03 -8.3698E-01  8.4693E-01
ac ID =   33377                -2.6592E-01  4.4952E+00 -4.3326E-03  4.5030E+00
                               -3.8173E-01  1.1160E+01 -4.7521E+01  2.5147E+03

           1    6.20038E+00     1.1810E-01 -4.7483E-03 -8.1574E-01  8.2426E-01
ac ID =   33377                -3.1891E-01  4.0261E+00 -1.7631E-01  4.0425E+00
                               -3.8216E-01  1.1198E+01 -4.7538E+01  2.5147E+03

           1    6.30037E+00     1.2960E-01  1.0498E-02 -8.6882E-01  8.7849E-01
ac ID =   33377                -4.8376E-01  4.2489E+00  3.1310E-02  4.2765E+00
                               -3.8266E-01  1.1237E+01 -4.7556E+01  2.5147E+03

           1    6.40036E+00     1.4076E-01 -2.2840E-03 -9.7340E-01  9.8353E-01
ac ID =   33377                 2.6822E-01  4.8662E+00  1.1336E-01  4.8749E+00
                               -3.8317E-01  1.1279E+01 -4.7573E+01  2.5147E+03

           1    6.50035E+00     1.3226E-01 -1.1355E-02 -1.0210E+00  1.0296E+00
ac ID =   33377                 8.4790E-02  5.1186E+00  7.8819E-02  5.1199E+00
                               -3.8361E-01  1.1322E+01 -4.7590E+01  2.5147E+03

           1    6.60034E+00     1.3085E-01  1.4598E-02 -1.0221E+00  1.0305E+00
ac ID =   33377                -5.2059E-01  5.1350E+00 -1.6709E-01  5.1641E+00
                               -3.8414E-01  1.1367E+01 -4.7608E+01  2.5147E+03

           1    6.70033E+00     1.6579E-01 -1.0249E-02 -1.0484E+00  1.0615E+00
ac ID =   33377                 1.8110E-01  5.9037E+00 -1.1974E-01  5.9077E+00
                               -3.8462E-01  1.1414E+01 -4.7626E+01  2.5147E+03

           1    6.80032E+00     1.4949E-01 -2.3852E-03 -1.0992E+00  1.1093E+00
ac ID =   33377                -1.4236E-01  5.6977E+00  2.9877E-01  5.7073E+00
                               -3.8506E-01  1.1463E+01 -4.7643E+01  2.5147E+03

           1    6.90031E+00     1.4445E-01  1.5837E-02 -1.1760E+00  1.1849E+00
ac ID =   33377                -7.2148E-01  5.7675E+00  1.0576E-01  5.8134E+00
                               -3.8557E-01  1.1514E+01 -4.7660E+01  2.5147E+03

           1    7.00030E+00     1.6992E-01  2.2591E-03 -1.1908E+00  1.2029E+00
ac ID =   33377                -5.9161E-01  6.1969E+00 -1.0253E-01  6.2260E+00
                               -3.8604E-01  1.1567E+01 -4.7678E+01  2.5147E+03

           1    7.10029E+00     1.6371E-01 -8.8138E-03 -1.2167E+00  1.2277E+00
ac ID =   33377                 9.9045E-03  6.0911E+00 -2.5441E-01  6.0964E+00
                               -3.8653E-01  1.1622E+01 -4.7695E+01  2.5147E+03

           1    7.20028E+00     1.5627E-01  8.0379E-03 -1.3133E+00  1.3226E+00
ac ID =   33377                -6.0937E-01  6.2605E+00  1.1580E-01  6.2912E+00
                               -3.8701E-01  1.1679E+01 -4.7711E+01  2.5147E+03

           1    7.30027E+00     1.6897E-01  7.1028E-03 -1.3970E+00  1.4072E+00
ac ID =   33377                -1.6314E-01  6.8504E+00  3.6741E-01  6.8622E+00
                               -3.8753E-01  1.1738E+01 -4.7727E+01  2.5147E+03

           1    7.40026E+00     1.9539E-01 -7.8341E-03 -1.4440E+00  1.4572E+00
ac ID =   33377                 2.2668E-01  7.5525E+00  9.9920E-02  7.5566E+00
                               -3.8798E-01  1.1799E+01 -4.7743E+01  2.5147E+03

           1    7.50025E+00     1.7980E-01 -4.6465E-03 -1.4507E+00  1.4618E+00
ac ID =   33377                -5.5024E-03  7.5171E+00 -1.7869E-01  7.5192E+00
                               -3.8840E-01  1.1861E+01 -4.7759E+01  2.5147E+03

           1    7.60024E+00     1.9681E-01  1.0707E-02 -1.4868E+00  1.4998E+00
ac ID =   33377                -3.5910E-01  7.9137E+00 -1.4607E-01  7.9232E+00
                               -3.8883E-01  1.1926E+01 -4.7773E+01  2.5147E+03

           1    7.70023E+00     1.9504E-01 -9.8367E-03 -1.5415E+00  1.5538E+00
ac ID =   33377                 9.5541E-02  7.9721E+00 -1.6879E-02  7.9726E+00
                               -3.8925E-01  1.1992E+01 -4.7787E+01  2.5147E+03

           1    7.80022E+00     1.9493E-01  7.8427E-03 -1.5907E+00  1.6026E+00
ac ID =   33377                -5.3013E-01  7.7488E+00  7.1440E-02  7.7673E+00
                               -3.8963E-01  1.2060E+01 -4.7801E+01  2.5147E+03

           1    7.90021E+00     1.9558E-01  1.0277E-02 -1.6042E+00  1.6161E+00
ac ID =   33377                -7.2142E-01  8.0858E+00 -6.5434E-03  8.1179E+00
                               -3.9000E-01  1.2130E+01 -4.7814E+01  2.5147E+03

           1    8.00020E+00     2.0886E-01 -2.8339E-03 -1.6568E+00  1.6699E+00
ac ID =   33377                -2.2551E-01  8.3061E+00 -6.6548E-02  8.3094E+00
                               -3.9037E-01  1.2201E+01 -4.7826E+01  2.5147E+03

           1    8.10019E+00     2.1204E-01  2.2965E-03 -1.7517E+00  1.7645E+00
ac ID =   33377                -3.7002E-01  9.0644E+00  1.2990E-01  9.0729E+00
                               -3.9073E-01  1.2275E+01 -4.7837E+01  2.5147E+03

           1    8.20018E+00     2.3323E-01  8.4859E-03 -1.7983E+00  1.8134E+00
ac ID =   33377                -2.8568E-01  9.7051E+00  1.0618E-01  9.7099E+00
                               -3.9108E-01  1.2350E+01 -4.7847E+01  2.5147E+03

           1    8.30017E+00     2.2163E-01 -4.5683E-03 -1.8384E+00  1.8517E+00
ac ID =   33377                 1.4960E-01  9.8676E+00 -1.3441E-03  9.8687E+00
                               -3.9139E-01  1.2427E+01 -4.7857E+01  2.5147E+03

           1    8.40016E+00     2.3799E-01 -7.0278E-04 -1.8704E+00  1.8855E+00
ac ID =   33377                -3.4088E-02  1.0223E+01 -2.9409E-02  1.0223E+01
                               -3.9165E-01  1.2506E+01 -4.7865E+01  2.5147E+03

           1    8.50015E+00     2.4096E-01  3.4772E-03 -1.9197E+00  1.9347E+00
ac ID =   33377                -2.2039E-01  1.0463E+01  3.2777E-02  1.0466E+01
                               -3.9192E-01  1.2586E+01 -4.7872E+01  2.5147E+03

           1    8.60014E+00     2.3540E-01  2.2220E-03 -1.9807E+00  1.9946E+00
ac ID =   33377                -1.9501E-01  1.0563E+01 -1.4151E-01  1.0566E+01
                               -3.9215E-01  1.2668E+01 -4.7879E+01  2.5147E+03

           1    8.70013E+00     2.3350E-01 -2.0241E-03 -2.0205E+00  2.0340E+00
ac ID =   33377                -4.8468E-01  1.0510E+01 -1.2079E-01  1.0522E+01
                               -3.9234E-01  1.2751E+01 -4.7883E+01  2.5147E+03

           1    8.80012E+00     2.6425E-01  7.4596E-03 -2.0697E+00  2.0865E+00
ac ID =   33377                -6.3282E-01  1.1205E+01  2.1509E-02  1.1223E+01
                               -3.9258E-01  1.2836E+01 -4.7887E+01  2.5147E+03

           1    8.90011E+00     2.5636E-01  2.8093E-03 -2.1175E+00  2.1330E+00
ac ID =   33377                -4.7269E-01  1.1413E+01  2.1013E-01  1.1424E+01
                               -3.9280E-01  1.2923E+01 -4.7889E+01  2.5147E+03

           1    9.00010E+00     2.5289E-01 -2.1011E-04 -2.1832E+00  2.1978E+00
ac ID =   33377                -4.4362E-01  1.1501E+01  2.0116E-01  1.1511E+01
                               -3.9295E-01  1.3011E+01 -4.7890E+01  2.5147E+03

           1    9.10009E+00     2.8910E-01  1.1253E-02 -2.2147E+00  2.2335E+00
ac ID =   33377                -4.2231E-01  1.2509E+01 -5.5695E-02  1.2517E+01
                               -3.9320E-01  1.3100E+01 -4.7889E+01  2.5147E+03

           1    9.20008E+00     2.7916E-01 -3.2639E-03 -2.2526E+00  2.2698E+00
ac ID =   33377                -3.3625E-02  1.2535E+01 -2.2167E-01  1.2537E+01
                               -3.9332E-01  1.3191E+01 -4.7887E+01  2.5147E+03

           1    9.30007E+00     2.6209E-01 -6.4170E-03 -2.2849E+00  2.2999E+00
ac ID =   33377                -1.8389E-01  1.2363E+01 -1.8255E-02  1.2364E+01
                               -3.9333E-01  1.3283E+01 -4.7883E+01  2.5147E+03

           1    9.40006E+00     2.9078E-01  4.6000E-03 -2.3248E+00  2.3429E+00
ac ID =   33377                -1.4094E-01  1.2979E+01  5.0618E-02  1.2980E+01
                               -3.9347E-01  1.3376E+01 -4.7878E+01  2.5147E+03

           1    9.50005E+00     2.9432E-01  7.6524E-03 -2.3811E+00  2.3993E+00
ac ID =   33377                -4.9483E-01  1.3422E+01  8.7639E-02  1.3431E+01
                               -3.9349E-01  1.3471E+01 -4.7871E+01  2.5147E+03

           1    9.60004E+00     2.8246E-01  3.2682E-04 -2.3973E+00  2.4138E+00
ac ID =   33377                -5.0742E-01  1.3262E+01 -1.0659E-01  1.3272E+01
                               -3.9346E-01  1.3567E+01 -4.7862E+01  2.5147E+03

           1    9.70003E+00     2.9722E-01  8.8521E-03 -2.4078E+00  2.4261E+00
ac ID =   33377                -6.0638E-01  1.3672E+01 -1.0583E-01  1.3686E+01
                               -3.9348E-01  1.3664E+01 -4.7851E+01  2.5147E+03

           1    9.80002E+00     3.1460E-01  9.2921E-03 -2.4395E+00  2.4597E+00
ac ID =   33377                -5.9202E-01  1.4034E+01  1.1801E-01  1.4047E+01
                               -3.9343E-01  1.3763E+01 -4.7838E+01  2.5147E+03

           1    9.90001E+00     2.9432E-01  3.9663E-03 -2.4717E+00  2.4892E+00
ac ID =   33377                -4.8163E-01  1.3891E+01  2.7768E-01  1.3902E+01
                               -3.9333E-01  1.3862E+01 -4.7823E+01  2.5147E+03

           1    1.00005E+01     3.0686E-01  8.0554E-03 -2.5019E+00  2.5207E+00
ac ID =   33377                -3.6016E-01  1.4291E+01  1.3846E-01  1.4296E+01
                               -3.9325E-01  1.3964E+01 -4.7806E+01  2.5147E+03

           1    1.01005E+01     3.2313E-01 -1.8095E-04 -2.5367E+00  2.5572E+00
ac ID =   33377                -3.4139E-01  1.4647E+01  2.9857E-02  1.4651E+01
                               -3.9307E-01  1.4065E+01 -4.7787E+01  2.5147E+03

           1    1.02005E+01     3.0578E-01  7.3113E-04 -2.5643E+00  2.5825E+00
ac ID =   33377                -3.4244E-01  1.4310E+01 -2.2753E-02  1.4314E+01
                               -3.9286E-01  1.4168E+01 -4.7765E+01  2.5147E+03

           1    1.03005E+01     3.1993E-01  2.6581E-03 -2.5974E+00  2.6170E+00
ac ID =   33377                -1.9869E-01  1.4721E+01 -8.7116E-02  1.4723E+01
                               -3.9266E-01  1.4272E+01 -4.7741E+01  2.5147E+03

           1    1.04005E+01     3.2850E-01  3.3313E-03 -2.6320E+00  2.6524E+00
ac ID =   33377                -4.4598E-01  1.4908E+01  6.4101E-02  1.4915E+01
                               -3.9241E-01  1.4376E+01 -4.7715E+01  2.5147E+03

           1    1.05004E+01     3.2528E-01  4.4048E-03 -2.6359E+00  2.6559E+00
ac ID =   33377                -4.2716E-01  1.4975E+01  1.5684E-02  1.4981E+01
                               -3.9217E-01  1.4482E+01 -4.7686E+01  2.5147E+03

           1    1.06004E+01     3.2708E-01  1.2592E-03 -2.6230E+00  2.6433E+00
ac ID =   33377                -4.5348E-01  1.5153E+01  1.3397E-01  1.5161E+01
                               -3.9192E-01  1.4588E+01 -4.7655E+01  2.5147E+03

           1    1.07004E+01     3.4832E-01  7.3174E-03 -2.6489E+00  2.6717E+00
ac ID =   33377                -4.2906E-01  1.5364E+01  1.5947E-01  1.5371E+01
                               -3.9165E-01  1.4695E+01 -4.7622E+01  2.5147E+03

           1    1.08004E+01     3.4602E-01  3.6199E-03 -2.6941E+00  2.7162E+00
ac ID =   33377                -3.6330E-01  1.5456E+01 -2.6513E-02  1.5461E+01
                               -3.9139E-01  1.4803E+01 -4.7586E+01  2.5147E+03

           1    1.09004E+01     3.3229E-01  3.1720E-03 -2.7046E+00  2.7249E+00
ac ID =   33377                -1.3937E-01  1.5160E+01 -8.2268E-02  1.5161E+01
                               -3.9108E-01  1.4913E+01 -4.7547E+01  2.5147E+03

           1    1.10004E+01     3.4928E-01 -1.3070E-03 -2.7068E+00  2.7292E+00
ac ID =   33377                -1.8773E-01  1.5741E+01 -1.2064E-02  1.5742E+01
                               -3.9076E-01  1.5023E+01 -4.7507E+01  2.5147E+03

           1    1.11004E+01     3.5081E-01  7.9993E-03 -2.7210E+00  2.7435E+00
ac ID =   33377                -2.2655E-01  1.5893E+01  1.5907E-01  1.5896E+01
                               -3.9046E-01  1.5134E+01 -4.7463E+01  2.5147E+03

           1    1.12004E+01     3.5866E-01 -1.7934E-03 -2.7278E+00  2.7513E+00
ac ID =   33377                -7.6428E-02  1.6277E+01  9.2774E-02  1.6277E+01
                               -3.9011E-01  1.5246E+01 -4.7418E+01  2.5147E+03

           1    1.13004E+01     3.5487E-01 -3.1277E-03 -2.7292E+00  2.7522E+00
ac ID =   33377                -1.5045E-01  1.6310E+01 -2.4479E-01  1.6313E+01
                               -3.8973E-01  1.5358E+01 -4.7370E+01  2.5147E+03

           1    1.14004E+01     3.5639E-01  1.0219E-02 -2.6959E+00  2.7194E+00
ac ID =   33377                -4.6977E-01  1.6150E+01 -2.5297E-01  1.6159E+01
                               -3.8939E-01  1.5472E+01 -4.7319E+01  2.5147E+03

           1    1.15003E+01     3.6119E-01 -3.3014E-03 -2.6721E+00  2.6964E+00
ac ID =   33377                -1.6744E-01  1.6216E+01 -7.0763E-02  1.6217E+01
                               -3.8898E-01  1.5586E+01 -4.7266E+01  2.5147E+03

           1    1.16003E+01     3.5838E-01  3.3191E-03 -2.6911E+00  2.7148E+00
ac ID =   33377                -3.0959E-01  1.6127E+01  1.0672E-02  1.6130E+01
                               -3.8860E-01  1.5702E+01 -4.7211E+01  2.5147E+03

           1    1.17003E+01     3.6170E-01  7.2482E-03 -2.7030E+00  2.7271E+00
ac ID =   33377                -4.7581E-01  1.6342E+01  6.8593E-02  1.6349E+01
                               -3.8822E-01  1.5818E+01 -4.7153E+01  2.5147E+03

           1    1.18003E+01     3.6658E-01 -2.7117E-03 -2.6849E+00  2.7098E+00
ac ID =   33377                -6.0030E-02  1.6347E+01 -1.5184E-01  1.6348E+01
                               -3.8781E-01  1.5934E+01 -4.7092E+01  2.5147E+03

           1    1.19003E+01     3.6149E-01  2.0222E-03 -2.6523E+00  2.6768E+00
ac ID =   33377                -2.7865E-02  1.6233E+01 -3.2629E-01  1.6237E+01
                               -3.8740E-01  1.6052E+01 -4.7030E+01  2.5147E+03

           1    1.20003E+01     3.5378E-01  3.8389E-03 -2.6122E+00  2.6361E+00
ac ID =   33377                -1.2772E-01  1.6075E+01 -7.8060E-03  1.6076E+01
                               -3.8696E-01  1.6170E+01 -4.6964E+01  2.5147E+03

           1    1.21003E+01     3.5456E-01  2.9652E-04 -2.6270E+00  2.6508E+00
ac ID =   33377                -2.1335E-02  1.6112E+01  2.8648E-02  1.6112E+01
                               -3.8648E-01  1.6288E+01 -4.6896E+01  2.5147E+03

           1    1.22003E+01     3.5923E-01 -5.0573E-03 -2.5812E+00  2.6060E+00
ac ID =   33377                -2.9005E-02  1.5833E+01 -6.6338E-02  1.5833E+01
                               -3.8598E-01  1.6407E+01 -4.6825E+01  2.5147E+03

           1    1.23003E+01     3.4230E-01  8.7720E-03 -2.5053E+00  2.5286E+00
ac ID =   33377                -3.9437E-01  1.5317E+01 -2.3111E-01  1.5324E+01
                               -3.8543E-01  1.6526E+01 -4.6752E+01  2.5147E+03

           1    1.24003E+01     3.5368E-01  1.4169E-02 -2.4711E+00  2.4963E+00
ac ID =   33377                -4.9213E-01  1.5342E+01 -8.1419E-02  1.5351E+01
                               -3.8482E-01  1.6645E+01 -4.6675E+01  2.5147E+03

           1    1.25002E+01     3.4711E-01 -8.6101E-04 -2.4736E+00  2.4978E+00
ac ID =   33377                -1.2818E-01  1.5066E+01 -4.6264E-02  1.5066E+01
                               -3.8414E-01  1.6765E+01 -4.6597E+01  2.5147E+03

           1    1.26002E+01     3.5601E-01  8.5739E-03 -2.4790E+00  2.5044E+00
ac ID =   33377                -4.5231E-01  1.5278E+01 -3.0197E-01  1.5287E+01
                               -3.8341E-01  1.6885E+01 -4.6515E+01  2.5147E+03

           1    1.27002E+01     3.3514E-01  1.4738E-02 -2.3924E+00  2.4159E+00
ac ID =   33377                -7.1583E-01  1.4608E+01 -3.2855E-01  1.4629E+01
                               -3.8261E-01  1.7005E+01 -4.6431E+01  2.5147E+03

           1    1.28002E+01     3.6460E-01 -6.6313E-03 -2.3466E+00  2.3748E+00
ac ID =   33377                 2.3616E-01  1.4879E+01  1.3935E-02  1.4881E+01
                               -3.8176E-01  1.7125E+01 -4.6345E+01  2.5147E+03

           1    1.29002E+01     3.3457E-01 -5.2341E-03 -2.3225E+00  2.3465E+00
ac ID =   33377                 1.6192E-01  1.4441E+01  1.6104E-01  1.4443E+01
                               -3.8081E-01  1.7246E+01 -4.6256E+01  2.5147E+03

           1    1.30002E+01     3.5017E-01  2.3560E-02 -2.2763E+00  2.3032E+00
ac ID =   33377                -7.1543E-01  1.3946E+01  2.1062E-01  1.3966E+01
                               -3.7978E-01  1.7367E+01 -4.6165E+01  2.5147E+03

           1    1.31002E+01     3.3673E-01  3.2839E-03 -2.2176E+00  2.2430E+00
ac ID =   33377                 8.5381E-02  1.3711E+01 -1.5555E-01  1.3712E+01
                               -3.7874E-01  1.7488E+01 -4.6071E+01  2.5147E+03

           1    1.32002E+01     3.4632E-01 -8.1377E-03 -2.1738E+00  2.2012E+00
ac ID =   33377                -6.9372E-02  1.3337E+01 -4.0061E-01  1.3343E+01
                               -3.7756E-01  1.7609E+01 -4.5975E+01  2.5147E+03

           1    1.33002E+01     3.3599E-01  1.3841E-02 -2.1267E+00  2.1532E+00
ac ID =   33377                -9.4328E-01  1.3332E+01 -2.6391E-01  1.3367E+01
                               -3.7633E-01  1.7730E+01 -4.5877E+01  2.5147E+03

           1    1.34002E+01     3.2621E-01  1.9080E-02 -2.0815E+00  2.1070E+00
ac ID =   33377                -7.8705E-01  1.2574E+01  7.2338E-02  1.2599E+01
                               -3.7513E-01  1.7852E+01 -4.5776E+01  2.5147E+03

           1    1.35001E+01     3.4985E-01 -1.5289E-02 -2.0503E+00  2.0800E+00
ac ID =   33377                 2.1039E-01  1.3046E+01 -5.2788E-02  1.3048E+01
                               -3.7378E-01  1.7974E+01 -4.5673E+01  2.5147E+03

           1    1.36001E+01     3.3411E-01  1.2475E-02 -1.9871E+00  2.0151E+00
ac ID =   33377                -6.7048E-01  1.2550E+01 -2.3257E-03  1.2568E+01
                               -3.7240E-01  1.8096E+01 -4.5569E+01  2.5147E+03

           1    1.37001E+01     3.0851E-01  2.6937E-02 -1.9053E+00  1.9303E+00
ac ID =   33377                -7.8527E-01  1.1691E+01  1.0142E-01  1.1717E+01
                               -3.7104E-01  1.8219E+01 -4.5463E+01  2.5147E+03

           1    1.38001E+01     3.2711E-01 -2.6413E-02 -1.8765E+00  1.9050E+00
ac ID =   33377                 7.3013E-01  1.1865E+01 -9.9745E-02  1.1887E+01
                               -3.6958E-01  1.8342E+01 -4.5354E+01  2.5147E+03

           1    1.39001E+01     3.3004E-01 -1.1672E-03 -1.8358E+00  1.8653E+00
ac ID =   33377                -3.1054E-02  1.1286E+01  2.1370E-01  1.1288E+01
                               -3.6800E-01  1.8465E+01 -4.5244E+01  2.5147E+03

           1    1.40001E+01     3.1041E-01  2.2806E-02 -1.7558E+00  1.7832E+00
ac ID =   33377                -7.9273E-01  1.0237E+01  3.9873E-01  1.0275E+01
                               -3.6648E-01  1.8589E+01 -4.5133E+01  2.5147E+03

           1    1.41001E+01     3.1830E-01  4.8137E-03 -1.6851E+00  1.7149E+00
ac ID =   33377                -1.8762E-01  9.9786E+00  4.9901E-01  9.9928E+00
                               -3.6489E-01  1.8714E+01 -4.5020E+01  2.5147E+03

           1    1.42001E+01     3.2290E-01 -2.8909E-02 -1.6293E+00  1.6612E+00
ac ID =   33377                 7.4412E-02  1.0009E+01  2.1517E-01  1.0011E+01
                               -3.6316E-01  1.8839E+01 -4.4905E+01  2.5147E+03

           1    1.43001E+01     2.9790E-01  2.3173E-02 -1.5725E+00  1.6006E+00
ac ID =   33377                -8.8686E-01  8.8486E+00  6.1911E-04  8.8930E+00
                               -3.6157E-01  1.8964E+01 -4.4789E+01  2.5147E+03

           1    1.44001E+01     2.8092E-01  1.2400E-02 -1.5087E+00  1.5347E+00
ac ID =   33377                -5.5214E-01  8.4030E+00  3.4960E-01  8.4284E+00
                               -3.5994E-01  1.9090E+01 -4.4672E+01  2.5147E+03

           1    1.45000E+01     3.0427E-01 -2.3549E-02 -1.4484E+00  1.4802E+00
ac ID =   33377                 4.3492E-01  8.4766E+00  2.0867E-01  8.4903E+00
                               -3.5830E-01  1.9216E+01 -4.4554E+01  2.5147E+03

           1    1.46000E+01     2.3875E-01 -3.9457E-03 -1.3819E+00  1.4023E+00
ac ID =   33377                 1.7838E-01  6.9714E+00  1.2782E-01  6.9749E+00
                               -3.5676E-01  1.9343E+01 -4.4434E+01  2.5147E+03

           1    1.47000E+01     2.6170E-01  1.6885E-02 -1.3510E+00  1.3762E+00
ac ID =   33377                -5.4294E-01  7.0070E+00 -2.1781E-02  7.0280E+00
                               -3.5520E-01  1.9470E+01 -4.4313E+01  2.5147E+03

           1    1.48005E+01     2.7497E-01 -1.2768E-02 -1.2929E+00  1.3219E+00
ac ID =   33377                 3.7977E-01  6.9667E+00  1.2486E-01  6.9782E+00
                               -3.5369E-01  1.9598E+01 -4.4191E+01  2.5147E+03

           1    1.49005E+01     2.4723E-01 -1.4485E-02 -1.1873E+00  1.2129E+00
ac ID =   33377                 4.6061E-01  5.6920E+00  5.5462E-02  5.7109E+00
                               -3.5218E-01  1.9727E+01 -4.4068E+01  2.5147E+03

           1    1.50005E+01     2.5552E-01  1.3954E-02 -1.1280E+00  1.1567E+00
ac ID =   33377                -7.4732E-01  5.8403E+00 -1.7768E-01  5.8906E+00
                               -3.5067E-01  1.9855E+01 -4.3944E+01  2.5147E+03

           1    1.51005E+01     2.3356E-01  1.6863E-02 -1.0735E+00  1.0987E+00
ac ID =   33377                -5.5072E-01  5.2523E+00 -2.0457E-01  5.2851E+00
                               -3.4934E-01  1.9984E+01 -4.3819E+01  2.5147E+03

           1    1.52005E+01     2.1629E-01  4.6487E-03 -9.8728E-01  1.0107E+00
ac ID =   33377                -2.3420E-01  4.7246E+00  6.7407E-02  4.7308E+00
                               -3.4786E-01  2.0113E+01 -4.3693E+01  2.5147E+03

           1    1.53005E+01     1.6242E-01 -1.3416E-02 -9.3658E-01  9.5065E-01
ac ID =   33377                -7.3859E-02  3.3399E+00  2.5223E-01  3.3502E+00
                               -3.4636E-01  2.0242E+01 -4.3566E+01  2.5147E+03

           1    1.54005E+01     2.0732E-01  1.6257E-02 -8.2726E-01  8.5300E-01
ac ID =   33377                -4.1805E-01  3.4066E+00 -2.5275E-01  3.4414E+00
                               -3.4505E-01  2.0371E+01 -4.3439E+01  2.5147E+03

           1    1.55004E+01     1.6906E-01  1.8213E-02 -7.8293E-01  8.0119E-01
ac ID =   33377                -2.5326E-01  2.5582E+00 -1.7703E-01  2.5768E+00
                               -3.4368E-01  2.0500E+01 -4.3310E+01  2.5147E+03

           1    1.56004E+01     1.4106E-01 -3.0951E-02 -7.5368E-01  7.6740E-01
ac ID =   33377                 5.6531E-01  2.1694E+00  1.8822E-01  2.2498E+00
                               -3.4215E-01  2.0630E+01 -4.3181E+01  2.5147E+03

           1    1.57004E+01     1.7378E-01  5.5011E-03 -6.4933E-01  6.7220E-01
ac ID =   33377                 2.3526E-02  2.0411E+00  4.4885E-01  2.0900E+00
                               -3.4082E-01  2.0759E+01 -4.3051E+01  2.5147E+03

           1    1.58004E+01     1.6325E-01  9.2064E-03 -5.8689E-01  6.0925E-01
ac ID =   33377                -2.2407E-01  2.4859E+00  2.4211E-01  2.5077E+00
                               -3.3943E-01  2.0888E+01 -4.2921E+01  2.5147E+03

           1    1.59004E+01     1.3415E-01 -1.1389E-03 -5.1105E-01  5.2837E-01
ac ID =   33377                 1.0269E-02  2.0824E+00 -4.3310E-02  2.0829E+00
                               -3.3793E-01  2.1018E+01 -4.2790E+01  2.5147E+03

           1    1.60004E+01     1.5636E-01 -2.2325E-02 -4.8565E-01  5.1069E-01
ac ID =   33377                 3.6124E-02  3.4461E+00 -2.1382E-01  3.4529E+00
                               -3.3649E-01  2.1147E+01 -4.2659E+01  2.5147E+03

           1    1.61004E+01     1.5844E-01  2.7225E-02 -3.8884E-01  4.2076E-01
ac ID =   33377                -6.2025E-01  3.8462E+00 -2.2970E-02  3.8960E+00
                               -3.3516E-01  2.1276E+01 -4.2527E+01  2.5147E+03

           1    1.62004E+01     1.4371E-01  2.0343E-02 -3.2516E-01  3.5608E-01
ac ID =   33377                -4.2246E-01  3.4603E+00  2.4852E-01  3.4948E+00
                               -3.3373E-01  2.1405E+01 -4.2395E+01  2.5147E+03

           1    1.63004E+01     1.4920E-01 -3.2669E-02 -3.0134E-01  3.3783E-01
ac ID =   33377                 4.8535E-01  4.1211E+00  2.7341E-01  4.1586E+00
                               -3.3226E-01  2.1534E+01 -4.2263E+01  2.5147E+03

           1    1.64004E+01     1.6841E-01  7.0085E-03 -2.2221E-01  2.7891E-01
ac ID =   33377                 1.3955E-01  4.1948E+00  4.0026E-01  4.2161E+00
                               -3.3098E-01  2.1663E+01 -4.2131E+01  2.5147E+03

           1    1.65003E+01     1.3412E-01  2.3514E-02 -1.9074E-01  2.3436E-01
ac ID =   33377                -5.3033E-01  4.1703E+00  4.2881E-01  4.2257E+00
                               -3.2955E-01  2.1791E+01 -4.2000E+01  2.5147E+03

           1    1.66003E+01     1.6050E-01 -2.5914E-02 -1.4230E-01  2.1606E-01
ac ID =   33377                 6.4264E-01  4.5979E+00  4.6543E-02  4.6428E+00
                               -3.2811E-01  2.1920E+01 -4.1868E+01  2.5147E+03

           1    1.67003E+01     1.8212E-01 -7.5855E-03 -5.4165E-02  1.9016E-01
ac ID =   33377                 4.1969E-01  5.5091E+00 -4.1638E-01  5.5407E+00
                               -3.2673E-01  2.2048E+01 -4.1737E+01  2.5147E+03

           1    1.68003E+01     1.3567E-01  1.4263E-02 -4.3386E-03  1.3649E-01
ac ID =   33377                -6.3027E-01  4.6395E+00 -3.8355E-01  4.6978E+00
                               -3.2529E-01  2.2176E+01 -4.1607E+01  2.5147E+03

           1    1.69003E+01     1.4938E-01  1.0017E-02  2.8526E-02  1.5241E-01
ac ID =   33377                -1.4014E-01  4.9211E+00  9.8199E-02  4.9241E+00
                               -3.2392E-01  2.2305E+01 -4.1476E+01  2.5147E+03

           1    1.70003E+01     1.5366E-01 -6.1277E-03  1.1867E-01  1.9425E-01
ac ID =   33377                 1.8394E-01  4.9492E+00  2.0982E-01  4.9570E+00
                               -3.2251E-01  2.2433E+01 -4.1347E+01  2.5147E+03

           1    1.71003E+01     1.3379E-01 -4.4771E-03  1.7392E-01  2.1948E-01
ac ID =   33377                -1.7146E-01  4.1944E+00  1.7206E-02  4.1980E+00
                               -3.2109E-01  2.2560E+01 -4.1218E+01  2.5147E+03

           1    1.72003E+01     1.0446E-01  2.5113E-02  2.1333E-01  2.3886E-01
ac ID =   33377                -7.7613E-01  4.0825E+00 -1.9506E-01  4.1602E+00
                               -3.1977E-01  2.2689E+01 -4.1091E+01  2.5147E+03

           1    1.73003E+01     1.5198E-01 -1.2214E-02  2.5401E-01  2.9625E-01
ac ID =   33377                 3.9302E-01  4.1257E+00 -4.2894E-03  4.1444E+00
                               -3.1843E-01  2.2816E+01 -4.0964E+01  2.5147E+03

           1    1.74003E+01     1.2344E-01 -1.5871E-02  3.0485E-01  3.2928E-01
ac ID =   33377                 4.7493E-01  3.8471E+00  3.2580E-01  3.8900E+00
                               -3.1704E-01  2.2944E+01 -4.0838E+01  2.5147E+03

           1    1.75002E+01     8.3690E-02  2.6397E-02  3.6805E-01  3.7836E-01
ac ID =   33377                -8.7314E-01  2.4595E+00 -2.4825E-02  2.6100E+00
                               -3.1576E-01  2.3072E+01 -4.0713E+01  2.5147E+03

           1    1.76002E+01     1.2342E-01 -7.1428E-03  4.1117E-01  4.2936E-01
ac ID =   33377                 2.3373E-01  3.1135E+00 -3.8300E-01  3.1456E+00
                               -3.1446E-01  2.3200E+01 -4.0590E+01  2.5147E+03

           1    1.77002E+01     1.1472E-01 -2.4344E-02  4.3226E-01  4.4789E-01
ac ID =   33377                 4.1335E-01  2.7267E+00 -3.1558E-01  2.7758E+00
                               -3.1313E-01  2.3329E+01 -4.0468E+01  2.5147E+03

           1    1.78002E+01     6.1892E-02  2.3061E-02  4.8877E-01  4.9321E-01
ac ID =   33377                -7.1382E-01  1.4539E+00 -8.7769E-02  1.6220E+00
                               -3.1188E-01  2.3457E+01 -4.0347E+01  2.5147E+03

           1    1.79002E+01     8.3400E-02  7.4880E-03  5.4049E-01  5.4694E-01
ac ID =   33377                -6.1987E-01  1.8067E+00 -1.2755E-01  1.9143E+00
                               -3.1066E-01  2.3586E+01 -4.0228E+01  2.5147E+03

           1    1.80002E+01     8.1846E-02 -1.0641E-02  5.6532E-01  5.7132E-01
ac ID =   33377                 2.2384E-01  1.1920E+00  1.3922E-01  1.2208E+00
                               -3.0944E-01  2.3715E+01 -4.0111E+01  2.5147E+03

           1    1.81002E+01     5.1530E-02 -8.1041E-03  6.0583E-01  6.0807E-01
ac ID =   33377                -1.8249E-01  3.7867E-01  2.8963E-01  5.1047E-01
                               -3.0823E-01  2.3844E+01 -3.9995E+01  2.5147E+03

           1    1.82002E+01     7.7414E-02  3.5063E-02  6.2891E-01  6.3463E-01
ac ID =   33377                -9.5705E-01  4.7315E-01  1.0462E-01  1.0727E+00
                               -3.0714E-01  2.3974E+01 -3.9881E+01  2.5147E+03

           1    1.83002E+01     5.3256E-02 -6.4331E-03  6.6978E-01  6.7193E-01
ac ID =   33377                 1.9410E-01  1.0769E-01  1.2854E-02  2.2235E-01
                               -3.0604E-01  2.4104E+01 -3.9768E+01  2.5147E+03

           1    1.84002E+01     5.1150E-02 -2.9248E-02  7.0169E-01  7.0416E-01
ac ID =   33377                 4.5388E-01 -5.5571E-01 -4.2942E-01  8.3619E-01
                               -3.0487E-01  2.4234E+01 -3.9657E+01  2.5147E+03

           1    1.85001E+01     4.1181E-02  2.6101E-02  7.4087E-01  7.4247E-01
ac ID =   33377                -6.3981E-01 -8.3472E-01 -2.2964E-01  1.0765E+00
                               -3.0386E-01  2.4365E+01 -3.9548E+01  2.5147E+03

           1    1.86001E+01     5.2468E-02  7.5476E-03  7.4611E-01  7.4799E-01
ac ID =   33377                -1.9647E-01 -1.0450E+00  1.3049E-01  1.0713E+00
                               -3.0284E-01  2.4496E+01 -3.9441E+01  2.5147E+03

           1    1.87001E+01     3.7804E-02 -1.6830E-02  7.8999E-01  7.9107E-01
ac ID =   33377                 4.8648E-01 -1.5135E+00  6.5541E-02  1.5911E+00
                               -3.0182E-01  2.4628E+01 -3.9336E+01  2.5147E+03

           1    1.88001E+01     3.9933E-02  1.2101E-02  8.2650E-01  8.2755E-01
ac ID =   33377                -7.1789E-01 -1.6812E+00 -2.2189E-01  1.8415E+00
                               -3.0078E-01  2.4760E+01 -3.9233E+01  2.5147E+03

           1    1.89001E+01     3.9700E-02  1.3063E-02  8.4318E-01  8.4422E-01
ac ID =   33377                -4.4001E-01 -2.0416E+00 -4.2084E-01  2.1305E+00
                               -2.9987E-01  2.4892E+01 -3.9132E+01  2.5147E+03

           1    1.90001E+01     1.7039E-02 -6.9721E-04  8.6016E-01  8.6033E-01
ac ID =   33377                -1.6097E-01 -2.7480E+00  3.4977E-02  2.7530E+00
                               -2.9896E-01  2.5025E+01 -3.9033E+01  2.5147E+03

           1    1.91001E+01     3.7767E-02 -4.4369E-03  8.9580E-01  8.9661E-01
ac ID =   33377                -4.9922E-02 -2.8689E+00  4.4945E-01  2.9043E+00
                               -2.9804E-01  2.5159E+01 -3.8936E+01  2.5147E+03

           1    1.92001E+01     1.8591E-02  9.6443E-03  9.3166E-01  9.3189E-01
ac ID =   33377                -3.4937E-01 -3.3126E+00  1.8624E-01  3.3362E+00
                               -2.9719E-01  2.5293E+01 -3.8841E+01  2.5147E+03

           1    1.93001E+01     2.6285E-02  4.0105E-06  9.2837E-01  9.2874E-01
ac ID =   33377                -1.2830E-01 -3.4364E+00 -4.0891E-01  3.4630E+00
                               -2.9639E-01  2.5428E+01 -3.8749E+01  2.5147E+03

           1    1.94001E+01     4.8167E-03 -8.2023E-03  9.4932E-01  9.4937E-01
ac ID =   33377                 2.2299E-01 -4.0084E+00 -5.5430E-01  4.0527E+00
                               -2.9559E-01  2.5563E+01 -3.8659E+01  2.5147E+03

           1    1.95000E+01     2.8052E-02 -2.3184E-03  9.4886E-01  9.4928E-01
ac ID =   33377                -1.1942E-01 -3.8989E+00 -3.8857E-01  3.9200E+00
                               -2.9478E-01  2.5699E+01 -3.8571E+01  2.5147E+03

           1    1.96000E+01    -4.3272E-03  7.5271E-03  9.7422E-01  9.7426E-01
ac ID =   33377                -2.3565E-01 -4.8284E+00  2.0702E-01  4.8386E+00
                               -2.9407E-01  2.5835E+01 -3.8485E+01  2.5147E+03

           1    1.97005E+01     3.1824E-03  4.7109E-03  9.7419E-01  9.7421E-01
ac ID =   33377                -1.6831E-01 -5.1609E+00  3.9138E-01  5.1784E+00
                               -2.9337E-01  2.5973E+01 -3.8401E+01  2.5147E+03

           1    1.98005E+01     1.7645E-02 -9.1982E-03  9.8458E-01  9.8478E-01
ac ID =   33377                -5.2205E-02 -5.0495E+00  8.5121E-02  5.0505E+00
                               -2.9262E-01  2.6111E+01 -3.8320E+01  2.5147E+03

           1    1.99005E+01     9.8622E-03  4.2832E-03  9.8561E-01  9.8567E-01
ac ID =   33377                -2.9756E-01 -5.3151E+00 -1.7058E-01  5.3262E+00
                               -2.9199E-01  2.6249E+01 -3.8242E+01  2.5147E+03

           1    2.00005E+01    -1.3024E-02  1.6291E-02  9.9825E-01  9.9847E-01
ac ID =   33377                -5.7724E-01 -5.6539E+00 -6.3088E-02  5.6837E+00
                               -2.9140E-01  2.6388E+01 -3.8165E+01  2.5147E+03

           1    2.01005E+01     2.2061E-02 -1.1152E-02  9.9732E-01  9.9762E-01
ac ID =   33377                 2.7026E-01 -5.4526E+00  6.5296E-02  5.4597E+00
                               -2.9079E-01  2.6527E+01 -3.8091E+01  2.5147E+03

           1    2.02005E+01     9.5301E-03 -7.7274E-03  1.0018E+00  1.0019E+00
ac ID =   33377                 5.5214E-02 -5.7670E+00 -4.8151E-02  5.7675E+00
                               -2.9020E-01  2.6668E+01 -3.8020E+01  2.5147E+03

           1    2.03005E+01    -1.9407E-02  2.3303E-02  9.9842E-01  9.9888E-01
ac ID =   33377                -6.3317E-01 -6.6728E+00 -1.4702E-01  6.7044E+00
                               -2.8973E-01  2.6809E+01 -3.7950E+01  2.5147E+03

           1    2.04005E+01     1.2839E-02 -9.6844E-03  9.8110E-01  9.8123E-01
ac ID =   33377                 3.5162E-01 -6.2001E+00 -2.7884E-01  6.2164E+00
                               -2.8921E-01  2.6950E+01 -3.7883E+01  2.5147E+03

           1    2.05004E+01     1.6344E-02 -2.3292E-02  9.7551E-01  9.7592E-01
ac ID =   33377                 4.5531E-01 -6.3027E+00 -1.1898E-01  6.3203E+00
                               -2.8867E-01  2.7092E+01 -3.7818E+01  2.5147E+03

           1    2.06004E+01    -1.7423E-02  2.4698E-02  9.6910E-01  9.6957E-01
ac ID =   33377                -5.5965E-01 -6.9391E+00  1.0505E-01  6.9624E+00
                               -2.8828E-01  2.7235E+01 -3.7756E+01  2.5147E+03

           1    2.07004E+01    -1.0533E-02  2.1344E-03  9.4412E-01  9.4418E-01
ac ID =   33377                -2.1617E-01 -6.9061E+00  1.0253E-01  6.9103E+00
                               -2.8784E-01  2.7378E+01 -3.7696E+01  2.5147E+03

           1    2.08004E+01     3.2239E-02 -1.1151E-02  9.4915E-01  9.4977E-01
ac ID =   33377                 3.4775E-01 -6.5254E+00 -1.7660E-02  6.5347E+00
                               -2.8741E-01  2.7522E+01 -3.7638E+01  2.5147E+03

           1    2.09004E+01    -2.7941E-02  9.3142E-03  9.5737E-01  9.5783E-01
ac ID =   33377                -3.5987E-01 -7.6645E+00 -8.9668E-02  7.6735E+00
                               -2.8704E-01  2.7667E+01 -3.7582E+01  2.5147E+03

           1    2.10004E+01    -1.0142E-02  1.8256E-02  9.2907E-01  9.2931E-01
ac ID =   33377                -5.0574E-01 -7.7022E+00 -1.6591E-01  7.7205E+00
                               -2.8672E-01  2.7812E+01 -3.7529E+01  2.5147E+03

           1    2.11004E+01     1.2929E-02 -2.1704E-02  9.1710E-01  9.1745E-01
ac ID =   33377                 4.8364E-01 -7.2497E+00 -2.7648E-01  7.2711E+00
                               -2.8639E-01  2.7958E+01 -3.7477E+01  2.5147E+03

           1    2.12004E+01     1.9023E-03  8.2216E-04  8.9841E-01  8.9841E-01
ac ID =   33377                 3.6121E-03 -7.8997E+00 -7.9685E-02  7.9001E+00
                               -2.8610E-01  2.8104E+01 -3.7428E+01  2.5147E+03

           1    2.13004E+01    -1.1602E-02  1.4258E-02  8.7563E-01  8.7582E-01
ac ID =   33377                -3.3225E-01 -8.2136E+00  1.4437E-01  8.2216E+00
                               -2.8585E-01  2.8251E+01 -3.7381E+01  2.5147E+03

           1    2.14004E+01     2.3530E-02 -8.4646E-03  8.5580E-01  8.5616E-01
ac ID =   33377                 3.6981E-01 -7.7135E+00 -2.0349E-02  7.7224E+00
                               -2.8561E-01  2.8399E+01 -3.7336E+01  2.5147E+03

           1    2.15003E+01     2.4559E-02 -6.0238E-03  8.3095E-01  8.3134E-01
ac ID =   33377                 1.9409E-01 -7.6761E+00 -6.0223E-02  7.6788E+00
                               -2.8537E-01  2.8547E+01 -3.7293E+01  2.5147E+03

           1    2.16003E+01    -8.6580E-03  5.9362E-03  8.1601E-01  8.1608E-01
ac ID =   33377                -2.8398E-01 -8.3984E+00 -2.9684E-02  8.4032E+00
                               -2.8513E-01  2.8696E+01 -3.7251E+01  2.5147E+03

           1    2.17003E+01     2.4244E-02  8.0291E-03  7.9236E-01  7.9277E-01
ac ID =   33377                -2.6924E-01 -7.7308E+00  1.0731E-01  7.7363E+00
                               -2.8496E-01  2.8845E+01 -3.7212E+01  2.5147E+03

           1    2.18003E+01     5.0105E-02 -5.9599E-03  7.6263E-01  7.6430E-01
ac ID =   33377                 2.4492E-01 -7.2760E+00 -1.3710E-02  7.2801E+00
                               -2.8477E-01  2.8994E+01 -3.7175E+01  2.5147E+03

           1    2.19003E+01     1.2869E-02  2.1093E-03  7.5263E-01  7.5274E-01
ac ID =   33377                -1.9479E-01 -8.0222E+00 -2.5081E-01  8.0285E+00
                               -2.8459E-01  2.9144E+01 -3.7139E+01  2.5147E+03

           1    2.20003E+01     3.2510E-02  9.4541E-03  7.1055E-01  7.1136E-01
ac ID =   33377                -2.2328E-01 -7.6889E+00 -4.3480E-01  7.7044E+00
                               -2.8448E-01  2.9295E+01 -3.7105E+01  2.5147E+03

           1    2.21003E+01     5.8082E-02 -2.6745E-03  6.7957E-01  6.8205E-01
ac ID =   33377                 2.3046E-01 -7.4115E+00 -1.8050E-01  7.4173E+00
                               -2.8437E-01  2.9445E+01 -3.7073E+01  2.5147E+03

           1    2.22003E+01     3.7280E-02  6.4408E-06  6.7295E-01  6.7398E-01
ac ID =   33377                 2.9888E-01 -8.1481E+00  1.8586E-01  8.1557E+00
                               -2.8425E-01  2.9596E+01 -3.7043E+01  2.5147E+03

           1    2.23003E+01     3.8379E-02  1.3190E-02  6.2172E-01  6.2304E-01
ac ID =   33377                -2.2226E-01 -7.9699E+00  1.4064E-01  7.9742E+00
                               -2.8418E-01  2.9747E+01 -3.7014E+01  2.5147E+03

           1    2.24003E+01     5.9183E-02 -9.8535E-03  5.7097E-01  5.7411E-01
ac ID =   33377                 1.2159E-02 -7.9232E+00 -1.4646E-01  7.9245E+00
                               -2.8405E-01  2.9898E+01 -3.6986E+01  2.5147E+03

           1    2.25002E+01     3.8883E-02 -1.1281E-02  5.5024E-01  5.5173E-01
ac ID =   33377                 1.4257E-01 -8.6330E+00 -2.8196E-01  8.6388E+00
                               -2.8400E-01  3.0050E+01 -3.6960E+01  2.5147E+03

           1    2.26002E+01     5.4497E-02  1.6724E-02  5.4822E-01  5.5117E-01
ac ID =   33377                -4.4730E-01 -9.0656E+00  1.5194E-03  9.0766E+00
                               -2.8395E-01  3.0201E+01 -3.6935E+01  2.5147E+03

           1    2.27002E+01     8.1180E-02  3.1715E-03  4.8587E-01  4.9262E-01
ac ID =   33377                -1.2532E-01 -8.7719E+00  1.7669E-02  8.7728E+00
                               -2.8387E-01  3.0353E+01 -3.6911E+01  2.5147E+03

           1    2.28002E+01     3.4493E-02 -6.5498E-03  4.5035E-01  4.5172E-01
ac ID =   33377                 1.8800E-01 -9.7617E+00  2.0247E-01  9.7656E+00
                               -2.8386E-01  3.0505E+01 -3.6888E+01  2.5147E+03

           1    2.29002E+01     4.1051E-02  8.5109E-04  4.2591E-01  4.2789E-01
ac ID =   33377                -1.1910E-01 -1.0071E+01 -1.8151E-01  1.0074E+01
                               -2.8387E-01  3.0657E+01 -3.6867E+01  2.5147E+03

           1    2.30002E+01     7.1725E-02  1.3502E-02  3.8195E-01  3.8886E-01
ac ID =   33377                -2.3464E-01 -9.7992E+00 -2.8356E-01  9.8061E+00
                               -2.8392E-01  3.0809E+01 -3.6846E+01  2.5147E+03

           1    2.31002E+01     6.3874E-02 -2.9884E-03  3.3188E-01  3.3799E-01
ac ID =   33377                 1.9566E-01 -1.0301E+01 -6.5881E-03  1.0303E+01
                               -2.8393E-01  3.0961E+01 -3.6826E+01  2.5147E+03

           1    2.32002E+01     3.5039E-02 -1.1006E-02  2.8294E-01  2.8532E-01
ac ID =   33377                 1.5422E-01 -1.0829E+01 -1.4694E-01  1.0831E+01
                               -2.8397E-01  3.1113E+01 -3.6807E+01  2.5147E+03

           1    2.33002E+01     6.2896E-02  1.2611E-02  2.5928E-01  2.6710E-01
ac ID =   33377                -3.2502E-02 -1.0537E+01  2.7965E-01  1.0541E+01
                               -2.8404E-01  3.1265E+01 -3.6789E+01  2.5147E+03

           1    2.34002E+01     6.5790E-02  1.0657E-03  2.3476E-01  2.4381E-01
ac ID =   33377                 6.7205E-02 -1.1219E+01 -1.5249E-02  1.1219E+01
                               -2.8410E-01  3.1417E+01 -3.6771E+01  2.5147E+03

           1    2.35001E+01     5.6379E-02 -6.8340E-03  1.7920E-01  1.8798E-01
ac ID =   33377                 1.6291E-01 -1.1597E+01 -1.8764E-01  1.1600E+01
                               -2.8416E-01  3.1569E+01 -3.6753E+01  2.5147E+03

           1    2.36001E+01     6.6211E-02  1.6312E-02  1.5499E-01  1.6932E-01
ac ID =   33377                -4.3211E-01 -1.1740E+01 -1.5831E-01  1.1749E+01
                               -2.8430E-01  3.1721E+01 -3.6736E+01  2.5147E+03

           1    2.37001E+01     6.3300E-02 -1.4879E-02  1.1491E-01  1.3203E-01
ac ID =   33377                 8.2125E-02 -1.1860E+01 -3.4350E-01  1.1865E+01
                               -2.8438E-01  3.1873E+01 -3.6719E+01  2.5147E+03

           1    2.38001E+01     6.8251E-02 -3.0600E-03  7.7051E-02  1.0298E-01
ac ID =   33377                 4.0826E-02 -1.1889E+01 -3.2190E-02  1.1889E+01
                               -2.8452E-01  3.2025E+01 -3.6702E+01  2.5147E+03

           1    2.39001E+01     8.6811E-02  6.5087E-03  5.3102E-02  1.0197E-01
ac ID =   33377                -1.4780E-01 -1.1885E+01  2.3440E-01  1.1888E+01
                               -2.8471E-01  3.2177E+01 -3.6685E+01  2.5147E+03

           1    2.40001E+01     8.2269E-02 -1.1683E-02  8.2456E-03  8.3503E-02
ac ID =   33377                 3.4695E-01 -1.1924E+01 -3.4168E-02  1.1930E+01
                               -2.8488E-01  3.2329E+01 -3.6669E+01  2.5147E+03

           1    2.41001E+01     7.9524E-02  9.4487E-03 -2.2961E-02  8.3310E-02
ac ID =   33377                -3.0777E-01 -1.2022E+01 -3.7850E-01  1.2032E+01
                               -2.8501E-01  3.2480E+01 -3.6652E+01  2.5147E+03

           1    2.42001E+01     9.9580E-02 -1.2123E-02 -5.5518E-02  1.1465E-01
ac ID =   33377                 1.9454E-01 -1.1785E+01 -2.9827E-01  1.1791E+01
                               -2.8511E-01  3.2631E+01 -3.6635E+01  2.5147E+03

           1    2.43001E+01     1.0672E-01  4.6137E-03 -1.0308E-01  1.4844E-01
ac ID =   33377                -1.7077E-01 -1.1509E+01 -1.9792E-01  1.1512E+01
                               -2.8523E-01  3.2783E+01 -3.6619E+01  2.5147E+03

           1    2.44001E+01     9.5407E-02 -1.0678E-02 -1.3342E-01  1.6437E-01
ac ID =   33377                 5.7999E-02 -1.1826E+01 -4.2417E-01  1.1834E+01
                               -2.8536E-01  3.2933E+01 -3.6601E+01  2.5147E+03

           1    2.45005E+01     1.1365E-01  3.1479E-03 -1.7029E-01  2.0476E-01
ac ID =   33377                -3.7014E-01 -1.1630E+01 -1.3744E-01  1.1637E+01
                               -2.8548E-01  3.3085E+01 -3.6584E+01  2.5147E+03

           1    2.46005E+01     1.2964E-01  3.0916E-03 -2.1000E-01  2.4681E-01
ac ID =   33377                -1.1680E-01 -1.1166E+01 -4.5272E-01  1.1176E+01
                               -2.8565E-01  3.3235E+01 -3.6566E+01  2.5147E+03

           1    2.47005E+01     1.1056E-01 -4.8487E-03 -2.2577E-01  2.5143E-01
ac ID =   33377                 2.7208E-01 -1.1694E+01 -3.8665E-01  1.1704E+01
                               -2.8575E-01  3.3385E+01 -3.6547E+01  2.5147E+03

           1    2.48005E+01     1.3116E-01 -1.5031E-03 -2.6837E-01  2.9871E-01
ac ID =   33377                -2.4120E-03 -1.1382E+01  3.6411E-02  1.1382E+01
                               -2.8584E-01  3.3535E+01 -3.6528E+01  2.5147E+03

           1    2.49005E+01     1.4198E-01 -4.6092E-03 -2.9720E-01  3.2940E-01
ac ID =   33377                 3.4211E-01 -1.1109E+01  1.3121E-01  1.1115E+01
                               -2.8598E-01  3.3684E+01 -3.6509E+01  2.5147E+03

