 LSTC 50th% Full_FE H-III Dummy (Beta Version, February 17, 2019)        
                    ls-dyna smp s R16 R16.0_619_d222963 date 03/18/2025

{BEGIN LEGEND}
 Entity #        Title
    22626                                                                                     
{END LEGEND}




 n o d a l   p r i n t   o u t   f o r   t i m e  s t e p       1                              ( at time 0.0000000E+00 )

 nodal point  x-disp     y-disp      z-disp      x-vel       y-vel       z-vel      x-accl      y-accl      z-accl      x-coor      y-coor      z-coor
    22626  0.00000E+00 0.00000E+00 0.00000E+00 0.00000E+00 0.00000E+00 0.00000E+00 0.00000E+00 0.00000E+00 0.00000E+00 4.65938E+00-2.81908E+01-4.49817E+01



 n o d a l   p r i n t   o u t   f o r   t i m e  s t e p       1                              ( at time 0.0000000E+00 )

 nodal point  x-rot      y-rot       z-rot       x-rot vel   y-rot vel   z-rot vel   x-rot acc   y-rot acc   z-rot acc
    22626  0.00000E+00 0.00000E+00 0.00000E+00 0.00000E+00 0.00000E+00 0.00000E+00 0.00000E+00 0.00000E+00 0.00000E+00



 n o d a l   p r i n t   o u t   f o r   t i m e  s t e p     201                              ( at time 9.9989993E-02 )

 nodal point  x-disp     y-disp      z-disp      x-vel       y-vel       z-vel      x-accl      y-accl      z-accl      x-coor      y-coor      z-coor
    22626  2.73585E-07 1.73664E-06-5.34276E-05 4.19765E-05 2.55585E-04-1.46815E-03 4.19807E-04 2.55610E-03-1.46830E-02 4.65938E+00-2.81908E+01-4.49818E+01



 n o d a l   p r i n t   o u t   f o r   t i m e  s t e p     201                              ( at time 9.9989993E-02 )

 nodal point  x-rot      y-rot       z-rot       x-rot vel   y-rot vel   z-rot vel   x-rot acc   y-rot acc   z-rot acc
    22626 -5.98899E-08-8.38532E-09-5.45973E-09-5.86836E-06-9.70030E-07-9.27185E-07-5.86894E-05-9.70127E-06-9.27278E-06



 n o d a l   p r i n t   o u t   f o r   t i m e  s t e p     401                              ( at time 1.9997999E-01 )

 nodal point  x-disp     y-disp      z-disp      x-vel       y-vel       z-vel      x-accl      y-accl      z-accl      x-coor      y-coor      z-coor
    22626  1.73123E-05 3.61745E-04-6.67587E-04 2.94954E-05 7.81113E-03-1.21535E-02-1.24823E-04 7.55630E-02-1.06864E-01 4.65939E+00-2.81905E+01-4.49824E+01



 n o d a l   p r i n t   o u t   f o r   t i m e  s t e p     401                              ( at time 1.9997999E-01 )

 nodal point  x-rot      y-rot       z-rot       x-rot vel   y-rot vel   z-rot vel   x-rot acc   y-rot acc   z-rot acc
    22626 -2.81967E-06-3.37197E-07-3.34576E-07-3.93964E-05-1.73845E-06-2.26593E-06-3.35314E-04-7.68493E-06-1.33888E-05



 n o d a l   p r i n t   o u t   f o r   t i m e  s t e p     601                              ( at time 2.9996998E-01 )

 nodal point  x-disp     y-disp      z-disp      x-vel       y-vel       z-vel      x-accl      y-accl      z-accl      x-coor      y-coor      z-coor
    22626  2.73766E-05 1.23970E-03-2.33838E-03 4.19000E-04 8.43319E-03-1.92529E-02 3.89544E-03 6.22123E-03-7.10009E-02 4.65940E+00-2.81896E+01-4.49841E+01



 n o d a l   p r i n t   o u t   f o r   t i m e  s t e p     601                              ( at time 2.9996998E-01 )

 nodal point  x-rot      y-rot       z-rot       x-rot vel   y-rot vel   z-rot vel   x-rot acc   y-rot acc   z-rot acc
    22626 -5.37999E-06-3.89495E-07-6.41453E-07-1.53368E-05-5.41719E-06-6.67141E-06 2.40620E-04-3.67912E-05-4.40592E-05



 n o d a l   p r i n t   o u t   f o r   t i m e  s t e p     801                              ( at time 3.9995997E-01 )

 nodal point  x-disp     y-disp      z-disp      x-vel       y-vel       z-vel      x-accl      y-accl      z-accl      x-coor      y-coor      z-coor
    22626  2.60890E-05 2.15710E-03-4.28156E-03-3.15431E-04 1.06408E-02-2.10664E-02-7.34504E-03 2.20785E-02-1.81370E-02 4.65940E+00-2.81887E+01-4.49860E+01



 n o d a l   p r i n t   o u t   f o r   t i m e  s t e p     801                              ( at time 3.9995997E-01 )

 nodal point  x-rot      y-rot       z-rot       x-rot vel   y-rot vel   z-rot vel   x-rot acc   y-rot acc   z-rot acc
    22626 -7.53529E-06-1.25026E-06-9.71631E-07-4.31189E-05-6.26319E-06-1.35089E-06-2.77848E-04-8.46085E-06 5.32105E-05



 n o d a l   p r i n t   o u t   f o r   t i m e  s t e p    1001                              ( at time 4.9994997E-01 )

 nodal point  x-disp     y-disp      z-disp      x-vel       y-vel       z-vel      x-accl      y-accl      z-accl      x-coor      y-coor      z-coor
    22626  3.47038E-06 3.41728E-03-6.73780E-03-2.45266E-04 1.39833E-02-2.85818E-02 7.01719E-04 3.34279E-02-7.51614E-02 4.65938E+00-2.81874E+01-4.49885E+01



 n o d a l   p r i n t   o u t   f o r   t i m e  s t e p    1001                              ( at time 4.9994997E-01 )

 nodal point  x-rot      y-rot       z-rot       x-rot vel   y-rot vel   z-rot vel   x-rot acc   y-rot acc   z-rot acc
    22626 -1.31180E-05-1.16288E-06-9.10811E-07-7.87626E-05 3.21382E-06 4.42946E-06-3.56473E-04 9.47796E-05 5.78093E-05



 n o d a l   p r i n t   o u t   f o r   t i m e  s t e p    1201                              ( at time 5.9993996E-01 )

 nodal point  x-disp     y-disp      z-disp      x-vel       y-vel       z-vel      x-accl      y-accl      z-accl      x-coor      y-coor      z-coor
    22626 -1.56977E-06 4.96715E-03-9.69386E-03 4.20973E-05 1.63332E-02-3.08573E-02 2.87392E-03 2.35016E-02-2.27574E-02 4.65937E+00-2.81859E+01-4.49914E+01



 n o d a l   p r i n t   o u t   f o r   t i m e  s t e p    1201                              ( at time 5.9993996E-01 )

 nodal point  x-rot      y-rot       z-rot       x-rot vel   y-rot vel   z-rot vel   x-rot acc   y-rot acc   z-rot acc
    22626 -1.91934E-05-8.79129E-07-8.66239E-07-5.10227E-05 4.00531E-06-1.25186E-06 2.77427E-04 7.91575E-06-5.68189E-05



 n o d a l   p r i n t   o u t   f o r   t i m e  s t e p    1401                              ( at time 6.9992995E-01 )

 nodal point  x-disp     y-disp      z-disp      x-vel       y-vel       z-vel      x-accl      y-accl      z-accl      x-coor      y-coor      z-coor
    22626 -5.16827E-05 6.76439E-03-1.31384E-02-4.86049E-04 1.92387E-02-3.88398E-02-5.28199E-03 2.90580E-02-7.98324E-02 4.65932E+00-2.81841E+01-4.49949E+01



 n o d a l   p r i n t   o u t   f o r   t i m e  s t e p    1401                              ( at time 6.9992995E-01 )

 nodal point  x-rot      y-rot       z-rot       x-rot vel   y-rot vel   z-rot vel   x-rot acc   y-rot acc   z-rot acc
    22626 -2.41583E-05-8.81264E-07-4.58051E-07-5.93987E-05 2.82700E-07 4.66488E-06-8.37690E-05-3.72298E-05 5.91734E-05



 n o d a l   p r i n t   o u t   f o r   t i m e  s t e p    1601                              ( at time 7.9991994E-01 )

 nodal point  x-disp     y-disp      z-disp      x-vel       y-vel       z-vel      x-accl      y-accl      z-accl      x-coor      y-coor      z-coor
    22626 -8.19129E-05 8.84832E-03-1.74057E-02-4.90629E-04 2.15238E-02-4.47160E-02-4.58056E-05 2.28531E-02-5.87687E-02 4.65929E+00-2.81820E+01-4.49991E+01



 n o d a l   p r i n t   o u t   f o r   t i m e  s t e p    1601                              ( at time 7.9991994E-01 )

 nodal point  x-rot      y-rot       z-rot       x-rot vel   y-rot vel   z-rot vel   x-rot acc   y-rot acc   z-rot acc
    22626 -3.09213E-05-8.65417E-07-2.54194E-07-7.41174E-05-4.56784E-06 2.53760E-06-1.47201E-04-4.85102E-05-2.12749E-05



 n o d a l   p r i n t   o u t   f o r   t i m e  s t e p    1801                              ( at time 8.9990994E-01 )

 nodal point  x-disp     y-disp      z-disp      x-vel       y-vel       z-vel      x-accl      y-accl      z-accl      x-coor      y-coor      z-coor
    22626 -1.17182E-04 1.10355E-02-2.18843E-02-2.89242E-04 2.30911E-02-4.50910E-02 2.01407E-03 1.56742E-02-3.74981E-03 4.65926E+00-2.81798E+01-4.50036E+01



 n o d a l   p r i n t   o u t   f o r   t i m e  s t e p    1801                              ( at time 8.9990994E-01 )

 nodal point  x-rot      y-rot       z-rot       x-rot vel   y-rot vel   z-rot vel   x-rot acc   y-rot acc   z-rot acc
    22626 -3.71959E-05-8.58483E-07-9.82439E-08-5.78337E-05 2.95182E-06 1.18449E-06 1.62854E-04 7.52041E-05-1.35325E-05



 n o d a l   p r i n t   o u t   f o r   t i m e  s t e p    2001                              ( at time 9.9989993E-01 )

 nodal point  x-disp     y-disp      z-disp      x-vel       y-vel       z-vel      x-accl      y-accl      z-accl      x-coor      y-coor      z-coor
    22626 -1.51345E-04 1.34669E-02-2.65731E-02-3.39829E-05 2.53510E-02-4.94610E-02 2.55285E-03 2.26016E-02-4.37050E-02 4.65922E+00-2.81774E+01-4.50083E+01



 n o d a l   p r i n t   o u t   f o r   t i m e  s t e p    2001                              ( at time 9.9989993E-01 )

 nodal point  x-rot      y-rot       z-rot       x-rot vel   y-rot vel   z-rot vel   x-rot acc   y-rot acc   z-rot acc
    22626 -4.34368E-05-7.56265E-07 1.54762E-07-7.51507E-05 1.44932E-06-1.25805E-06-1.73188E-04-1.50265E-05-2.44278E-05



 n o d a l   p r i n t   o u t   f o r   t i m e  s t e p    2201                              ( at time 1.0998899E+00 )

 nodal point  x-disp     y-disp      z-disp      x-vel       y-vel       z-vel      x-accl      y-accl      z-accl      x-coor      y-coor      z-coor
    22626 -1.61763E-04 1.60802E-02-3.18344E-02-3.58717E-04 2.74604E-02-5.53826E-02-3.24766E-03 2.10964E-02-5.92220E-02 4.65921E+00-2.81747E+01-4.50136E+01



 n o d a l   p r i n t   o u t   f o r   t i m e  s t e p    2201                              ( at time 1.0998899E+00 )

 nodal point  x-rot      y-rot       z-rot       x-rot vel   y-rot vel   z-rot vel   x-rot acc   y-rot acc   z-rot acc
    22626 -5.10096E-05-8.27161E-07 6.06752E-08-6.44057E-05-6.79775E-06 6.55651E-07 1.07461E-04-8.24790E-05 1.91389E-05



 n o d a l   p r i n t   o u t   f o r   t i m e  s t e p    2401                              ( at time 1.1998799E+00 )

 nodal point  x-disp     y-disp      z-disp      x-vel       y-vel       z-vel      x-accl      y-accl      z-accl      x-coor      y-coor      z-coor
    22626 -1.90561E-04 1.88700E-02-3.76303E-02-1.84675E-04 2.85815E-02-6.02240E-02 1.74059E-03 1.12119E-02-4.84185E-02 4.65918E+00-2.81720E+01-4.50194E+01



 n o d a l   p r i n t   o u t   f o r   t i m e  s t e p    2401                              ( at time 1.1998799E+00 )

 nodal point  x-rot      y-rot       z-rot       x-rot vel   y-rot vel   z-rot vel   x-rot acc   y-rot acc   z-rot acc
    22626 -5.66605E-05-1.33434E-06 9.86673E-08-5.31762E-05-5.76464E-06-1.27981E-07 1.12306E-04 1.03322E-05-7.83710E-06



 n o d a l   p r i n t   o u t   f o r   t i m e  s t e p    2601                              ( at time 1.2998699E+00 )

 nodal point  x-disp     y-disp      z-disp      x-vel       y-vel       z-vel      x-accl      y-accl      z-accl      x-coor      y-coor      z-coor
    22626 -2.22469E-04 2.18366E-02-4.37904E-02-2.53652E-04 3.05875E-02-6.27642E-02-6.89845E-04 2.00615E-02-2.54048E-02 4.65915E+00-2.81690E+01-4.50255E+01



 n o d a l   p r i n t   o u t   f o r   t i m e  s t e p    2601                              ( at time 1.2998699E+00 )

 nodal point  x-rot      y-rot       z-rot       x-rot vel   y-rot vel   z-rot vel   x-rot acc   y-rot acc   z-rot acc
    22626 -6.23998E-05-1.71546E-06 1.28489E-07-7.17710E-05 1.16454E-06 1.63364E-06-1.85966E-04 6.92987E-05 1.76180E-05



 n o d a l   p r i n t   o u t   f o r   t i m e  s t e p    2801                              ( at time 1.3998599E+00 )

 nodal point  x-disp     y-disp      z-disp      x-vel       y-vel       z-vel      x-accl      y-accl      z-accl      x-coor      y-coor      z-coor
    22626 -2.53497E-04 2.49888E-02-5.01633E-02-4.53961E-04 3.22249E-02-6.53505E-02-2.00329E-03 1.63759E-02-2.58647E-02 4.65912E+00-2.81658E+01-4.50319E+01



 n o d a l   p r i n t   o u t   f o r   t i m e  s t e p    2801                              ( at time 1.3998599E+00 )

 nodal point  x-rot      y-rot       z-rot       x-rot vel   y-rot vel   z-rot vel   x-rot acc   y-rot acc   z-rot acc
    22626 -6.95964E-05-1.49170E-06 4.23897E-07-6.97091E-05 8.28363E-07 5.71853E-06 2.06210E-05-3.36206E-06 4.08530E-05



 n o d a l   p r i n t   o u t   f o r   t i m e  s t e p    3001                              ( at time 1.4998499E+00 )

 nodal point  x-disp     y-disp      z-disp      x-vel       y-vel       z-vel      x-accl      y-accl      z-accl      x-coor      y-coor      z-coor
    22626 -2.98202E-04 2.83498E-02-5.70430E-02-4.49125E-04 3.48488E-02-7.25583E-02 4.83699E-05 2.62422E-02-7.20852E-02 4.65908E+00-2.81625E+01-4.50388E+01



 n o d a l   p r i n t   o u t   f o r   t i m e  s t e p    3001                              ( at time 1.4998499E+00 )

 nodal point  x-rot      y-rot       z-rot       x-rot vel   y-rot vel   z-rot vel   x-rot acc   y-rot acc   z-rot acc
    22626 -7.57617E-05-1.37632E-06 8.97383E-07-5.28136E-05 2.89774E-07 2.05210E-06 1.68971E-04-5.38642E-06-3.66680E-05



 n o d a l   p r i n t   o u t   f o r   t i m e  s t e p    3201                              ( at time 1.5998399E+00 )

 nodal point  x-disp     y-disp      z-disp      x-vel       y-vel       z-vel      x-accl      y-accl      z-accl      x-coor      y-coor      z-coor
    22626 -3.61817E-04 3.19915E-02-6.45999E-02-6.08255E-04 3.78387E-02-7.77914E-02-1.59146E-03 2.99019E-02-5.23366E-02 4.65901E+00-2.81588E+01-4.50463E+01



 n o d a l   p r i n t   o u t   f o r   t i m e  s t e p    3201                              ( at time 1.5998399E+00 )

 nodal point  x-rot      y-rot       z-rot       x-rot vel   y-rot vel   z-rot vel   x-rot acc   y-rot acc   z-rot acc
    22626 -8.03940E-05-1.31455E-06 1.43520E-06-4.95608E-05-7.65570E-07 7.38050E-06 3.25315E-05-1.05545E-05 5.32893E-05



 n o d a l   p r i n t   o u t   f o r   t i m e  s t e p    3401                              ( at time 1.6998299E+00 )

 nodal point  x-disp     y-disp      z-disp      x-vel       y-vel       z-vel      x-accl      y-accl      z-accl      x-coor      y-coor      z-coor
    22626 -4.24088E-04 3.58530E-02-7.25344E-02-6.93588E-04 3.91642E-02-8.05078E-02-8.53419E-04 1.32565E-02-2.71669E-02 4.65895E+00-2.81550E+01-4.50543E+01



 n o d a l   p r i n t   o u t   f o r   t i m e  s t e p    3401                              ( at time 1.6998299E+00 )

 nodal point  x-rot      y-rot       z-rot       x-rot vel   y-rot vel   z-rot vel   x-rot acc   y-rot acc   z-rot acc
    22626 -8.56682E-05-1.08756E-06 2.06089E-06-5.27739E-05 4.10120E-06 8.66591E-06-3.21342E-05 4.86726E-05 1.28554E-05



 n o d a l   p r i n t   o u t   f o r   t i m e  s t e p    3601                              ( at time 1.7998199E+00 )

 nodal point  x-disp     y-disp      z-disp      x-vel       y-vel       z-vel      x-accl      y-accl      z-accl      x-coor      y-coor      z-coor
    22626 -4.85986E-04 3.97930E-02-8.06985E-02-5.43330E-04 4.00837E-02-8.26626E-02 1.50274E-03 9.19569E-03-2.15501E-02 4.65889E+00-2.81510E+01-4.50624E+01



 n o d a l   p r i n t   o u t   f o r   t i m e  s t e p    3601                              ( at time 1.7998199E+00 )

 nodal point  x-rot      y-rot       z-rot       x-rot vel   y-rot vel   z-rot vel   x-rot acc   y-rot acc   z-rot acc
    22626 -9.09224E-05-8.00757E-07 2.61240E-06-4.62212E-05 3.62532E-06 2.97512E-06 6.55329E-05-4.75932E-06-5.69137E-05



 n o d a l   p r i n t   o u t   f o r   t i m e  s t e p    3801                              ( at time 1.8998099E+00 )

 nodal point  x-disp     y-disp      z-disp      x-vel       y-vel       z-vel      x-accl      y-accl      z-accl      x-coor      y-coor      z-coor
    22626 -5.46671E-04 4.39427E-02-8.91460E-02-5.09092E-04 4.27179E-02-8.64979E-02 3.42408E-04 2.63449E-02-3.83565E-02 4.65883E+00-2.81469E+01-4.50709E+01



 n o d a l   p r i n t   o u t   f o r   t i m e  s t e p    3801                              ( at time 1.8998099E+00 )

 nodal point  x-rot      y-rot       z-rot       x-rot vel   y-rot vel   z-rot vel   x-rot acc   y-rot acc   z-rot acc
    22626 -9.49679E-05-3.69744E-07 3.15390E-06-3.75055E-05 1.01391E-06 3.26829E-06 8.71657E-05-2.61167E-05 2.93206E-06



 n o d a l   p r i n t   o u t   f o r   t i m e  s t e p    4001                              ( at time 1.9997999E+00 )

 nodal point  x-disp     y-disp      z-disp      x-vel       y-vel       z-vel      x-accl      y-accl      z-accl      x-coor      y-coor      z-coor
    22626 -5.94887E-04 4.82519E-02-9.80077E-02-5.59048E-04 4.36846E-02-9.04814E-02-4.99604E-04 9.66739E-03-3.98390E-02 4.65878E+00-2.81426E+01-4.50797E+01



 n o d a l   p r i n t   o u t   f o r   t i m e  s t e p    4001                              ( at time 1.9997999E+00 )

 nodal point  x-rot      y-rot       z-rot       x-rot vel   y-rot vel   z-rot vel   x-rot acc   y-rot acc   z-rot acc
    22626 -9.84928E-05-3.18212E-07 3.47824E-06-3.75286E-05-1.64803E-06 3.94943E-06-2.30307E-07-2.66221E-05 6.81210E-06



 n o d a l   p r i n t   o u t   f o r   t i m e  s t e p    4201                              ( at time 2.0997899E+00 )

 nodal point  x-disp     y-disp      z-disp      x-vel       y-vel       z-vel      x-accl      y-accl      z-accl      x-coor      y-coor      z-coor
    22626 -6.48988E-04 5.26575E-02-1.07153E-01-5.39170E-04 4.46996E-02-9.24922E-02 1.98800E-04 1.01509E-02-2.01101E-02 4.65873E+00-2.81382E+01-4.50889E+01



 n o d a l   p r i n t   o u t   f o r   t i m e  s t e p    4201                              ( at time 2.0997899E+00 )

 nodal point  x-rot      y-rot       z-rot       x-rot vel   y-rot vel   z-rot vel   x-rot acc   y-rot acc   z-rot acc
    22626 -1.01594E-04-4.49818E-07 3.80012E-06-2.73413E-05 2.49867E-08 7.57215E-06 1.01883E-04 1.67319E-05 3.62307E-05



 n o d a l   p r i n t   o u t   f o r   t i m e  s t e p    4401                              ( at time 2.1997798E+00 )

 nodal point  x-disp     y-disp      z-disp      x-vel       y-vel       z-vel      x-accl      y-accl      z-accl      x-coor      y-coor      z-coor
    22626 -7.00482E-04 5.71988E-02-1.16464E-01-4.01574E-04 4.58727E-02-9.37250E-02 1.37610E-03 1.17327E-02-1.23294E-02 4.65867E+00-2.81336E+01-4.50982E+01



 n o d a l   p r i n t   o u t   f o r   t i m e  s t e p    4401                              ( at time 2.1997798E+00 )

 nodal point  x-rot      y-rot       z-rot       x-rot vel   y-rot vel   z-rot vel   x-rot acc   y-rot acc   z-rot acc
    22626 -1.04455E-04-3.51694E-07 4.33912E-06-3.20819E-05 6.59028E-07 4.37782E-06-4.74107E-05 6.34106E-06-3.19465E-05



 n o d a l   p r i n t   o u t   f o r   t i m e  s t e p    4601                              ( at time 2.2997698E+00 )

 nodal point  x-disp     y-disp      z-disp      x-vel       y-vel       z-vel      x-accl      y-accl      z-accl      x-coor      y-coor      z-coor
    22626 -7.48649E-04 6.18252E-02-1.25907E-01-5.53921E-04 4.71457E-02-9.56856E-02-1.52363E-03 1.27315E-02-1.96085E-02 4.65863E+00-2.81290E+01-4.51076E+01



 n o d a l   p r i n t   o u t   f o r   t i m e  s t e p    4601                              ( at time 2.2997698E+00 )

 nodal point  x-rot      y-rot       z-rot       x-rot vel   y-rot vel   z-rot vel   x-rot acc   y-rot acc   z-rot acc
    22626 -1.08179E-04-7.79511E-09 4.94660E-06-3.46549E-05 3.78384E-06 5.88002E-06-2.57323E-05 3.12512E-05 1.50235E-05



 n o d a l   p r i n t   o u t   f o r   t i m e  s t e p    4801                              ( at time 2.3997598E+00 )

 nodal point  x-disp     y-disp      z-disp      x-vel       y-vel       z-vel      x-accl      y-accl      z-accl      x-coor      y-coor      z-coor
    22626 -8.02906E-04 6.66771E-02-1.35697E-01-4.35662E-04 4.96295E-02-1.00060E-01 1.18272E-03 2.48399E-02-4.37514E-02 4.65857E+00-2.81242E+01-4.51174E+01



 n o d a l   p r i n t   o u t   f o r   t i m e  s t e p    4801                              ( at time 2.3997598E+00 )

 nodal point  x-rot      y-rot       z-rot       x-rot vel   y-rot vel   z-rot vel   x-rot acc   y-rot acc   z-rot acc
    22626 -1.11271E-04 2.99172E-07 6.02221E-06-2.92810E-05 4.08808E-06 1.43580E-05 5.37436E-05 3.04267E-06 8.47884E-05



 n o d a l   p r i n t   o u t   f o r   t i m e  s t e p    5001                              ( at time 2.4997498E+00 )

 nodal point  x-disp     y-disp      z-disp      x-vel       y-vel       z-vel      x-accl      y-accl      z-accl      x-coor      y-coor      z-coor
    22626 -8.46832E-04 7.17684E-02-1.45852E-01-4.64342E-04 5.17394E-02-1.02310E-01-2.86827E-04 2.11015E-02-2.24991E-02 4.65853E+00-2.81191E+01-4.51276E+01



 n o d a l   p r i n t   o u t   f o r   t i m e  s t e p    5001                              ( at time 2.4997498E+00 )

 nodal point  x-rot      y-rot       z-rot       x-rot vel   y-rot vel   z-rot vel   x-rot acc   y-rot acc   z-rot acc
    22626 -1.14113E-04 8.73922E-07 7.49523E-06-2.67238E-05 7.21231E-06 1.78536E-05 2.55749E-05 3.12454E-05 3.49592E-05



 n o d a l   p r i n t   o u t   f o r   t i m e  s t e p    5201                              ( at time 2.5997398E+00 )

 nodal point  x-disp     y-disp      z-disp      x-vel       y-vel       z-vel      x-accl      y-accl      z-accl      x-coor      y-coor      z-coor
    22626 -8.80085E-04 7.70082E-02-1.56083E-01-2.93519E-04 5.31598E-02-1.02240E-01 1.70840E-03 1.42054E-02 6.98712E-04 4.65849E+00-2.81138E+01-4.51378E+01



 n o d a l   p r i n t   o u t   f o r   t i m e  s t e p    5201                              ( at time 2.5997398E+00 )

 nodal point  x-rot      y-rot       z-rot       x-rot vel   y-rot vel   z-rot vel   x-rot acc   y-rot acc   z-rot acc
    22626 -1.16864E-04 1.75118E-06 9.49283E-06-2.71326E-05 1.06615E-05 2.34353E-05-4.08796E-06 3.44957E-05 5.58233E-05



 n o d a l   p r i n t   o u t   f o r   t i m e  s t e p    5401                              ( at time 2.6997298E+00 )

 nodal point  x-disp     y-disp      z-disp      x-vel       y-vel       z-vel      x-accl      y-accl      z-accl      x-coor      y-coor      z-coor
    22626 -8.87669E-04 8.24055E-02-1.66323E-01 2.53680E-04 5.52144E-02-1.02815E-01 5.47253E-03 2.05477E-02-5.74526E-03 4.65849E+00-2.81084E+01-4.51480E+01



 n o d a l   p r i n t   o u t   f o r   t i m e  s t e p    5401                              ( at time 2.6997298E+00 )

 nodal point  x-rot      y-rot       z-rot       x-rot vel   y-rot vel   z-rot vel   x-rot acc   y-rot acc   z-rot acc
    22626 -1.20333E-04 3.05425E-06 1.19965E-05-4.21143E-05 1.68396E-05 2.60387E-05-1.49832E-04 6.17867E-05 2.60365E-05



 n o d a l   p r i n t   o u t   f o r   t i m e  s t e p    5601                              ( at time 2.7997198E+00 )

 nodal point  x-disp     y-disp      z-disp      x-vel       y-vel       z-vel      x-accl      y-accl      z-accl      x-coor      y-coor      z-coor
    22626 -8.46099E-04 8.80916E-02-1.76689E-01 6.84979E-04 5.87070E-02-1.04840E-01 4.31342E-03 3.49297E-02-2.02527E-02 4.65853E+00-2.81027E+01-4.51584E+01



 n o d a l   p r i n t   o u t   f o r   t i m e  s t e p    5601                              ( at time 2.7997198E+00 )

 nodal point  x-rot      y-rot       z-rot       x-rot vel   y-rot vel   z-rot vel   x-rot acc   y-rot acc   z-rot acc
    22626 -1.23633E-04 4.80242E-06 1.50707E-05-2.39870E-05 1.67784E-05 3.51327E-05 1.81291E-04-6.11588E-07 9.09493E-05



 n o d a l   p r i n t   o u t   f o r   t i m e  s t e p    5801                              ( at time 2.8997098E+00 )

 nodal point  x-disp     y-disp      z-disp      x-vel       y-vel       z-vel      x-accl      y-accl      z-accl      x-coor      y-coor      z-coor
    22626 -7.34864E-04 9.41463E-02-1.87334E-01 1.41671E-03 6.26353E-02-1.07981E-01 7.31800E-03 3.92866E-02-3.14208E-02 4.65864E+00-2.80967E+01-4.51691E+01



 n o d a l   p r i n t   o u t   f o r   t i m e  s t e p    5801                              ( at time 2.8997098E+00 )

 nodal point  x-rot      y-rot       z-rot       x-rot vel   y-rot vel   z-rot vel   x-rot acc   y-rot acc   z-rot acc
    22626 -1.25940E-04 6.82576E-06 1.87587E-05-2.86688E-05 2.40260E-05 4.26376E-05-4.68230E-05 7.24832E-05 7.50566E-05



 n o d a l   p r i n t   o u t   f o r   t i m e  s t e p    6001                              ( at time 2.9996998E+00 )

 nodal point  x-disp     y-disp      z-disp      x-vel       y-vel       z-vel      x-accl      y-accl      z-accl      x-coor      y-coor      z-coor
    22626 -5.64471E-04 1.00609E-01-1.98200E-01 2.15912E-03 6.67960E-02-1.08918E-01 7.42486E-03 4.16111E-02-9.36869E-03 4.65881E+00-2.80902E+01-4.51799E+01



 n o d a l   p r i n t   o u t   f o r   t i m e  s t e p    6001                              ( at time 2.9996998E+00 )

 nodal point  x-rot      y-rot       z-rot       x-rot vel   y-rot vel   z-rot vel   x-rot acc   y-rot acc   z-rot acc
    22626 -1.29912E-04 9.55769E-06 2.32143E-05-4.73508E-05 3.12197E-05 4.92142E-05-1.86838E-04 7.19442E-05 6.57723E-05



 n o d a l   p r i n t   o u t   f o r   t i m e  s t e p    6201                              ( at time 3.0996898E+00 )

 nodal point  x-disp     y-disp      z-disp      x-vel       y-vel       z-vel      x-accl      y-accl      z-accl      x-coor      y-coor      z-coor
    22626 -3.09376E-04 1.07555E-01-2.09121E-01 2.95361E-03 7.25990E-02-1.09960E-01 7.94570E-03 5.80364E-02-1.04156E-02 4.65907E+00-2.80833E+01-4.51908E+01



 n o d a l   p r i n t   o u t   f o r   t i m e  s t e p    6201                              ( at time 3.0996898E+00 )

 nodal point  x-rot      y-rot       z-rot       x-rot vel   y-rot vel   z-rot vel   x-rot acc   y-rot acc   z-rot acc
    22626 -1.35647E-04 1.32179E-05 2.85978E-05-7.05009E-05 4.14849E-05 6.00671E-05-2.31525E-04 1.02662E-04 1.08539E-04



 n o d a l   p r i n t   o u t   f o r   t i m e  s t e p    6401                              ( at time 3.1996798E+00 )

 nodal point  x-disp     y-disp      z-disp      x-vel       y-vel       z-vel      x-accl      y-accl      z-accl      x-coor      y-coor      z-coor
    22626  4.63124E-05 1.15176E-01-2.20263E-01 3.95503E-03 7.99134E-02-1.12929E-01 1.00152E-02 7.31509E-02-2.96995E-02 4.65942E+00-2.80757E+01-4.52020E+01



 n o d a l   p r i n t   o u t   f o r   t i m e  s t e p    6401                              ( at time 3.1996798E+00 )

 nodal point  x-rot      y-rot       z-rot       x-rot vel   y-rot vel   z-rot vel   x-rot acc   y-rot acc   z-rot acc
    22626 -1.44155E-04 1.81340E-05 3.48127E-05-9.36890E-05 5.40595E-05 6.96424E-05-2.31904E-04 1.25758E-04 9.57625E-05



 n o d a l   p r i n t   o u t   f o r   t i m e  s t e p    6601                              ( at time 3.2996698E+00 )

 nodal point  x-disp     y-disp      z-disp      x-vel       y-vel       z-vel      x-accl      y-accl      z-accl      x-coor      y-coor      z-coor
    22626  4.73041E-04 1.23598E-01-2.31721E-01 4.75687E-03 8.83290E-02-1.16002E-01 8.01922E-03 8.41649E-02-3.07333E-02 4.65985E+00-2.80672E+01-4.52134E+01



 n o d a l   p r i n t   o u t   f o r   t i m e  s t e p    6601                              ( at time 3.2996698E+00 )

 nodal point  x-rot      y-rot       z-rot       x-rot vel   y-rot vel   z-rot vel   x-rot acc   y-rot acc   z-rot acc
    22626 -1.55589E-04 2.39719E-05 4.27406E-05-1.31374E-04 6.69588E-05 8.65397E-05-3.76891E-04 1.29007E-04 1.68990E-04



 n o d a l   p r i n t   o u t   f o r   t i m e  s t e p    6801                              ( at time 3.3996598E+00 )

 nodal point  x-disp     y-disp      z-disp      x-vel       y-vel       z-vel      x-accl      y-accl      z-accl      x-coor      y-coor      z-coor
    22626  1.00193E-03 1.32871E-01-2.43374E-01 5.96681E-03 9.73583E-02-1.17038E-01 1.21005E-02 9.03013E-02-1.03534E-02 4.66038E+00-2.80580E+01-4.52251E+01



 n o d a l   p r i n t   o u t   f o r   t i m e  s t e p    6801                              ( at time 3.3996598E+00 )

 nodal point  x-rot      y-rot       z-rot       x-rot vel   y-rot vel   z-rot vel   x-rot acc   y-rot acc   z-rot acc
    22626 -1.71651E-04 3.11968E-05 5.25300E-05-1.92693E-04 8.41932E-05 1.10442E-04-6.13245E-04 1.72361E-04 2.39050E-04



 n o d a l   p r i n t   o u t   f o r   t i m e  s t e p    7001                              ( at time 3.4996498E+00 )

 nodal point  x-disp     y-disp      z-disp      x-vel       y-vel       z-vel      x-accl      y-accl      z-accl      x-coor      y-coor      z-coor
    22626  1.66508E-03 1.43064E-01-2.55024E-01 7.09651E-03 1.07028E-01-1.16000E-01 1.12982E-02 9.67062E-02 1.03776E-02 4.66104E+00-2.80478E+01-4.52367E+01



 n o d a l   p r i n t   o u t   f o r   t i m e  s t e p    7001                              ( at time 3.4996498E+00 )

 nodal point  x-rot      y-rot       z-rot       x-rot vel   y-rot vel   z-rot vel   x-rot acc   y-rot acc   z-rot acc
    22626 -1.94140E-04 4.05762E-05 6.50335E-05-2.55080E-04 1.00411E-04 1.42056E-04-6.23937E-04 1.62192E-04 3.16169E-04



 n o d a l   p r i n t   o u t   f o r   t i m e  s t e p    7201                              ( at time 3.5996397E+00 )

 nodal point  x-disp     y-disp      z-disp      x-vel       y-vel       z-vel      x-accl      y-accl      z-accl      x-coor      y-coor      z-coor
    22626  2.44368E-03 1.54276E-01-2.66574E-01 8.14306E-03 1.17177E-01-1.15683E-01 1.04666E-02 1.01500E-01 3.17427E-03 4.66182E+00-2.80366E+01-4.52483E+01



 n o d a l   p r i n t   o u t   f o r   t i m e  s t e p    7201                              ( at time 3.5996397E+00 )

 nodal point  x-rot      y-rot       z-rot       x-rot vel   y-rot vel   z-rot vel   x-rot acc   y-rot acc   z-rot acc
    22626 -2.23763E-04 5.13411E-05 8.06098E-05-3.46800E-04 1.12165E-04 1.70009E-04-9.17291E-04 1.17552E-04 2.79561E-04



 n o d a l   p r i n t   o u t   f o r   t i m e  s t e p    7401                              ( at time 3.6996297E+00 )

 nodal point  x-disp     y-disp      z-disp      x-vel       y-vel       z-vel      x-accl      y-accl      z-accl      x-coor      y-coor      z-coor
    22626  3.32716E-03 1.66529E-01-2.78105E-01 9.57713E-03 1.27597E-01-1.15220E-01 1.43421E-02 1.04209E-01 4.62257E-03 4.66270E+00-2.80243E+01-4.52598E+01



 n o d a l   p r i n t   o u t   f o r   t i m e  s t e p    7401                              ( at time 3.6996297E+00 )

 nodal point  x-rot      y-rot       z-rot       x-rot vel   y-rot vel   z-rot vel   x-rot acc   y-rot acc   z-rot acc
    22626 -2.61729E-04 6.34238E-05 9.90693E-05-4.10486E-04 1.27090E-04 2.00617E-04-6.36922E-04 1.49264E-04 3.06108E-04



 n o d a l   p r i n t   o u t   f o r   t i m e  s t e p    7601                              ( at time 3.7996197E+00 )

 nodal point  x-disp     y-disp      z-disp      x-vel       y-vel       z-vel      x-accl      y-accl      z-accl      x-coor      y-coor      z-coor
    22626  4.32238E-03 1.79994E-01-2.89581E-01 1.07180E-02 1.40495E-01-1.13765E-01 1.14096E-02 1.28993E-01 1.45599E-02 4.66370E+00-2.80108E+01-4.52713E+01



 n o d a l   p r i n t   o u t   f o r   t i m e  s t e p    7601                              ( at time 3.7996197E+00 )

 nodal point  x-rot      y-rot       z-rot       x-rot vel   y-rot vel   z-rot vel   x-rot acc   y-rot acc   z-rot acc
    22626 -3.09078E-04 7.63877E-05 1.20493E-04-5.27483E-04 1.33400E-04 2.32685E-04-1.17009E-03 6.31132E-05 3.20712E-04



 n o d a l   p r i n t   o u t   f o r   t i m e  s t e p    7801                              ( at time 3.8996097E+00 )

 nodal point  x-disp     y-disp      z-disp      x-vel       y-vel       z-vel      x-accl      y-accl      z-accl      x-coor      y-coor      z-coor
    22626  5.41197E-03 1.94651E-01-3.00803E-01 1.19521E-02 1.52543E-01-1.10273E-01 1.23425E-02 1.20500E-01 3.49226E-02 4.66479E+00-2.79962E+01-4.52825E+01



 n o d a l   p r i n t   o u t   f o r   t i m e  s t e p    7801                              ( at time 3.8996097E+00 )

 nodal point  x-rot      y-rot       z-rot       x-rot vel   y-rot vel   z-rot vel   x-rot acc   y-rot acc   z-rot acc
    22626 -3.68412E-04 8.98671E-05 1.45228E-04-6.39651E-04 1.44408E-04 2.67179E-04-1.12179E-03 1.10090E-04 3.44971E-04



 n o d a l   p r i n t   o u t   f o r   t i m e  s t e p    8001                              ( at time 3.9995997E+00 )

 nodal point  x-disp     y-disp      z-disp      x-vel       y-vel       z-vel      x-accl      y-accl      z-accl      x-coor      y-coor      z-coor
    22626  6.60974E-03 2.10569E-01-3.11627E-01 1.22655E-02 1.64925E-01-1.06844E-01 3.13458E-03 1.23830E-01 3.42887E-02 4.66598E+00-2.79803E+01-4.52933E+01



 n o d a l   p r i n t   o u t   f o r   t i m e  s t e p    8001                              ( at time 3.9995997E+00 )

 nodal point  x-rot      y-rot       z-rot       x-rot vel   y-rot vel   z-rot vel   x-rot acc   y-rot acc   z-rot acc
    22626 -4.40250E-04 1.04392E-04 1.72904E-04-7.60408E-04 1.51898E-04 2.98483E-04-1.20769E-03 7.49060E-05 3.13070E-04



 n o d a l   p r i n t   o u t   f o r   t i m e  s t e p    8201                              ( at time 4.0995897E+00 )

 nodal point  x-disp     y-disp      z-disp      x-vel       y-vel       z-vel      x-accl      y-accl      z-accl      x-coor      y-coor      z-coor
    22626  7.84682E-03 2.27867E-01-3.22227E-01 1.23874E-02 1.80532E-01-1.06302E-01 1.21868E-03 1.56086E-01 5.42448E-03 4.66722E+00-2.79630E+01-4.53039E+01



 n o d a l   p r i n t   o u t   f o r   t i m e  s t e p    8201                              ( at time 4.0995897E+00 )

 nodal point  x-rot      y-rot       z-rot       x-rot vel   y-rot vel   z-rot vel   x-rot acc   y-rot acc   z-rot acc
    22626 -5.23342E-04 1.19483E-04 2.04058E-04-9.25700E-04 1.53791E-04 3.29835E-04-1.65308E-03 1.89310E-05 3.13560E-04



 n o d a l   p r i n t   o u t   f o r   t i m e  s t e p    8401                              ( at time 4.1995797E+00 )

 nodal point  x-disp     y-disp      z-disp      x-vel       y-vel       z-vel      x-accl      y-accl      z-accl      x-coor      y-coor      z-coor
    22626  9.14482E-03 2.46622E-01-3.32562E-01 1.29039E-02 1.94352E-01-1.01572E-01 5.16561E-03 1.38210E-01 4.73010E-02 4.66852E+00-2.79442E+01-4.53143E+01



 n o d a l   p r i n t   o u t   f o r   t i m e  s t e p    8401                              ( at time 4.1995797E+00 )

 nodal point  x-rot      y-rot       z-rot       x-rot vel   y-rot vel   z-rot vel   x-rot acc   y-rot acc   z-rot acc
    22626 -6.21006E-04 1.34849E-04 2.37862E-04-1.06325E-03 1.63270E-04 3.51108E-04-1.37569E-03 9.48016E-05 2.12743E-04



 n o d a l   p r i n t   o u t   f o r   t i m e  s t e p    8601                              ( at time 4.2995697E+00 )

 nodal point  x-disp     y-disp      z-disp      x-vel       y-vel       z-vel      x-accl      y-accl      z-accl      x-coor      y-coor      z-coor
    22626  1.05921E-02 2.66882E-01-3.42496E-01 1.43966E-02 2.11450E-01-9.70902E-02 1.49285E-02 1.71000E-01 4.48226E-02 4.66997E+00-2.79239E+01-4.53242E+01



 n o d a l   p r i n t   o u t   f o r   t i m e  s t e p    8601                              ( at time 4.2995697E+00 )

 nodal point  x-rot      y-rot       z-rot       x-rot vel   y-rot vel   z-rot vel   x-rot acc   y-rot acc   z-rot acc
    22626 -7.34564E-04 1.51939E-04 2.75233E-04-1.21214E-03 1.63837E-04 3.78958E-04-1.48905E-03 5.67014E-06 2.78530E-04



 n o d a l   p r i n t   o u t   f o r   t i m e  s t e p    8801                              ( at time 4.3995597E+00 )

 nodal point  x-disp     y-disp      z-disp      x-vel       y-vel       z-vel      x-accl      y-accl      z-accl      x-coor      y-coor      z-coor
    22626  1.20641E-02 2.88645E-01-3.51844E-01 1.47993E-02 2.24103E-01-8.96701E-02 4.02730E-03 1.26545E-01 7.42093E-02 4.67144E+00-2.79022E+01-4.53336E+01



 n o d a l   p r i n t   o u t   f o r   t i m e  s t e p    8801                              ( at time 4.3995597E+00 )

 nodal point  x-rot      y-rot       z-rot       x-rot vel   y-rot vel   z-rot vel   x-rot acc   y-rot acc   z-rot acc
    22626 -8.62920E-04 1.68096E-04 3.15540E-04-1.30880E-03 1.44640E-04 4.01533E-04-9.66615E-04-1.91996E-04 2.25772E-04



 n o d a l   p r i n t   o u t   f o r   t i m e  s t e p    9001                              ( at time 4.4995497E+00 )

 nodal point  x-disp     y-disp      z-disp      x-vel       y-vel       z-vel      x-accl      y-accl      z-accl      x-coor      y-coor      z-coor
    22626  1.35818E-02 3.11974E-01-3.60669E-01 1.69271E-02 2.42387E-01-8.54375E-02 2.12800E-02 1.82857E-01 4.23292E-02 4.67296E+00-2.78789E+01-4.53424E+01



 n o d a l   p r i n t   o u t   f o r   t i m e  s t e p    9001                              ( at time 4.4995497E+00 )

 nodal point  x-rot      y-rot       z-rot       x-rot vel   y-rot vel   z-rot vel   x-rot acc   y-rot acc   z-rot acc
    22626 -1.00749E-03 1.84412E-04 3.57364E-04-1.54177E-03 1.78585E-04 4.26883E-04-2.33001E-03 3.39490E-04 2.53521E-04



 n o d a l   p r i n t   o u t   f o r   t i m e  s t e p    9201                              ( at time 4.5995397E+00 )

 nodal point  x-disp     y-disp      z-disp      x-vel       y-vel       z-vel      x-accl      y-accl      z-accl      x-coor      y-coor      z-coor
    22626  1.53128E-02 3.37030E-01-3.68956E-01 1.68298E-02 2.60021E-01-8.17221E-02-9.72474E-04 1.76354E-01 3.71578E-02 4.67469E+00-2.78538E+01-4.53507E+01



 n o d a l   p r i n t   o u t   f o r   t i m e  s t e p    9201                              ( at time 4.5995397E+00 )

 nodal point  x-rot      y-rot       z-rot       x-rot vel   y-rot vel   z-rot vel   x-rot acc   y-rot acc   z-rot acc
    22626 -1.17141E-03 2.02859E-04 4.02106E-04-1.77158E-03 1.67473E-04 4.79565E-04-2.29832E-03-1.11135E-04 5.26878E-04



 n o d a l   p r i n t   o u t   f o r   t i m e  s t e p    9401                              ( at time 4.6995297E+00 )

 nodal point  x-disp     y-disp      z-disp      x-vel       y-vel       z-vel      x-accl      y-accl      z-accl      x-coor      y-coor      z-coor
    22626  1.70740E-02 3.63845E-01-3.76717E-01 1.78261E-02 2.76822E-01-7.51881E-02 9.96368E-03 1.68033E-01 6.53472E-02 4.67645E+00-2.78270E+01-4.53584E+01



 n o d a l   p r i n t   o u t   f o r   t i m e  s t e p    9401                              ( at time 4.6995297E+00 )

 nodal point  x-rot      y-rot       z-rot       x-rot vel   y-rot vel   z-rot vel   x-rot acc   y-rot acc   z-rot acc
    22626 -1.35362E-03 2.18746E-04 4.49459E-04-1.94783E-03 1.80029E-04 4.47306E-04-1.76264E-03 1.25568E-04-3.22627E-04



 n o d a l   p r i n t   o u t   f o r   t i m e  s t e p    9601                              ( at time 4.7995197E+00 )

 nodal point  x-disp     y-disp      z-disp      x-vel       y-vel       z-vel      x-accl      y-accl      z-accl      x-coor      y-coor      z-coor
    22626  1.88945E-02 3.92267E-01-3.83746E-01 1.86178E-02 2.91495E-01-6.69889E-02 7.91807E-03 1.46745E-01 8.20001E-02 4.67827E+00-2.77986E+01-4.53655E+01



 n o d a l   p r i n t   o u t   f o r   t i m e  s t e p    9601                              ( at time 4.7995197E+00 )

 nodal point  x-rot      y-rot       z-rot       x-rot vel   y-rot vel   z-rot vel   x-rot acc   y-rot acc   z-rot acc
    22626 -1.55332E-03 2.36317E-04 4.95972E-04-2.06563E-03 1.76141E-04 4.73561E-04-1.17814E-03-3.88795E-05 2.62582E-04



 n o d a l   p r i n t   o u t   f o r   t i m e  s t e p    9801                              ( at time 4.8995097E+00 )

 nodal point  x-disp     y-disp      z-disp      x-vel       y-vel       z-vel      x-accl      y-accl      z-accl      x-coor      y-coor      z-coor
    22626  2.09225E-02 4.22523E-01-3.90151E-01 2.07272E-02 3.09980E-01-6.07115E-02 2.10963E-02 1.84860E-01 6.27808E-02 4.68030E+00-2.77683E+01-4.53719E+01



 n o d a l   p r i n t   o u t   f o r   t i m e  s t e p    9801                              ( at time 4.8995097E+00 )

 nodal point  x-rot      y-rot       z-rot       x-rot vel   y-rot vel   z-rot vel   x-rot acc   y-rot acc   z-rot acc
    22626 -1.77303E-03 2.53793E-04 5.45563E-04-2.29370E-03 1.74475E-04 4.90621E-04-2.28087E-03-1.66660E-05 1.70616E-04



 n o d a l   p r i n t   o u t   f o r   t i m e  s t e p   10001                              ( at time 4.9994997E+00 )

 nodal point  x-disp     y-disp      z-disp      x-vel       y-vel       z-vel      x-accl      y-accl      z-accl      x-coor      y-coor      z-coor
    22626  2.30016E-02 4.54358E-01-3.95738E-01 2.18476E-02 3.29401E-01-5.37114E-02 1.12045E-02 1.94234E-01 7.00077E-02 4.68238E+00-2.77365E+01-4.53775E+01



 n o d a l   p r i n t   o u t   f o r   t i m e  s t e p   10001                              ( at time 4.9994997E+00 )

 nodal point  x-rot      y-rot       z-rot       x-rot vel   y-rot vel   z-rot vel   x-rot acc   y-rot acc   z-rot acc
    22626 -2.01059E-03 2.71492E-04 5.95340E-04-2.48936E-03 1.56263E-04 5.17339E-04-1.95681E-03-1.82129E-04 2.67203E-04



 n o d a l   p r i n t   o u t   f o r   t i m e  s t e p   10202                              ( at time 5.0999896E+00 )

 nodal point  x-disp     y-disp      z-disp      x-vel       y-vel       z-vel      x-accl      y-accl      z-accl      x-coor      y-coor      z-coor
    22626  2.51406E-02 4.88360E-01-4.00783E-01 2.18786E-02 3.46970E-01-4.59448E-02 3.08916E-04 1.74828E-01 7.72875E-02 4.68452E+00-2.77025E+01-4.53825E+01



 n o d a l   p r i n t   o u t   f o r   t i m e  s t e p   10202                              ( at time 5.0999896E+00 )

 nodal point  x-rot      y-rot       z-rot       x-rot vel   y-rot vel   z-rot vel   x-rot acc   y-rot acc   z-rot acc
    22626 -2.26964E-03 2.87443E-04 6.47053E-04-2.67862E-03 1.79253E-04 5.48471E-04-1.88337E-03 2.28780E-04 3.09806E-04



 n o d a l   p r i n t   o u t   f o r   t i m e  s t e p   10402                              ( at time 5.1999796E+00 )

 nodal point  x-disp     y-disp      z-disp      x-vel       y-vel       z-vel      x-accl      y-accl      z-accl      x-coor      y-coor      z-coor
    22626  2.72971E-02 5.23801E-01-4.04899E-01 2.19508E-02 3.63733E-01-3.63426E-02 7.22087E-04 1.67655E-01 9.60305E-02 4.68667E+00-2.76670E+01-4.53866E+01



 n o d a l   p r i n t   o u t   f o r   t i m e  s t e p   10402                              ( at time 5.1999796E+00 )

 nodal point  x-rot      y-rot       z-rot       x-rot vel   y-rot vel   z-rot vel   x-rot acc   y-rot acc   z-rot acc
    22626 -2.54558E-03 3.04332E-04 6.99050E-04-2.82688E-03 1.37183E-04 5.34588E-04-1.48280E-03-4.20742E-04-1.38847E-04



 n o d a l   p r i n t   o u t   f o r   t i m e  s t e p   10602                              ( at time 5.2999696E+00 )

 nodal point  x-disp     y-disp      z-disp      x-vel       y-vel       z-vel      x-accl      y-accl      z-accl      x-coor      y-coor      z-coor
    22626  2.96245E-02 5.61049E-01-4.08133E-01 2.27252E-02 3.79039E-01-2.77978E-02 7.74458E-03 1.53072E-01 8.54574E-02 4.68900E+00-2.76298E+01-4.53899E+01



 n o d a l   p r i n t   o u t   f o r   t i m e  s t e p   10602                              ( at time 5.2999696E+00 )

 nodal point  x-rot      y-rot       z-rot       x-rot vel   y-rot vel   z-rot vel   x-rot acc   y-rot acc   z-rot acc
    22626 -2.84005E-03 3.22548E-04 7.49392E-04-3.05402E-03 2.04304E-04 5.26165E-04-2.27164E-03 6.71277E-04-8.42338E-05



 n o d a l   p r i n t   o u t   f o r   t i m e  s t e p   10802                              ( at time 5.3999596E+00 )

 nodal point  x-disp     y-disp      z-disp      x-vel       y-vel       z-vel      x-accl      y-accl      z-accl      x-coor      y-coor      z-coor
    22626  3.19171E-02 5.99886E-01-4.10508E-01 2.55849E-02 3.99146E-01-2.09916E-02 2.85998E-02 2.01085E-01 6.80682E-02 4.69129E+00-2.75909E+01-4.53922E+01



 n o d a l   p r i n t   o u t   f o r   t i m e  s t e p   10802                              ( at time 5.3999596E+00 )

 nodal point  x-rot      y-rot       z-rot       x-rot vel   y-rot vel   z-rot vel   x-rot acc   y-rot acc   z-rot acc
    22626 -3.15508E-03 3.40246E-04 8.00644E-04-3.28787E-03 1.95115E-04 5.13294E-04-2.33867E-03-9.18969E-05-1.28721E-04



 n o d a l   p r i n t   o u t   f o r   t i m e  s t e p   11002                              ( at time 5.4999496E+00 )

 nodal point  x-disp     y-disp      z-disp      x-vel       y-vel       z-vel      x-accl      y-accl      z-accl      x-coor      y-coor      z-coor
    22626  3.43395E-02 6.40495E-01-4.12109E-01 2.13420E-02 4.13828E-01-1.13956E-02-4.24335E-02 1.46842E-01 9.59696E-02 4.69371E+00-2.75503E+01-4.53938E+01



 n o d a l   p r i n t   o u t   f o r   t i m e  s t e p   11002                              ( at time 5.4999496E+00 )

 nodal point  x-rot      y-rot       z-rot       x-rot vel   y-rot vel   z-rot vel   x-rot acc   y-rot acc   z-rot acc
    22626 -3.48893E-03 3.58053E-04 8.50130E-04-3.45133E-03 1.84304E-04 5.19605E-04-1.63478E-03-1.08125E-04 6.31099E-05



 n o d a l   p r i n t   o u t   f o r   t i m e  s t e p   11202                              ( at time 5.5999396E+00 )

 nodal point  x-disp     y-disp      z-disp      x-vel       y-vel       z-vel      x-accl      y-accl      z-accl      x-coor      y-coor      z-coor
    22626  3.68214E-02 6.82698E-01-4.12520E-01 2.62085E-02 4.29523E-01 1.97018E-03 4.86703E-02 1.56966E-01 1.33672E-01 4.69620E+00-2.75081E+01-4.53942E+01



 n o d a l   p r i n t   o u t   f o r   t i m e  s t e p   11202                              ( at time 5.5999396E+00 )

 nodal point  x-rot      y-rot       z-rot       x-rot vel   y-rot vel   z-rot vel   x-rot acc   y-rot acc   z-rot acc
    22626 -3.84145E-03 3.74653E-04 9.00279E-04-3.60974E-03 1.66199E-04 4.29150E-04-1.58430E-03-1.81070E-04-9.04642E-04



 n o d a l   p r i n t   o u t   f o r   t i m e  s t e p   11402                              ( at time 5.6999296E+00 )

 nodal point  x-disp     y-disp      z-disp      x-vel       y-vel       z-vel      x-accl      y-accl      z-accl      x-coor      y-coor      z-coor
    22626  3.92897E-02 7.26329E-01-4.11909E-01 2.45568E-02 4.45294E-01 1.08401E-02-1.65189E-02 1.57724E-01 8.87082E-02 4.69866E+00-2.74645E+01-4.53936E+01



 n o d a l   p r i n t   o u t   f o r   t i m e  s t e p   11402                              ( at time 5.6999296E+00 )

 nodal point  x-rot      y-rot       z-rot       x-rot vel   y-rot vel   z-rot vel   x-rot acc   y-rot acc   z-rot acc
    22626 -4.21169E-03 3.95227E-04 9.45512E-04-3.80877E-03 1.85063E-04 4.57315E-04-1.99047E-03 1.88662E-04 2.81684E-04



 n o d a l   p r i n t   o u t   f o r   t i m e  s t e p   11602                              ( at time 5.7999195E+00 )

 nodal point  x-disp     y-disp      z-disp      x-vel       y-vel       z-vel      x-accl      y-accl      z-accl      x-coor      y-coor      z-coor
    22626  4.19222E-02 7.71539E-01-4.10093E-01 2.50344E-02 4.59341E-01 2.33484E-02 4.77638E-03 1.40481E-01 1.25095E-01 4.70130E+00-2.74193E+01-4.53918E+01



 n o d a l   p r i n t   o u t   f o r   t i m e  s t e p   11602                              ( at time 5.7999195E+00 )

 nodal point  x-rot      y-rot       z-rot       x-rot vel   y-rot vel   z-rot vel   x-rot acc   y-rot acc   z-rot acc
    22626 -4.59973E-03 4.11988E-04 9.90139E-04-3.98034E-03 1.52160E-04 4.44451E-04-1.71593E-03-3.29064E-04-1.28657E-04



 n o d a l   p r i n t   o u t   f o r   t i m e  s t e p   11802                              ( at time 5.8999095E+00 )

 nodal point  x-disp     y-disp      z-disp      x-vel       y-vel       z-vel      x-accl      y-accl      z-accl      x-coor      y-coor      z-coor
    22626  4.44520E-02 8.18098E-01-4.07210E-01 2.59755E-02 4.73703E-01 3.35328E-02 9.41213E-03 1.43635E-01 1.01855E-01 4.70383E+00-2.73727E+01-4.53889E+01



 n o d a l   p r i n t   o u t   f o r   t i m e  s t e p   11802                              ( at time 5.8999095E+00 )

 nodal point  x-rot      y-rot       z-rot       x-rot vel   y-rot vel   z-rot vel   x-rot acc   y-rot acc   z-rot acc
    22626 -5.00484E-03 4.30430E-04 1.03468E-03-4.13571E-03 2.04915E-04 3.76706E-04-1.55383E-03 5.27599E-04-6.77516E-04



 n o d a l   p r i n t   o u t   f o r   t i m e  s t e p   12002                              ( at time 5.9998995E+00 )

 nodal point  x-disp     y-disp      z-disp      x-vel       y-vel       z-vel      x-accl      y-accl      z-accl      x-coor      y-coor      z-coor
    22626  4.68961E-02 8.66193E-01-4.03224E-01 2.44492E-02 4.86815E-01 4.68324E-02-1.52640E-02 1.31130E-01 1.33009E-01 4.70627E+00-2.73246E+01-4.53849E+01



 n o d a l   p r i n t   o u t   f o r   t i m e  s t e p   12002                              ( at time 5.9998995E+00 )

 nodal point  x-rot      y-rot       z-rot       x-rot vel   y-rot vel   z-rot vel   x-rot acc   y-rot acc   z-rot acc
    22626 -5.42924E-03 4.46515E-04 1.07334E-03-4.27650E-03 1.51678E-04 3.53170E-04-1.40802E-03-5.32423E-04-2.35382E-04



 n o d a l   p r i n t   o u t   f o r   t i m e  s t e p   12202                              ( at time 6.0998895E+00 )

 nodal point  x-disp     y-disp      z-disp      x-vel       y-vel       z-vel      x-accl      y-accl      z-accl      x-coor      y-coor      z-coor
    22626  4.92309E-02 9.15434E-01-3.98103E-01 2.42664E-02 5.00069E-01 5.75383E-02-1.82842E-03 1.32554E-01 1.07070E-01 4.70861E+00-2.72754E+01-4.53798E+01



 n o d a l   p r i n t   o u t   f o r   t i m e  s t e p   12202                              ( at time 6.0998895E+00 )

 nodal point  x-rot      y-rot       z-rot       x-rot vel   y-rot vel   z-rot vel   x-rot acc   y-rot acc   z-rot acc
    22626 -5.86673E-03 4.65564E-04 1.10696E-03-4.46290E-03 1.82960E-04 3.35823E-04-1.86414E-03 3.12849E-04-1.73495E-04



 n o d a l   p r i n t   o u t   f o r   t i m e  s t e p   12402                              ( at time 6.1998795E+00 )

 nodal point  x-disp     y-disp      z-disp      x-vel       y-vel       z-vel      x-accl      y-accl      z-accl      x-coor      y-coor      z-coor
    22626  5.16351E-02 9.66205E-01-3.91778E-01 2.48668E-02 5.15965E-01 6.94508E-02 6.00466E-03 1.58982E-01 1.19137E-01 4.71101E+00-2.72246E+01-4.53735E+01



 n o d a l   p r i n t   o u t   f o r   t i m e  s t e p   12402                              ( at time 6.1998795E+00 )

 nodal point  x-rot      y-rot       z-rot       x-rot vel   y-rot vel   z-rot vel   x-rot acc   y-rot acc   z-rot acc
    22626 -6.32485E-03 4.83219E-04 1.14093E-03-4.65231E-03 1.65054E-04 2.94539E-04-1.89438E-03-1.79076E-04-4.12881E-04



 n o d a l   p r i n t   o u t   f o r   t i m e  s t e p   12602                              ( at time 6.2998695E+00 )

 nodal point  x-disp     y-disp      z-disp      x-vel       y-vel       z-vel      x-accl      y-accl      z-accl      x-coor      y-coor      z-coor
    22626  5.39336E-02 1.01824E+00-3.84231E-01 2.44034E-02 5.26061E-01 7.93314E-02-4.63499E-03 1.00971E-01 9.88157E-02 4.71331E+00-2.71726E+01-4.53660E+01



 n o d a l   p r i n t   o u t   f o r   t i m e  s t e p   12602                              ( at time 6.2998695E+00 )

 nodal point  x-rot      y-rot       z-rot       x-rot vel   y-rot vel   z-rot vel   x-rot acc   y-rot acc   z-rot acc
    22626 -6.79413E-03 5.00719E-04 1.16762E-03-4.76069E-03 2.08474E-04 2.60364E-04-1.08390E-03 4.34243E-04-3.41778E-04



 n o d a l   p r i n t   o u t   f o r   t i m e  s t e p   12802                              ( at time 6.3998595E+00 )

 nodal point  x-disp     y-disp      z-disp      x-vel       y-vel       z-vel      x-accl      y-accl      z-accl      x-coor      y-coor      z-coor
    22626  5.62155E-02 1.07163E+00-3.75622E-01 2.10606E-02 5.40243E-01 9.37067E-02-3.34309E-02 1.41831E-01 1.43767E-01 4.71559E+00-2.71192E+01-4.53573E+01



 n o d a l   p r i n t   o u t   f o r   t i m e  s t e p   12802                              ( at time 6.3998595E+00 )

 nodal point  x-rot      y-rot       z-rot       x-rot vel   y-rot vel   z-rot vel   x-rot acc   y-rot acc   z-rot acc
    22626 -7.28160E-03 5.21144E-04 1.18848E-03-4.96643E-03 1.98162E-04 2.47066E-04-2.05753E-03-1.03131E-04-1.32996E-04



 n o d a l   p r i n t   o u t   f o r   t i m e  s t e p   13002                              ( at time 6.4998495E+00 )

 nodal point  x-disp     y-disp      z-disp      x-vel       y-vel       z-vel      x-accl      y-accl      z-accl      x-coor      y-coor      z-coor
    22626  5.84332E-02 1.12646E+00-3.65557E-01 2.37047E-02 5.57523E-01 1.07122E-01 2.64437E-02 1.72813E-01 1.34169E-01 4.71781E+00-2.70644E+01-4.53473E+01



 n o d a l   p r i n t   o u t   f o r   t i m e  s t e p   13002                              ( at time 6.4998495E+00 )

 nodal point  x-rot      y-rot       z-rot       x-rot vel   y-rot vel   z-rot vel   x-rot acc   y-rot acc   z-rot acc
    22626 -7.78623E-03 5.39250E-04 1.20931E-03-5.13783E-03 2.08482E-04 1.68698E-04-1.71424E-03 1.03217E-04-7.83762E-04



 n o d a l   p r i n t   o u t   f o r   t i m e  s t e p   13202                              ( at time 6.5998395E+00 )

 nodal point  x-disp     y-disp      z-disp      x-vel       y-vel       z-vel      x-accl      y-accl      z-accl      x-coor      y-coor      z-coor
    22626  6.07722E-02 1.18267E+00-3.54141E-01 1.94650E-02 5.68739E-01 1.22056E-01-4.24011E-02 1.12180E-01 1.49355E-01 4.72015E+00-2.70082E+01-4.53359E+01



 n o d a l   p r i n t   o u t   f o r   t i m e  s t e p   13202                              ( at time 6.5998395E+00 )

 nodal point  x-rot      y-rot       z-rot       x-rot vel   y-rot vel   z-rot vel   x-rot acc   y-rot acc   z-rot acc
    22626 -8.30748E-03 5.61179E-04 1.22549E-03-5.30133E-03 1.88088E-04 1.83558E-04-1.63512E-03-2.03962E-04 1.48621E-04



 n o d a l   p r i n t   o u t   f o r   t i m e  s t e p   13402                              ( at time 6.6998295E+00 )

 nodal point  x-disp     y-disp      z-disp      x-vel       y-vel       z-vel      x-accl      y-accl      z-accl      x-coor      y-coor      z-coor
    22626  6.28825E-02 1.24021E+00-3.41348E-01 2.18206E-02 5.82814E-01 1.33308E-01 2.35577E-02 1.40756E-01 1.12525E-01 4.72226E+00-2.69506E+01-4.53231E+01



 n o d a l   p r i n t   o u t   f o r   t i m e  s t e p   13402                              ( at time 6.6998295E+00 )

 nodal point  x-rot      y-rot       z-rot       x-rot vel   y-rot vel   z-rot vel   x-rot acc   y-rot acc   z-rot acc
    22626 -8.84668E-03 5.79837E-04 1.23982E-03-5.44940E-03 2.14071E-04 1.02761E-04-1.48089E-03 2.59855E-04-8.08060E-04



 n o d a l   p r i n t   o u t   f o r   t i m e  s t e p   13602                              ( at time 6.7998195E+00 )

 nodal point  x-disp     y-disp      z-disp      x-vel       y-vel       z-vel      x-accl      y-accl      z-accl      x-coor      y-coor      z-coor
    22626  6.50882E-02 1.29928E+00-3.27199E-01 2.13412E-02 5.97247E-01 1.50392E-01-4.79423E-03 1.44344E-01 1.70863E-01 4.72446E+00-2.68916E+01-4.53089E+01



 n o d a l   p r i n t   o u t   f o r   t i m e  s t e p   13602                              ( at time 6.7998195E+00 )

 nodal point  x-rot      y-rot       z-rot       x-rot vel   y-rot vel   z-rot vel   x-rot acc   y-rot acc   z-rot acc
    22626 -9.40088E-03 6.03379E-04 1.24994E-03-5.59088E-03 2.26576E-04 1.34941E-04-1.41492E-03 1.25062E-04 3.21835E-04



 n o d a l   p r i n t   o u t   f o r   t i m e  s t e p   13802                              ( at time 6.8998095E+00 )

 nodal point  x-disp     y-disp      z-disp      x-vel       y-vel       z-vel      x-accl      y-accl      z-accl      x-coor      y-coor      z-coor
    22626  6.74810E-02 1.35997E+00-3.11460E-01 2.36229E-02 6.13928E-01 1.64233E-01 2.28195E-02 1.66835E-01 1.38420E-01 4.72686E+00-2.68309E+01-4.52932E+01



 n o d a l   p r i n t   o u t   f o r   t i m e  s t e p   13802                              ( at time 6.8998095E+00 )

 nodal point  x-rot      y-rot       z-rot       x-rot vel   y-rot vel   z-rot vel   x-rot acc   y-rot acc   z-rot acc
    22626 -9.97407E-03 6.24773E-04 1.25841E-03-5.78092E-03 2.01826E-04 6.72768E-05-1.90057E-03-2.47523E-04-6.76709E-04



 n o d a l   p r i n t   o u t   f o r   t i m e  s t e p   14002                              ( at time 6.9997995E+00 )

 nodal point  x-disp     y-disp      z-disp      x-vel       y-vel       z-vel      x-accl      y-accl      z-accl      x-coor      y-coor      z-coor
    22626  6.96364E-02 1.42202E+00-2.94314E-01 2.44944E-02 6.30018E-01 1.78786E-01 8.71625E-03 1.60908E-01 1.45548E-01 4.72901E+00-2.67688E+01-4.52760E+01



 n o d a l   p r i n t   o u t   f o r   t i m e  s t e p   14002                              ( at time 6.9997995E+00 )

 nodal point  x-rot      y-rot       z-rot       x-rot vel   y-rot vel   z-rot vel   x-rot acc   y-rot acc   z-rot acc
    22626 -1.05618E-02 6.48865E-04 1.26448E-03-5.97969E-03 2.51792E-04 2.33611E-05-1.98788E-03 4.99715E-04-4.39202E-04



 n o d a l   p r i n t   o u t   f o r   t i m e  s t e p   14202                              ( at time 7.0997895E+00 )

 nodal point  x-disp     y-disp      z-disp      x-vel       y-vel       z-vel      x-accl      y-accl      z-accl      x-coor      y-coor      z-coor
    22626  7.17553E-02 1.48588E+00-2.75458E-01 2.26288E-02 6.44525E-01 1.96015E-01-1.86585E-02 1.45091E-01 1.72307E-01 4.73113E+00-2.67050E+01-4.52572E+01



 n o d a l   p r i n t   o u t   f o r   t i m e  s t e p   14202                              ( at time 7.0997895E+00 )

 nodal point  x-rot      y-rot       z-rot       x-rot vel   y-rot vel   z-rot vel   x-rot acc   y-rot acc   z-rot acc
    22626 -1.11684E-02 6.70704E-04 1.27218E-03-6.09260E-03 2.16315E-04 8.32341E-05-1.12922E-03-3.54809E-04 5.98788E-04



 n o d a l   p r i n t   o u t   f o r   t i m e  s t e p   14402                              ( at time 7.1997794E+00 )

 nodal point  x-disp     y-disp      z-disp      x-vel       y-vel       z-vel      x-accl      y-accl      z-accl      x-coor      y-coor      z-coor
    22626  7.41824E-02 1.55124E+00-2.55344E-01 2.21423E-02 6.61908E-01 2.09310E-01-4.86499E-03 1.73841E-01 1.32959E-01 4.73356E+00-2.66396E+01-4.52371E+01



 n o d a l   p r i n t   o u t   f o r   t i m e  s t e p   14402                              ( at time 7.1997794E+00 )

 nodal point  x-rot      y-rot       z-rot       x-rot vel   y-rot vel   z-rot vel   x-rot acc   y-rot acc   z-rot acc
    22626 -1.17874E-02 6.99239E-04 1.27789E-03-6.26574E-03 2.75275E-04 9.84933E-05-1.73161E-03 5.89665E-04 1.52608E-04



 n o d a l   p r i n t   o u t   f o r   t i m e  s t e p   14602                              ( at time 7.2997694E+00 )

 nodal point  x-disp     y-disp      z-disp      x-vel       y-vel       z-vel      x-accl      y-accl      z-accl      x-coor      y-coor      z-coor
    22626  7.65281E-02 1.61810E+00-2.33524E-01 2.38854E-02 6.78161E-01 2.27037E-01 1.74325E-02 1.62551E-01 1.77288E-01 4.73590E+00-2.65727E+01-4.52152E+01



 n o d a l   p r i n t   o u t   f o r   t i m e  s t e p   14602                              ( at time 7.2997694E+00 )

 nodal point  x-rot      y-rot       z-rot       x-rot vel   y-rot vel   z-rot vel   x-rot acc   y-rot acc   z-rot acc
    22626 -1.24258E-02 7.23384E-04 1.28722E-03-6.49735E-03 2.49515E-04 8.32607E-05-2.31636E-03-2.57631E-04-1.52342E-04



 n o d a l   p r i n t   o u t   f o r   t i m e  s t e p   14802                              ( at time 7.3997594E+00 )

 nodal point  x-disp     y-disp      z-disp      x-vel       y-vel       z-vel      x-accl      y-accl      z-accl      x-coor      y-coor      z-coor
    22626  7.86446E-02 1.68661E+00-2.10066E-01 2.38410E-02 6.95373E-01 2.43197E-01-4.43485E-04 1.72135E-01 1.61617E-01 4.73802E+00-2.65042E+01-4.51918E+01



 n o d a l   p r i n t   o u t   f o r   t i m e  s t e p   14802                              ( at time 7.3997594E+00 )

 nodal point  x-rot      y-rot       z-rot       x-rot vel   y-rot vel   z-rot vel   x-rot acc   y-rot acc   z-rot acc
    22626 -1.30785E-02 7.49481E-04 1.30055E-03-6.60484E-03 2.81277E-04 1.41562E-04-1.07496E-03 3.17654E-04 5.83072E-04



 n o d a l   p r i n t   o u t   f o r   t i m e  s t e p   15002                              ( at time 7.4997494E+00 )

 nodal point  x-disp     y-disp      z-disp      x-vel       y-vel       z-vel      x-accl      y-accl      z-accl      x-coor      y-coor      z-coor
    22626  8.11858E-02 1.75674E+00-1.84805E-01 2.26138E-02 7.09617E-01 2.62018E-01-1.22733E-02 1.42453E-01 1.88232E-01 4.74056E+00-2.64341E+01-4.51665E+01



 n o d a l   p r i n t   o u t   f o r   t i m e  s t e p   15002                              ( at time 7.4997494E+00 )

 nodal point  x-rot      y-rot       z-rot       x-rot vel   y-rot vel   z-rot vel   x-rot acc   y-rot acc   z-rot acc
    22626 -1.37438E-02 7.77795E-04 1.31266E-03-6.72257E-03 2.91834E-04 1.53181E-04-1.17742E-03 1.05574E-04 1.16203E-04



 n o d a l   p r i n t   o u t   f o r   t i m e  s t e p   15202                              ( at time 7.5997394E+00 )

 nodal point  x-disp     y-disp      z-disp      x-vel       y-vel       z-vel      x-accl      y-accl      z-accl      x-coor      y-coor      z-coor
    22626  8.36959E-02 1.82850E+00-1.57962E-01 2.34456E-02 7.25034E-01 2.75238E-01 8.31833E-03 1.54192E-01 1.32206E-01 4.74307E+00-2.63623E+01-4.51397E+01



 n o d a l   p r i n t   o u t   f o r   t i m e  s t e p   15202                              ( at time 7.5997394E+00 )

 nodal point  x-rot      y-rot       z-rot       x-rot vel   y-rot vel   z-rot vel   x-rot acc   y-rot acc   z-rot acc
    22626 -1.44222E-02 8.07324E-04 1.32941E-03-6.84565E-03 2.59300E-04 1.45886E-04-1.23096E-03-3.25367E-04-7.29564E-05



 n o d a l   p r i n t   o u t   f o r   t i m e  s t e p   15402                              ( at time 7.6997294E+00 )

 nodal point  x-disp     y-disp      z-disp      x-vel       y-vel       z-vel      x-accl      y-accl      z-accl      x-coor      y-coor      z-coor
    22626  8.59777E-02 1.90187E+00-1.29575E-01 2.23963E-02 7.44726E-01 2.93077E-01-1.04940E-02 1.96941E-01 1.78410E-01 4.74535E+00-2.62890E+01-4.51113E+01



 n o d a l   p r i n t   o u t   f o r   t i m e  s t e p   15402                              ( at time 7.6997294E+00 )

 nodal point  x-rot      y-rot       z-rot       x-rot vel   y-rot vel   z-rot vel   x-rot acc   y-rot acc   z-rot acc
    22626 -1.51171E-02 8.31450E-04 1.34913E-03-7.06491E-03 2.77523E-04 2.11651E-04-2.19274E-03 1.82249E-04 6.57718E-04



 n o d a l   p r i n t   o u t   f o r   t i m e  s t e p   15602                              ( at time 7.7997194E+00 )

 nodal point  x-disp     y-disp      z-disp      x-vel       y-vel       z-vel      x-accl      y-accl      z-accl      x-coor      y-coor      z-coor
    22626  8.85850E-02 1.97706E+00-9.93429E-02 2.67211E-02 7.59779E-01 3.09882E-01 4.32525E-02 1.50538E-01 1.68074E-01 4.74796E+00-2.62138E+01-4.50811E+01



 n o d a l   p r i n t   o u t   f o r   t i m e  s t e p   15602                              ( at time 7.7997194E+00 )

 nodal point  x-rot      y-rot       z-rot       x-rot vel   y-rot vel   z-rot vel   x-rot acc   y-rot acc   z-rot acc
    22626 -1.58245E-02 8.61793E-04 1.37083E-03-7.11587E-03 3.00596E-04 2.45969E-04-5.09727E-04 2.30745E-04 3.43206E-04



 n o d a l   p r i n t   o u t   f o r   t i m e  s t e p   15802                              ( at time 7.8997094E+00 )

 nodal point  x-disp     y-disp      z-disp      x-vel       y-vel       z-vel      x-accl      y-accl      z-accl      x-coor      y-coor      z-coor
    22626  9.11936E-02 2.05386E+00-6.76818E-02 2.52894E-02 7.76920E-01 3.23533E-01-1.43183E-02 1.71427E-01 1.36524E-01 4.75057E+00-2.61370E+01-4.50494E+01



 n o d a l   p r i n t   o u t   f o r   t i m e  s t e p   15802                              ( at time 7.8997094E+00 )

 nodal point  x-rot      y-rot       z-rot       x-rot vel   y-rot vel   z-rot vel   x-rot acc   y-rot acc   z-rot acc
    22626 -1.65418E-02 8.90246E-04 1.39693E-03-7.27882E-03 2.72661E-04 2.51957E-04-1.62968E-03-2.79372E-04 5.98898E-05



 n o d a l   p r i n t   o u t   f o r   t i m e  s t e p   16002                              ( at time 7.9996994E+00 )

 nodal point  x-disp     y-disp      z-disp      x-vel       y-vel       z-vel      x-accl      y-accl      z-accl      x-coor      y-coor      z-coor
    22626  9.37261E-02 2.13238E+00-3.43304E-02 2.59950E-02 7.94020E-01 3.40653E-01 7.05642E-03 1.71023E-01 1.71216E-01 4.75310E+00-2.60585E+01-4.50161E+01



 n o d a l   p r i n t   o u t   f o r   t i m e  s t e p   16002                              ( at time 7.9996994E+00 )

 nodal point  x-rot      y-rot       z-rot       x-rot vel   y-rot vel   z-rot vel   x-rot acc   y-rot acc   z-rot acc
    22626 -1.72741E-02 9.18541E-04 1.42317E-03-7.41417E-03 2.69962E-04 3.29101E-04-1.35354E-03-2.69961E-05 7.71517E-04



 n o d a l   p r i n t   o u t   f o r   t i m e  s t e p   16202                              ( at time 8.0996894E+00 )

 nodal point  x-disp     y-disp      z-disp      x-vel       y-vel       z-vel      x-accl      y-accl      z-accl      x-coor      y-coor      z-coor
    22626  9.63187E-02 2.21269E+00 5.25150E-04 2.87628E-02 8.10697E-01 3.55643E-01 2.76808E-02 1.66784E-01 1.49910E-01 4.75569E+00-2.59781E+01-4.49812E+01



 n o d a l   p r i n t   o u t   f o r   t i m e  s t e p   16202                              ( at time 8.0996894E+00 )

 nodal point  x-rot      y-rot       z-rot       x-rot vel   y-rot vel   z-rot vel   x-rot acc   y-rot acc   z-rot acc
    22626 -1.80151E-02 9.46110E-04 1.45598E-03-7.46500E-03 2.97640E-04 3.21402E-04-5.08400E-04 2.76806E-04-7.69982E-05



 n o d a l   p r i n t   o u t   f o r   t i m e  s t e p   16402                              ( at time 8.1996794E+00 )

 nodal point  x-disp     y-disp      z-disp      x-vel       y-vel       z-vel      x-accl      y-accl      z-accl      x-coor      y-coor      z-coor
    22626  9.89680E-02 2.29462E+00 3.70089E-02 2.90429E-02 8.25898E-01 3.73467E-01 2.80155E-03 1.52028E-01 1.78256E-01 4.75834E+00-2.58962E+01-4.49447E+01



 n o d a l   p r i n t   o u t   f o r   t i m e  s t e p   16402                              ( at time 8.1996794E+00 )

 nodal point  x-rot      y-rot       z-rot       x-rot vel   y-rot vel   z-rot vel   x-rot acc   y-rot acc   z-rot acc
    22626 -1.87658E-02 9.75643E-04 1.49009E-03-7.59492E-03 2.91718E-04 3.08189E-04-1.29936E-03-5.92169E-05-1.32145E-04



 n o d a l   p r i n t   o u t   f o r   t i m e  s t e p   16602                              ( at time 8.2996694E+00 )

 nodal point  x-disp     y-disp      z-disp      x-vel       y-vel       z-vel      x-accl      y-accl      z-accl      x-coor      y-coor      z-coor
    22626  1.01667E-01 2.37817E+00 7.51636E-02 2.45278E-02 8.45288E-01 3.88894E-01-4.51553E-02 1.93914E-01 1.54289E-01 4.76104E+00-2.58127E+01-4.49066E+01



 n o d a l   p r i n t   o u t   f o r   t i m e  s t e p   16602                              ( at time 8.2996694E+00 )

 nodal point  x-rot      y-rot       z-rot       x-rot vel   y-rot vel   z-rot vel   x-rot acc   y-rot acc   z-rot acc
    22626 -1.95269E-02 1.00380E-03 1.52304E-03-7.68535E-03 2.75281E-04 4.49247E-04-9.04392E-04-1.64391E-04 1.41072E-03



 n o d a l   p r i n t   o u t   f o r   t i m e  s t e p   16802                              ( at time 8.3996594E+00 )

 nodal point  x-disp     y-disp      z-disp      x-vel       y-vel       z-vel      x-accl      y-accl      z-accl      x-coor      y-coor      z-coor
    22626  1.04380E-01 2.46346E+00 1.14885E-01 3.17914E-02 8.60589E-01 4.05834E-01 7.26428E-02 1.53032E-01 1.69419E-01 4.76376E+00-2.57274E+01-4.48668E+01



 n o d a l   p r i n t   o u t   f o r   t i m e  s t e p   16802                              ( at time 8.3996594E+00 )

 nodal point  x-rot      y-rot       z-rot       x-rot vel   y-rot vel   z-rot vel   x-rot acc   y-rot acc   z-rot acc
    22626 -2.02978E-02 1.03061E-03 1.55971E-03-7.77007E-03 2.63141E-04 3.04404E-04-8.47217E-04-1.21416E-04-1.44858E-03



 n o d a l   p r i n t   o u t   f o r   t i m e  s t e p   17002                              ( at time 8.4996494E+00 )

 nodal point  x-disp     y-disp      z-disp      x-vel       y-vel       z-vel      x-accl      y-accl      z-accl      x-coor      y-coor      z-coor
    22626  1.07152E-01 2.55021E+00 1.56173E-01 2.58813E-02 8.77480E-01 4.16557E-01-5.91066E-02 1.68926E-01 1.07243E-01 4.76653E+00-2.56406E+01-4.48255E+01



 n o d a l   p r i n t   o u t   f o r   t i m e  s t e p   17002                              ( at time 8.4996494E+00 )

 nodal point  x-rot      y-rot       z-rot       x-rot vel   y-rot vel   z-rot vel   x-rot acc   y-rot acc   z-rot acc
    22626 -2.10744E-02 1.05846E-03 1.59623E-03-7.85477E-03 2.82731E-04 3.51924E-04-8.47147E-04 1.95922E-04 4.75244E-04



 n o d a l   p r i n t   o u t   f o r   t i m e  s t e p   17202                              ( at time 8.5996394E+00 )

 nodal point  x-disp     y-disp      z-disp      x-vel       y-vel       z-vel      x-accl      y-accl      z-accl      x-coor      y-coor      z-coor
    22626  1.09981E-01 2.63869E+00 1.98786E-01 2.74237E-02 8.90678E-01 4.34840E-01 1.54253E-02 1.31989E-01 1.82846E-01 4.76936E+00-2.55521E+01-4.47829E+01



 n o d a l   p r i n t   o u t   f o r   t i m e  s t e p   17202                              ( at time 8.5996394E+00 )

 nodal point  x-rot      y-rot       z-rot       x-rot vel   y-rot vel   z-rot vel   x-rot acc   y-rot acc   z-rot acc
    22626 -2.18613E-02 1.08763E-03 1.63157E-03-7.93452E-03 2.47800E-04 3.93138E-04-7.97600E-04-3.49345E-04 4.12182E-04



 n o d a l   p r i n t   o u t   f o r   t i m e  s t e p   17402                              ( at time 8.6996293E+00 )

 nodal point  x-disp     y-disp      z-disp      x-vel       y-vel       z-vel      x-accl      y-accl      z-accl      x-coor      y-coor      z-coor
    22626  1.12825E-01 2.72873E+00 2.43216E-01 3.08541E-02 9.10990E-01 4.50994E-01 3.43075E-02 2.03145E-01 1.61554E-01 4.77220E+00-2.54621E+01-4.47385E+01



 n o d a l   p r i n t   o u t   f o r   t i m e  s t e p   17402                              ( at time 8.6996293E+00 )

 nodal point  x-rot      y-rot       z-rot       x-rot vel   y-rot vel   z-rot vel   x-rot acc   y-rot acc   z-rot acc
    22626 -2.26555E-02 1.11088E-03 1.66875E-03-7.99491E-03 2.83432E-04 2.77251E-04-6.03878E-04 3.56355E-04-1.15898E-03



 n o d a l   p r i n t   o u t   f o r   t i m e  s t e p   17602                              ( at time 8.7996193E+00 )

 nodal point  x-disp     y-disp      z-disp      x-vel       y-vel       z-vel      x-accl      y-accl      z-accl      x-coor      y-coor      z-coor
    22626  1.15584E-01 2.81989E+00 2.89438E-01 2.42373E-02 9.12551E-01 4.73021E-01-6.61750E-02 1.56043E-02 2.20291E-01 4.77496E+00-2.53709E+01-4.46923E+01



 n o d a l   p r i n t   o u t   f o r   t i m e  s t e p   17602                              ( at time 8.7996193E+00 )

 nodal point  x-rot      y-rot       z-rot       x-rot vel   y-rot vel   z-rot vel   x-rot acc   y-rot acc   z-rot acc
    22626 -2.34526E-02 1.13855E-03 1.70879E-03-7.99355E-03 2.64522E-04 4.47770E-04 1.35335E-05-1.89117E-04 1.70537E-03



 n o d a l   p r i n t   o u t   f o r   t i m e  s t e p   17802                              ( at time 8.8996093E+00 )

 nodal point  x-disp     y-disp      z-disp      x-vel       y-vel       z-vel      x-accl      y-accl      z-accl      x-coor      y-coor      z-coor
    22626  1.18933E-01 2.91243E+00 3.37224E-01 2.97101E-02 9.34662E-01 4.84158E-01 5.47339E-02 2.21132E-01 1.11382E-01 4.77831E+00-2.52784E+01-4.46445E+01



 n o d a l   p r i n t   o u t   f o r   t i m e  s t e p   17802                              ( at time 8.8996093E+00 )

 nodal point  x-rot      y-rot       z-rot       x-rot vel   y-rot vel   z-rot vel   x-rot acc   y-rot acc   z-rot acc
    22626 -2.42586E-02 1.16883E-03 1.74582E-03-8.16601E-03 2.86395E-04 4.12409E-04-1.72471E-03 2.18751E-04-3.53644E-04



 n o d a l   p r i n t   o u t   f o r   t i m e  s t e p   18002                              ( at time 8.9995993E+00 )

 nodal point  x-disp     y-disp      z-disp      x-vel       y-vel       z-vel      x-accl      y-accl      z-accl      x-coor      y-coor      z-coor
    22626  1.21552E-01 3.00608E+00 3.87219E-01 3.23460E-02 9.40487E-01 5.10268E-01 2.63616E-02 5.82623E-02 2.61123E-01 4.78093E+00-2.51847E+01-4.45945E+01



 n o d a l   p r i n t   o u t   f o r   t i m e  s t e p   18002                              ( at time 8.9995993E+00 )

 nodal point  x-rot      y-rot       z-rot       x-rot vel   y-rot vel   z-rot vel   x-rot acc   y-rot acc   z-rot acc
    22626 -2.50746E-02 1.19599E-03 1.79185E-03-8.24628E-03 2.87314E-04 3.55410E-04-8.02769E-04 9.18639E-06-5.70055E-04



 n o d a l   p r i n t   o u t   f o r   t i m e  s t e p   18202                              ( at time 9.0995893E+00 )

 nodal point  x-disp     y-disp      z-disp      x-vel       y-vel       z-vel      x-accl      y-accl      z-accl      x-coor      y-coor      z-coor
    22626  1.24721E-01 3.10067E+00 4.38962E-01 3.32731E-02 9.54317E-01 5.20876E-01 9.27143E-03 1.38309E-01 1.06091E-01 4.78410E+00-2.50902E+01-4.45428E+01



 n o d a l   p r i n t   o u t   f o r   t i m e  s t e p   18202                              ( at time 9.0995893E+00 )

 nodal point  x-rot      y-rot       z-rot       x-rot vel   y-rot vel   z-rot vel   x-rot acc   y-rot acc   z-rot acc
    22626 -2.58926E-02 1.22236E-03 1.82858E-03-8.25934E-03 2.96463E-04 3.86826E-04-1.30696E-04 9.14954E-05 3.14196E-04



 n o d a l   p r i n t   o u t   f o r   t i m e  s t e p   18402                              ( at time 9.1995793E+00 )

 nodal point  x-disp     y-disp      z-disp      x-vel       y-vel       z-vel      x-accl      y-accl      z-accl      x-coor      y-coor      z-coor
    22626  1.28105E-01 3.19683E+00 4.92466E-01 3.14930E-02 9.68160E-01 5.50041E-01-1.78024E-02 1.38442E-01 2.91683E-01 4.78748E+00-2.49940E+01-4.44893E+01



 n o d a l   p r i n t   o u t   f o r   t i m e  s t e p   18402                              ( at time 9.1995793E+00 )

 nodal point  x-rot      y-rot       z-rot       x-rot vel   y-rot vel   z-rot vel   x-rot acc   y-rot acc   z-rot acc
    22626 -2.67200E-02 1.25166E-03 1.86529E-03-8.33076E-03 2.92944E-04 4.92897E-04-7.14238E-04-3.51936E-05 1.06082E-03



 n o d a l   p r i n t   o u t   f o r   t i m e  s t e p   18602                              ( at time 9.2995693E+00 )

 nodal point  x-disp     y-disp      z-disp      x-vel       y-vel       z-vel      x-accl      y-accl      z-accl      x-coor      y-coor      z-coor
    22626  1.31211E-01 3.29404E+00 5.48206E-01 3.51347E-02 9.76644E-01 5.63895E-01 3.64206E-02 8.48516E-02 1.38557E-01 4.79059E+00-2.48968E+01-4.44335E+01



 n o d a l   p r i n t   o u t   f o r   t i m e  s t e p   18602                              ( at time 9.2995693E+00 )

 nodal point  x-rot      y-rot       z-rot       x-rot vel   y-rot vel   z-rot vel   x-rot acc   y-rot acc   z-rot acc
    22626 -2.75527E-02 1.27837E-03 1.90683E-03-8.33184E-03 2.74919E-04 2.81942E-04-1.08044E-05-1.80262E-04-2.10977E-03



 n o d a l   p r i n t   o u t   f o r   t i m e  s t e p   18802                              ( at time 9.3995593E+00 )

 nodal point  x-disp     y-disp      z-disp      x-vel       y-vel       z-vel      x-accl      y-accl      z-accl      x-coor      y-coor      z-coor
    22626  1.34645E-01 3.39252E+00 6.05420E-01 3.17535E-02 9.96352E-01 5.84276E-01-3.38153E-02 1.97099E-01 2.03830E-01 4.79402E+00-2.47983E+01-4.43763E+01



 n o d a l   p r i n t   o u t   f o r   t i m e  s t e p   18802                              ( at time 9.3995593E+00 )

 nodal point  x-rot      y-rot       z-rot       x-rot vel   y-rot vel   z-rot vel   x-rot acc   y-rot acc   z-rot acc
    22626 -2.83953E-02 1.30544E-03 1.93883E-03-8.46683E-03 2.25293E-04 4.09490E-04-1.35002E-03-4.96310E-04 1.27562E-03



 n o d a l   p r i n t   o u t   f o r   t i m e  s t e p   19002                              ( at time 9.4995493E+00 )

 nodal point  x-disp     y-disp      z-disp      x-vel       y-vel       z-vel      x-accl      y-accl      z-accl      x-coor      y-coor      z-coor
    22626  1.38095E-01 3.49219E+00 6.64590E-01 3.79402E-02 9.99419E-01 5.98891E-01 6.18727E-02 3.06751E-02 1.46159E-01 4.79747E+00-2.46986E+01-4.43171E+01



 n o d a l   p r i n t   o u t   f o r   t i m e  s t e p   19002                              ( at time 9.4995493E+00 )

 nodal point  x-rot      y-rot       z-rot       x-rot vel   y-rot vel   z-rot vel   x-rot acc   y-rot acc   z-rot acc
    22626 -2.92413E-02 1.33055E-03 1.97259E-03-8.42732E-03 2.91094E-04 2.60490E-04 3.95107E-04 6.58079E-04-1.49015E-03



 n o d a l   p r i n t   o u t   f o r   t i m e  s t e p   19202                              ( at time 9.5995393E+00 )

 nodal point  x-disp     y-disp      z-disp      x-vel       y-vel       z-vel      x-accl      y-accl      z-accl      x-coor      y-coor      z-coor
    22626  1.41671E-01 3.59330E+00 7.25709E-01 3.40319E-02 1.01854E+00 6.25149E-01-3.90864E-02 1.91192E-01 2.62608E-01 4.80105E+00-2.45975E+01-4.42560E+01



 n o d a l   p r i n t   o u t   f o r   t i m e  s t e p   19202                              ( at time 9.5995393E+00 )

 nodal point  x-rot      y-rot       z-rot       x-rot vel   y-rot vel   z-rot vel   x-rot acc   y-rot acc   z-rot acc
    22626 -3.00941E-02 1.35751E-03 2.00155E-03-8.62253E-03 2.50224E-04 2.60555E-04-1.95225E-03-4.08738E-04 6.47620E-07



 n o d a l   p r i n t   o u t   f o r   t i m e  s t e p   19402                              ( at time 9.6995293E+00 )

 nodal point  x-disp     y-disp      z-disp      x-vel       y-vel       z-vel      x-accl      y-accl      z-accl      x-coor      y-coor      z-coor
    22626  1.45264E-01 3.69569E+00 7.89196E-01 3.39786E-02 1.02988E+00 6.38518E-01-5.33217E-04 1.13488E-01 1.33699E-01 4.80464E+00-2.44951E+01-4.41925E+01



 n o d a l   p r i n t   o u t   f o r   t i m e  s t e p   19402                              ( at time 9.6995293E+00 )

 nodal point  x-rot      y-rot       z-rot       x-rot vel   y-rot vel   z-rot vel   x-rot acc   y-rot acc   z-rot acc
    22626 -3.09572E-02 1.38232E-03 2.03011E-03-8.59400E-03 2.04774E-04 3.10249E-04 2.85340E-04-4.54547E-04 4.96991E-04



 n o d a l   p r i n t   o u t   f o r   t i m e  s t e p   19602                              ( at time 9.7995193E+00 )

 nodal point  x-disp     y-disp      z-disp      x-vel       y-vel       z-vel      x-accl      y-accl      z-accl      x-coor      y-coor      z-coor
    22626  1.48895E-01 3.79953E+00 8.53918E-01 4.41215E-02 1.04611E+00 6.58634E-01 1.01440E-01 1.62294E-01 2.01188E-01 4.80827E+00-2.43913E+01-4.41278E+01



 n o d a l   p r i n t   o u t   f o r   t i m e  s t e p   19602                              ( at time 9.7995193E+00 )

 nodal point  x-rot      y-rot       z-rot       x-rot vel   y-rot vel   z-rot vel   x-rot acc   y-rot acc   z-rot acc
    22626 -3.18249E-02 1.40438E-03 2.05115E-03-8.77482E-03 2.66683E-04 1.54169E-04-1.80835E-03 6.19147E-04-1.56096E-03



 n o d a l   p r i n t   o u t   f o r   t i m e  s t e p   19802                              ( at time 9.8995093E+00 )

 nodal point  x-disp     y-disp      z-disp      x-vel       y-vel       z-vel      x-accl      y-accl      z-accl      x-coor      y-coor      z-coor
    22626  1.52526E-01 3.90490E+00 9.21065E-01 3.34710E-02 1.05701E+00 6.80930E-01-1.06516E-01 1.09042E-01 2.22983E-01 4.81190E+00-2.42859E+01-4.40607E+01



 n o d a l   p r i n t   o u t   f o r   t i m e  s t e p   19802                              ( at time 9.8995093E+00 )

 nodal point  x-rot      y-rot       z-rot       x-rot vel   y-rot vel   z-rot vel   x-rot acc   y-rot acc   z-rot acc
    22626 -3.27034E-02 1.42978E-03 2.07561E-03-8.73858E-03 2.40748E-04 2.77797E-04 3.62442E-04-2.59369E-04 1.23641E-03



 n o d a l   p r i n t   o u t   f o r   t i m e  s t e p   20003                              ( at time 9.9999992E+00 )

 nodal point  x-disp     y-disp      z-disp      x-vel       y-vel       z-vel      x-accl      y-accl      z-accl      x-coor      y-coor      z-coor
[...]
    22626 -2.29029E-01 5.24166E-03 3.13778E-03-1.86591E-02 5.98022E-04 2.30502E-04-1.94515E-04-1.41213E-05 4.48127E-05



 n o d a l   p r i n t   o u t   f o r   t i m e  s t e p   45205                              ( at time 2.2599738E+01 )

 nodal point  x-disp     y-disp      z-disp      x-vel       y-vel       z-vel      x-accl      y-accl      z-accl      x-coor      y-coor      z-coor
    22626  8.53477E-01 2.38790E+01 1.98727E+01 5.60343E-02 1.92593E+00 1.16369E+00-2.47639E-03 4.32328E-02-9.79585E-02 5.51285E+00-4.31179E+00-2.51091E+01



 n o d a l   p r i n t   o u t   f o r   t i m e  s t e p   45205                              ( at time 2.2599738E+01 )

 nodal point  x-rot      y-rot       z-rot       x-rot vel   y-rot vel   z-rot vel   x-rot acc   y-rot acc   z-rot acc
    22626 -2.30893E-01 5.30209E-03 3.16078E-03-1.86290E-02 6.00809E-04 2.55763E-04 3.00957E-04 2.78811E-05 2.52638E-04



 n o d a l   p r i n t   o u t   f o r   t i m e  s t e p   45405                              ( at time 2.2699728E+01 )

 nodal point  x-disp     y-disp      z-disp      x-vel       y-vel       z-vel      x-accl      y-accl      z-accl      x-coor      y-coor      z-coor
    22626  8.59093E-01 2.40717E+01 1.99884E+01 5.53341E-02 1.92842E+00 1.15206E+00-7.00257E-03 2.49187E-02-1.16347E-01 5.51847E+00-4.11909E+00-2.49933E+01



 n o d a l   p r i n t   o u t   f o r   t i m e  s t e p   45405                              ( at time 2.2699728E+01 )

 nodal point  x-rot      y-rot       z-rot       x-rot vel   y-rot vel   z-rot vel   x-rot acc   y-rot acc   z-rot acc
    22626 -2.32756E-01 5.36114E-03 3.18357E-03-1.86254E-02 5.74634E-04 2.25062E-04 3.61021E-05-2.61780E-04-3.07051E-04



 n o d a l   p r i n t   o u t   f o r   t i m e  s t e p   45605                              ( at time 2.2799718E+01 )

 nodal point  x-disp     y-disp      z-disp      x-vel       y-vel       z-vel      x-accl      y-accl      z-accl      x-coor      y-coor      z-coor
    22626  8.64551E-01 2.42648E+01 2.01029E+01 5.55644E-02 1.93384E+00 1.13988E+00 2.30352E-03 5.42190E-02-1.21799E-01 5.52393E+00-3.92603E+00-2.48788E+01



 n o d a l   p r i n t   o u t   f o r   t i m e  s t e p   45605                              ( at time 2.2799718E+01 )

 nodal point  x-rot      y-rot       z-rot       x-rot vel   y-rot vel   z-rot vel   x-rot acc   y-rot acc   z-rot acc
    22626 -2.34620E-01 5.41821E-03 3.20591E-03-1.86543E-02 5.73911E-04 2.14409E-04-2.88923E-04-7.23587E-06-1.06536E-04



 n o d a l   p r i n t   o u t   f o r   t i m e  s t e p   45805                              ( at time 2.2899708E+01 )

 nodal point  x-disp     y-disp      z-disp      x-vel       y-vel       z-vel      x-accl      y-accl      z-accl      x-coor      y-coor      z-coor
    22626  8.70157E-01 2.44583E+01 2.02164E+01 5.58829E-02 1.93667E+00 1.12990E+00 3.18473E-03 2.82331E-02-9.97546E-02 5.52953E+00-3.73248E+00-2.47653E+01



 n o d a l   p r i n t   o u t   f o r   t i m e  s t e p   45805                              ( at time 2.2899708E+01 )

 nodal point  x-rot      y-rot       z-rot       x-rot vel   y-rot vel   z-rot vel   x-rot acc   y-rot acc   z-rot acc
    22626 -2.36483E-01 5.47527E-03 3.22764E-03-1.86084E-02 5.74693E-04 2.24030E-04 4.58485E-04 7.82048E-06 9.62163E-05



 n o d a l   p r i n t   o u t   f o r   t i m e  s t e p   46005                              ( at time 2.2999698E+01 )

 nodal point  x-disp     y-disp      z-disp      x-vel       y-vel       z-vel      x-accl      y-accl      z-accl      x-coor      y-coor      z-coor
    22626  8.75693E-01 2.46522E+01 2.03289E+01 5.56745E-02 1.94048E+00 1.11945E+00-2.08378E-03 3.81171E-02-1.04533E-01 5.53507E+00-3.53863E+00-2.46529E+01



 n o d a l   p r i n t   o u t   f o r   t i m e  s t e p   46005                              ( at time 2.2999698E+01 )

 nodal point  x-rot      y-rot       z-rot       x-rot vel   y-rot vel   z-rot vel   x-rot acc   y-rot acc   z-rot acc
    22626 -2.38344E-01 5.53182E-03 3.24869E-03-1.86263E-02 5.51595E-04 1.96081E-04-1.78178E-04-2.30997E-04-2.79513E-04



 n o d a l   p r i n t   o u t   f o r   t i m e  s t e p   46205                              ( at time 2.3099688E+01 )

 nodal point  x-disp     y-disp      z-disp      x-vel       y-vel       z-vel      x-accl      y-accl      z-accl      x-coor      y-coor      z-coor
    22626  8.81123E-01 2.48465E+01 2.04403E+01 5.36252E-02 1.94458E+00 1.10995E+00-2.04949E-02 4.09684E-02-9.50668E-02 5.54050E+00-3.34438E+00-2.45414E+01



 n o d a l   p r i n t   o u t   f o r   t i m e  s t e p   46205                              ( at time 2.3099688E+01 )

 nodal point  x-rot      y-rot       z-rot       x-rot vel   y-rot vel   z-rot vel   x-rot acc   y-rot acc   z-rot acc
    22626 -2.40208E-01 5.58465E-03 3.26928E-03-1.86495E-02 5.18227E-04 1.99193E-04-2.32521E-04-3.33715E-04 3.11240E-05



 n o d a l   p r i n t   o u t   f o r   t i m e  s t e p   46405                              ( at time 2.3199678E+01 )

 nodal point  x-disp     y-disp      z-disp      x-vel       y-vel       z-vel      x-accl      y-accl      z-accl      x-coor      y-coor      z-coor
    22626  8.86555E-01 2.50410E+01 2.05508E+01 5.47031E-02 1.94792E+00 1.10064E+00 1.07798E-02 3.34198E-02-9.30275E-02 5.54593E+00-3.14978E+00-2.44309E+01



 n o d a l   p r i n t   o u t   f o r   t i m e  s t e p   46405                              ( at time 2.3199678E+01 )

 nodal point  x-rot      y-rot       z-rot       x-rot vel   y-rot vel   z-rot vel   x-rot acc   y-rot acc   z-rot acc
    22626 -2.42071E-01 5.63856E-03 3.28772E-03-1.86197E-02 5.55780E-04 1.88286E-04 2.97585E-04 3.75563E-04-1.09081E-04



 n o d a l   p r i n t   o u t   f o r   t i m e  s t e p   46605                              ( at time 2.3299668E+01 )

 nodal point  x-disp     y-disp      z-disp      x-vel       y-vel       z-vel      x-accl      y-accl      z-accl      x-coor      y-coor      z-coor
    22626  8.92082E-01 2.52360E+01 2.06604E+01 5.41799E-02 1.95173E+00 1.09082E+00-5.23234E-03 3.80963E-02-9.82071E-02 5.55146E+00-2.95485E+00-2.43213E+01



 n o d a l   p r i n t   o u t   f o r   t i m e  s t e p   46605                              ( at time 2.3299668E+01 )

 nodal point  x-rot      y-rot       z-rot       x-rot vel   y-rot vel   z-rot vel   x-rot acc   y-rot acc   z-rot acc
    22626 -2.43933E-01 5.69375E-03 3.30567E-03-1.86382E-02 5.27980E-04 1.78575E-04-1.84460E-04-2.78031E-04-9.71192E-05



 n o d a l   p r i n t   o u t   f o r   t i m e  s t e p   46805                              ( at time 2.3399658E+01 )

 nodal point  x-disp     y-disp      z-disp      x-vel       y-vel       z-vel      x-accl      y-accl      z-accl      x-coor      y-coor      z-coor
    22626  8.97400E-01 2.54312E+01 2.07691E+01 5.26167E-02 1.95393E+00 1.08346E+00-1.56340E-02 2.19949E-02-7.36411E-02 5.55678E+00-2.75964E+00-2.42126E+01



 n o d a l   p r i n t   o u t   f o r   t i m e  s t e p   46805                              ( at time 2.3399658E+01 )

 nodal point  x-rot      y-rot       z-rot       x-rot vel   y-rot vel   z-rot vel   x-rot acc   y-rot acc   z-rot acc
    22626 -2.45797E-01 5.74424E-03 3.32376E-03-1.86461E-02 4.91066E-04 1.60830E-04-7.91138E-05-3.69179E-04-1.77471E-04



 n o d a l   p r i n t   o u t   f o r   t i m e  s t e p   47005                              ( at time 2.3499648E+01 )

 nodal point  x-disp     y-disp      z-disp      x-vel       y-vel       z-vel      x-accl      y-accl      z-accl      x-coor      y-coor      z-coor
    22626  9.02715E-01 2.56266E+01 2.08769E+01 5.34016E-02 1.95592E+00 1.07462E+00 7.85002E-03 1.99122E-02-8.84375E-02 5.56209E+00-2.56423E+00-2.41048E+01



 n o d a l   p r i n t   o u t   f o r   t i m e  s t e p   47005                              ( at time 2.3499648E+01 )

 nodal point  x-rot      y-rot       z-rot       x-rot vel   y-rot vel   z-rot vel   x-rot acc   y-rot acc   z-rot acc
    22626 -2.47661E-01 5.79568E-03 3.33816E-03-1.86280E-02 5.28496E-04 1.45689E-04 1.81401E-04 3.74340E-04-1.51415E-04



 n o d a l   p r i n t   o u t   f o r   t i m e  s t e p   47205                              ( at time 2.3599638E+01 )

 nodal point  x-disp     y-disp      z-disp      x-vel       y-vel       z-vel      x-accl      y-accl      z-accl      x-coor      y-coor      z-coor
    22626  9.08024E-01 2.58223E+01 2.09839E+01 5.40327E-02 1.95875E+00 1.06619E+00 6.31197E-03 2.82843E-02-8.43058E-02 5.56740E+00-2.36851E+00-2.39978E+01



 n o d a l   p r i n t   o u t   f o r   t i m e  s t e p   47205                              ( at time 2.3599638E+01 )

 nodal point  x-rot      y-rot       z-rot       x-rot vel   y-rot vel   z-rot vel   x-rot acc   y-rot acc   z-rot acc
    22626 -2.49525E-01 5.84762E-03 3.35306E-03-1.86540E-02 5.07517E-04 1.37316E-04-2.60576E-04-2.09813E-04-8.37385E-05



 n o d a l   p r i n t   o u t   f o r   t i m e  s t e p   47405                              ( at time 2.3699628E+01 )

 nodal point  x-disp     y-disp      z-disp      x-vel       y-vel       z-vel      x-accl      y-accl      z-accl      x-coor      y-coor      z-coor
    22626  9.13275E-01 2.60183E+01 2.10902E+01 5.10078E-02 1.96022E+00 1.05864E+00-3.02525E-02 1.47571E-02-7.55296E-02 5.57265E+00-2.17256E+00-2.38916E+01



 n o d a l   p r i n t   o u t   f o r   t i m e  s t e p   47405                              ( at time 2.3699628E+01 )

 nodal point  x-rot      y-rot       z-rot       x-rot vel   y-rot vel   z-rot vel   x-rot acc   y-rot acc   z-rot acc
    22626 -2.51391E-01 5.89808E-03 3.36688E-03-1.86528E-02 5.05774E-04 1.34081E-04 1.19593E-05-1.74383E-05-3.23552E-05



 n o d a l   p r i n t   o u t   f o r   t i m e  s t e p   47605                              ( at time 2.3799618E+01 )

 nodal point  x-disp     y-disp      z-disp      x-vel       y-vel       z-vel      x-accl      y-accl      z-accl      x-coor      y-coor      z-coor
    22626  9.18469E-01 2.62143E+01 2.11958E+01 5.19174E-02 1.96050E+00 1.05375E+00 9.09772E-03 2.84226E-03-4.88526E-02 5.57784E+00-1.97655E+00-2.37859E+01



 n o d a l   p r i n t   o u t   f o r   t i m e  s t e p   47605                              ( at time 2.3799618E+01 )

 nodal point  x-rot      y-rot       z-rot       x-rot vel   y-rot vel   z-rot vel   x-rot acc   y-rot acc   z-rot acc
    22626 -2.53255E-01 5.94936E-03 3.37923E-03-1.86508E-02 5.29566E-04 1.40758E-04 2.02678E-05 2.37947E-04 6.67708E-05



 n o d a l   p r i n t   o u t   f o r   t i m e  s t e p   47805                              ( at time 2.3899608E+01 )

 nodal point  x-disp     y-disp      z-disp      x-vel       y-vel       z-vel      x-accl      y-accl      z-accl      x-coor      y-coor      z-coor
    22626  9.23705E-01 2.64105E+01 2.13007E+01 5.33616E-02 1.96304E+00 1.04539E+00 1.44429E-02 2.53915E-02-8.35841E-02 5.58308E+00-1.78031E+00-2.36810E+01



 n o d a l   p r i n t   o u t   f o r   t i m e  s t e p   47805                              ( at time 2.3899608E+01 )

 nodal point  x-rot      y-rot       z-rot       x-rot vel   y-rot vel   z-rot vel   x-rot acc   y-rot acc   z-rot acc
    22626 -2.55121E-01 6.00258E-03 3.39323E-03-1.86661E-02 5.49845E-04 1.22373E-04-1.53403E-04 2.02807E-04-1.83860E-04



 n o d a l   p r i n t   o u t   f o r   t i m e  s t e p   48005                              ( at time 2.3999598E+01 )

 nodal point  x-disp     y-disp      z-disp      x-vel       y-vel       z-vel      x-accl      y-accl      z-accl      x-coor      y-coor      z-coor
    22626  9.28909E-01 2.66067E+01 2.14051E+01 5.07157E-02 1.96227E+00 1.04158E+00-2.64615E-02-7.77092E-03-3.81858E-02 5.58828E+00-1.58409E+00-2.35766E+01



 n o d a l   p r i n t   o u t   f o r   t i m e  s t e p   48005                              ( at time 2.3999598E+01 )

 nodal point  x-rot      y-rot       z-rot       x-rot vel   y-rot vel   z-rot vel   x-rot acc   y-rot acc   z-rot acc
    22626 -2.56986E-01 6.05689E-03 3.40684E-03-1.86575E-02 5.32989E-04 1.40345E-04 8.60265E-05-1.68573E-04 1.79733E-04



 n o d a l   p r i n t   o u t   f o r   t i m e  s t e p   48205                              ( at time 2.4099588E+01 )

 nodal point  x-disp     y-disp      z-disp      x-vel       y-vel       z-vel      x-accl      y-accl      z-accl      x-coor      y-coor      z-coor
    22626  9.33987E-01 2.68030E+01 2.15090E+01 5.05573E-02 1.96250E+00 1.03629E+00-1.58500E-03 2.30095E-03-5.28909E-02 5.59336E+00-1.38788E+00-2.34727E+01



 n o d a l   p r i n t   o u t   f o r   t i m e  s t e p   48205                              ( at time 2.4099588E+01 )

 nodal point  x-rot      y-rot       z-rot       x-rot vel   y-rot vel   z-rot vel   x-rot acc   y-rot acc   z-rot acc
    22626 -2.58852E-01 6.11068E-03 3.41900E-03-1.86559E-02 5.37136E-04 1.30415E-04 1.64859E-05 4.14733E-05-9.93083E-05



 n o d a l   p r i n t   o u t   f o r   t i m e  s t e p   48405                              ( at time 2.4199578E+01 )

 nodal point  x-disp     y-disp      z-disp      x-vel       y-vel       z-vel      x-accl      y-accl      z-accl      x-coor      y-coor      z-coor
    22626  9.39112E-01 2.69992E+01 2.16122E+01 5.22423E-02 1.96299E+00 1.03039E+00 1.68522E-02 4.97635E-03-5.89770E-02 5.59849E+00-1.19165E+00-2.33695E+01



 n o d a l   p r i n t   o u t   f o r   t i m e  s t e p   48405                              ( at time 2.4199578E+01 )

 nodal point  x-rot      y-rot       z-rot       x-rot vel   y-rot vel   z-rot vel   x-rot acc   y-rot acc   z-rot acc
    22626 -2.60718E-01 6.16693E-03 3.43183E-03-1.86631E-02 5.76603E-04 1.19858E-04-7.24649E-05 3.94713E-04-1.05574E-04



 n o d a l   p r i n t   o u t   f o r   t i m e  s t e p   48605                              ( at time 2.4299568E+01 )

 nodal point  x-disp     y-disp      z-disp      x-vel       y-vel       z-vel      x-accl      y-accl      z-accl      x-coor      y-coor      z-coor
    22626  9.44240E-01 2.71954E+01 2.17151E+01 5.02586E-02 1.96160E+00 1.02744E+00-1.98389E-02-1.39273E-02-2.95285E-02 5.60362E+00-9.95466E-01-2.32666E+01



 n o d a l   p r i n t   o u t   f o r   t i m e  s t e p   48605                              ( at time 2.4299568E+01 )

 nodal point  x-rot      y-rot       z-rot       x-rot vel   y-rot vel   z-rot vel   x-rot acc   y-rot acc   z-rot acc
    22626 -2.62583E-01 6.22531E-03 3.44470E-03-1.86507E-02 5.78517E-04 1.38800E-04 1.24697E-04 1.91375E-05 1.89437E-04



 n o d a l   p r i n t   o u t   f o r   t i m e  s t e p   48805                              ( at time 2.4399558E+01 )

 nodal point  x-disp     y-disp      z-disp      x-vel       y-vel       z-vel      x-accl      y-accl      z-accl      x-coor      y-coor      z-coor
    22626  9.49316E-01 2.73915E+01 2.18176E+01 5.10115E-02 1.96038E+00 1.02376E+00 7.52999E-03-1.22272E-02-3.68271E-02 5.60869E+00-7.99376E-01-2.31641E+01



 n o d a l   p r i n t   o u t   f o r   t i m e  s t e p   48805                              ( at time 2.4399558E+01 )

 nodal point  x-rot      y-rot       z-rot       x-rot vel   y-rot vel   z-rot vel   x-rot acc   y-rot acc   z-rot acc
    22626 -2.64448E-01 6.28310E-03 3.45546E-03-1.86374E-02 5.84227E-04 9.34555E-05 1.33117E-04 5.71093E-05-4.53490E-04



 n o d a l   p r i n t   o u t   f o r   t i m e  s t e p   49006                              ( at time 2.4500048E+01 )

 nodal point  x-disp     y-disp      z-disp      x-vel       y-vel       z-vel      x-accl      y-accl      z-accl      x-coor      y-coor      z-coor
    22626  9.54334E-01 2.75884E+01 2.19203E+01 5.00479E-02 1.95861E+00 1.01925E+00-9.58946E-03-1.75797E-02-4.48218E-02 5.61371E+00-6.02474E-01-2.30614E+01



 n o d a l   p r i n t   o u t   f o r   t i m e  s t e p   49006                              ( at time 2.4500048E+01 )

 nodal point  x-rot      y-rot       z-rot       x-rot vel   y-rot vel   z-rot vel   x-rot acc   y-rot acc   z-rot acc
    22626 -2.66320E-01 6.34314E-03 3.46570E-03-1.86309E-02 6.14914E-04 9.91395E-05 6.42639E-05 3.05374E-04 5.65635E-05



 n o d a l   p r i n t   o u t   f o r   t i m e  s t e p   49206                              ( at time 2.4600038E+01 )

 nodal point  x-disp     y-disp      z-disp      x-vel       y-vel       z-vel      x-accl      y-accl      z-accl      x-coor      y-coor      z-coor
    22626  9.59403E-01 2.77841E+01 2.20221E+01 5.03911E-02 1.95673E+00 1.01813E+00 3.43231E-03-1.87998E-02-1.11936E-02 5.61878E+00-4.06737E-01-2.29596E+01



 n o d a l   p r i n t   o u t   f o r   t i m e  s t e p   49206                              ( at time 2.4600038E+01 )

 nodal point  x-rot      y-rot       z-rot       x-rot vel   y-rot vel   z-rot vel   x-rot acc   y-rot acc   z-rot acc
    22626 -2.68182E-01 6.40539E-03 3.47607E-03-1.86165E-02 6.22101E-04 1.06584E-04 1.44312E-04 7.18762E-05 7.44528E-05



 n o d a l   p r i n t   o u t   f o r   t i m e  s t e p   49406                              ( at time 2.4700028E+01 )

 nodal point  x-disp     y-disp      z-disp      x-vel       y-vel       z-vel      x-accl      y-accl      z-accl      x-coor      y-coor      z-coor
    22626  9.64370E-01 2.79796E+01 2.21238E+01 4.98429E-02 1.95409E+00 1.01597E+00-5.48226E-03-2.64638E-02-2.16568E-02 5.62375E+00-2.11217E-01-2.28579E+01



 n o d a l   p r i n t   o u t   f o r   t i m e  s t e p   49406                              ( at time 2.4700028E+01 )

 nodal point  x-rot      y-rot       z-rot       x-rot vel   y-rot vel   z-rot vel   x-rot acc   y-rot acc   z-rot acc
    22626 -2.70042E-01 6.46717E-03 3.48434E-03-1.85876E-02 6.33009E-04 6.11745E-05 2.88630E-04 1.09096E-04-4.54145E-04



 n o d a l   p r i n t   o u t   f o r   t i m e  s t e p   49606                              ( at time 2.4800018E+01 )

 nodal point  x-disp     y-disp      z-disp      x-vel       y-vel       z-vel      x-accl      y-accl      z-accl      x-coor      y-coor      z-coor
    22626  9.69310E-01 2.81749E+01 2.22253E+01 4.92558E-02 1.95103E+00 1.01399E+00-5.87204E-03-3.05383E-02-1.97405E-02 5.62868E+00-1.59736E-02-2.27564E+01



 n o d a l   p r i n t   o u t   f o r   t i m e  s t e p   49606                              ( at time 2.4800018E+01 )

 nodal point  x-rot      y-rot       z-rot       x-rot vel   y-rot vel   z-rot vel   x-rot acc   y-rot acc   z-rot acc
    22626 -2.71900E-01 6.53113E-03 3.49108E-03-1.85810E-02 6.42979E-04 6.51855E-05 6.56084E-05 9.97107E-05 4.01134E-05



 n o d a l   p r i n t   o u t   f o r   t i m e  s t e p   49806                              ( at time 2.4900008E+01 )

 nodal point  x-disp     y-disp      z-disp      x-vel       y-vel       z-vel      x-accl      y-accl      z-accl      x-coor      y-coor      z-coor
    22626  9.74321E-01 2.83698E+01 2.23266E+01 4.91486E-02 1.94782E+00 1.01306E+00-1.07155E-03-3.20923E-02-9.29697E-03 5.63370E+00 1.78939E-01-2.26551E+01



 n o d a l   p r i n t   o u t   f o r   t i m e  s t e p   49806                              ( at time 2.4900008E+01 )

 nodal point  x-rot      y-rot       z-rot       x-rot vel   y-rot vel   z-rot vel   x-rot acc   y-rot acc   z-rot acc
    22626 -2.73756E-01 6.59571E-03 3.49548E-03-1.85444E-02 6.43893E-04 4.46990E-05 3.66553E-04 9.14252E-06-2.04888E-04



 n o d a l   p r i n t   o u t   f o r   t i m e  s t e p   50006                              ( at time 2.4999998E+01 )

 nodal point  x-disp     y-disp      z-disp      x-vel       y-vel       z-vel      x-accl      y-accl      z-accl      x-coor      y-coor      z-coor
    22626  9.79206E-01 2.85643E+01 2.24279E+01 5.00303E-02 1.94400E+00 1.01167E+00 8.81719E-03-3.82768E-02-1.39118E-02 5.63858E+00 3.73489E-01-2.25539E+01



 n o d a l   p r i n t   o u t   f o r   t i m e  s t e p   50006                              ( at time 2.4999998E+01 )

 nodal point  x-rot      y-rot       z-rot       x-rot vel   y-rot vel   z-rot vel   x-rot acc   y-rot acc   z-rot acc
    22626 -2.75610E-01 6.66086E-03 3.49901E-03-1.85345E-02 6.62120E-04 1.91590E-05 9.86547E-05 1.82288E-04-2.55423E-04
