 LSTC 50th% Full_FE H-III Dummy (Beta Version, February 17, 2019)        
                    ls-dyna smp s R16 R16.0_619_d222963 date 03/18/2025

{BEGIN LEGEND}
 Entity #        Title
        1     Upper_Neck_Force_INJURY                                              
{END LEGEND}



 line#1  section#     time        x-force     y-force     z-force    magnitude
 line#2  resultant  moments       x-moment    y-moment    z-moment   magnitude
 line#3  centroids                x           y           z            area  
           1    0.00000E+00     0.0000E+00  0.0000E+00  0.0000E+00  0.0000E+00
ac ID =   33377                 0.0000E+00  0.0000E+00  0.0000E+00  0.0000E+00
                               -3.7437E-01  1.0501E+01 -4.6940E+01  0.0000E+00

           1    1.00490E-01     1.3643E-04 -4.9877E-03  2.5982E-01  2.5987E-01
ac ID =   33377                 4.2550E-01 -1.2521E+00 -2.7103E-02  1.3227E+00
                               -3.7387E-01  1.0590E+01 -4.6886E+01  2.5147E+03

           1    2.00480E-01    -4.4346E-02  5.9233E-04  4.4124E-01  4.4346E-01
ac ID =   33377                 3.0493E-01 -1.5969E+00  2.0724E-02  1.6259E+00
                               -3.7386E-01  1.0591E+01 -4.6888E+01  2.5147E+03

           1    3.00470E-01     1.4712E-02 -3.4672E-03  2.1780E-01  2.1832E-01
ac ID =   33377                 2.9927E-02 -3.3610E-01  6.3454E-02  3.4334E-01
                               -3.7382E-01  1.0591E+01 -4.6889E+01  2.5147E+03

           1    4.00460E-01     2.7529E-03  1.0584E-02  8.8218E-02  8.8893E-02
ac ID =   33377                -4.9400E-01 -9.4252E-01 -1.6468E-03  1.0641E+00
                               -3.7383E-01  1.0592E+01 -4.6890E+01  2.5147E+03

           1    5.00450E-01    -4.0159E-02  4.2054E-03  1.6405E-01  1.6894E-01
ac ID =   33377                -3.9408E-01 -1.4925E+00 -1.1066E-01  1.5476E+00
                               -3.7385E-01  1.0594E+01 -4.6893E+01  2.5147E+03

           1    6.00440E-01    -1.0133E-02  3.9777E-03  3.4778E-01  3.4795E-01
ac ID =   33377                 9.7264E-02 -1.2812E+00 -3.7248E-02  1.2854E+00
                               -3.7386E-01  1.0595E+01 -4.6897E+01  2.5147E+03

           1    7.00430E-01     2.5885E-03 -6.0215E-03  2.9597E-01  2.9604E-01
ac ID =   33377                 1.3684E-01 -4.7035E-01  8.6029E-02  4.9735E-01
                               -3.7390E-01  1.0597E+01 -4.6901E+01  2.5147E+03

           1    8.00420E-01    -2.9501E-02 -1.1889E-03  1.0224E-01  1.0642E-01
ac ID =   33377                 7.9149E-02 -9.8969E-01  4.9492E-02  9.9408E-01
                               -3.7395E-01  1.0599E+01 -4.6904E+01  2.5147E+03

           1    9.00410E-01    -3.8178E-02  1.5511E-04  6.9142E-02  7.8982E-02
ac ID =   33377                 1.0015E-01 -1.0214E+00 -7.9752E-03  1.0263E+00
                               -3.7400E-01  1.0601E+01 -4.6909E+01  2.5147E+03

           1    1.00040E+00     1.8446E-02 -4.2154E-03  2.3069E-01  2.3146E-01
ac ID =   33377                 3.7913E-01 -2.1264E-01 -5.8858E-02  4.3866E-01
                               -3.7402E-01  1.0604E+01 -4.6915E+01  2.5147E+03

           1    1.10039E+00     1.8903E-03 -2.9423E-03  2.7422E-01  2.7424E-01
ac ID =   33377                 3.4955E-01 -7.6718E-01 -3.7130E-02  8.4388E-01
                               -3.7404E-01  1.0606E+01 -4.6920E+01  2.5147E+03

           1    1.20038E+00    -3.1811E-02  1.7797E-04  1.3065E-01  1.3447E-01
ac ID =   33377                -1.5967E-01 -1.0934E+00  3.5691E-03  1.1050E+00
                               -3.7407E-01  1.0609E+01 -4.6926E+01  2.5147E+03

           1    1.30037E+00    -6.0501E-03  4.7577E-03  8.4303E-02  8.4654E-02
ac ID =   33377                -2.9072E-01 -7.2900E-01 -2.6296E-04  7.8483E-01
                               -3.7412E-01  1.0612E+01 -4.6932E+01  2.5147E+03

           1    1.40036E+00     9.4772E-03  2.6659E-03  1.9028E-01  1.9053E-01
ac ID =   33377                -2.5807E-01 -7.0809E-01  1.7347E-02  7.5386E-01
                               -3.7416E-01  1.0615E+01 -4.6939E+01  2.5147E+03

           1    1.50035E+00    -2.3408E-02  7.5589E-04  3.3566E-01  3.3647E-01
ac ID =   33377                -2.1832E-02 -1.4222E+00 -2.8896E-02  1.4226E+00
                               -3.7421E-01  1.0619E+01 -4.6947E+01  2.5147E+03

           1    1.60034E+00    -1.5320E-02 -1.7513E-03  2.2284E-01  2.2338E-01
ac ID =   33377                -2.4805E-02 -1.1601E+00  3.7952E-03  1.1603E+00
                               -3.7430E-01  1.0622E+01 -4.6954E+01  2.5147E+03

           1    1.70033E+00     2.2112E-03 -1.4140E-03  7.0326E-02  7.0375E-02
ac ID =   33377                -8.3658E-03 -4.5785E-01  1.0059E-01  4.6884E-01
                               -3.7439E-01  1.0626E+01 -4.6962E+01  2.5147E+03

           1    1.80032E+00    -1.7600E-02  1.1265E-03  9.7109E-02  9.8698E-02
ac ID =   33377                 9.5020E-02 -9.3683E-01  1.0950E-01  9.4798E-01
                               -3.7447E-01  1.0630E+01 -4.6970E+01  2.5147E+03

           1    1.90031E+00    -2.9484E-03 -2.7588E-03  2.0431E-01  2.0435E-01
ac ID =   33377                 2.6178E-01 -5.6984E-01 -8.4967E-02  6.3282E-01
                               -3.7454E-01  1.0634E+01 -4.6979E+01  2.5147E+03

           1    2.00030E+00     3.7834E-03 -5.2270E-03  1.6007E-01  1.6020E-01
ac ID =   33377                 2.1882E-01 -1.4750E-01 -1.4595E-01  3.0157E-01
                               -3.7460E-01  1.0638E+01 -4.6988E+01  2.5147E+03

           1    2.10029E+00    -2.1673E-02  1.1332E-03  9.6262E-03  2.3742E-02
ac ID =   33377                -5.3528E-02 -4.5912E-01  3.8094E-02  4.6380E-01
                               -3.7468E-01  1.0642E+01 -4.6997E+01  2.5147E+03

           1    2.20028E+00    -8.4792E-03  5.9591E-03  1.8040E-02  2.0805E-02
ac ID =   33377                -2.2294E-01 -3.9397E-01  1.2465E-02  4.5284E-01
                               -3.7476E-01  1.0647E+01 -4.7006E+01  2.5147E+03

           1    2.30027E+00     8.6801E-03  4.0228E-03  1.6534E-01  1.6562E-01
ac ID =   33377                -1.3408E-01 -5.1679E-01 -4.9121E-02  5.3616E-01
                               -3.7483E-01  1.0652E+01 -4.7016E+01  2.5147E+03

           1    2.40026E+00    -1.1385E-02 -2.8564E-03  1.9205E-01  1.9241E-01
ac ID =   33377                -1.1238E-01 -8.6330E-01  1.0917E-01  8.7740E-01
                               -3.7492E-01  1.0657E+01 -4.7026E+01  2.5147E+03

           1    2.50025E+00    -1.0697E-02  2.2699E-05  4.2637E-03  1.1516E-02
ac ID =   33377                -1.6938E-01 -5.1064E-01  1.6387E-01  5.6240E-01
                               -3.7503E-01  1.0661E+01 -4.7036E+01  2.5147E+03

           1    2.60024E+00     6.3379E-03  6.8297E-03 -6.5241E-02  6.5903E-02
ac ID =   33377                -1.9206E-01  2.8837E-01  1.2925E-02  3.4672E-01
                               -3.7515E-01  1.0666E+01 -4.7046E+01  2.5147E+03

           1    2.70023E+00     2.3289E-03 -1.1907E-03  1.8913E-02  1.9093E-02
ac ID =   33377                 7.6688E-02  3.3283E-01  3.2925E-02  3.4313E-01
                               -3.7524E-01  1.0672E+01 -4.7057E+01  2.5147E+03

           1    2.80022E+00     1.4123E-02 -4.7745E-03  5.3300E-02  5.5345E-02
ac ID =   33377                 4.2976E-01  5.6089E-01  1.6386E-03  7.0661E-01
                               -3.7531E-01  1.0678E+01 -4.7068E+01  2.5147E+03

           1    2.90021E+00     3.2333E-02 -1.7484E-03 -3.1345E-02  4.5067E-02
ac ID =   33377                 1.5895E-01  1.1880E+00 -1.5488E-02  1.1987E+00
                               -3.7536E-01  1.0684E+01 -4.7078E+01  2.5147E+03

           1    3.00020E+00     2.1259E-02  2.7045E-03 -1.1470E-01  1.1668E-01
ac ID =   33377                 7.1974E-02  1.0395E+00 -4.5869E-02  1.0429E+00
                               -3.7537E-01  1.0690E+01 -4.7089E+01  2.5147E+03

           1    3.10019E+00     2.7339E-02  1.5858E-03 -3.2408E-02  4.2429E-02
ac ID =   33377                 6.3958E-02  7.3087E-01 -5.9052E-02  7.3604E-01
                               -3.7533E-01  1.0697E+01 -4.7100E+01  2.5147E+03

           1    3.20018E+00     4.3662E-02  8.8007E-04  2.9465E-02  5.2681E-02
ac ID =   33377                 1.5381E-01  8.1236E-01  1.3036E-01  8.3701E-01
                               -3.7523E-01  1.0705E+01 -4.7112E+01  2.5147E+03

           1    3.30017E+00     4.4231E-02 -1.1266E-03 -4.0848E-02  6.0218E-02
ac ID =   33377                -9.3936E-02  9.2121E-01  1.4260E-01  9.3691E-01
                               -3.7511E-01  1.0713E+01 -4.7123E+01  2.5147E+03

           1    3.40016E+00     3.7247E-02  1.6543E-04 -1.7383E-01  1.7778E-01
ac ID =   33377                -1.0566E-01  1.2061E+00  3.1405E-01  1.2508E+00
                               -3.7498E-01  1.0722E+01 -4.7135E+01  2.5147E+03

           1    3.50015E+00     4.7451E-02 -2.4587E-03 -2.0656E-01  2.1196E-01
ac ID =   33377                 1.1085E-01  1.6882E+00  2.8710E-01  1.7161E+00
                               -3.7482E-01  1.0732E+01 -4.7147E+01  2.5147E+03

           1    3.60014E+00     6.9771E-02 -1.1088E-02 -1.3654E-01  1.5374E-01
ac ID =   33377                 4.6861E-01  2.4404E+00  3.4429E-02  2.4852E+00
                               -3.7465E-01  1.0743E+01 -4.7160E+01  2.5147E+03

           1    3.70013E+00     6.4133E-02 -1.6155E-02 -1.3973E-01  1.5459E-01
ac ID =   33377                 8.4224E-01  2.4591E+00 -5.9782E-03  2.5993E+00
                               -3.7449E-01  1.0755E+01 -4.7173E+01  2.5147E+03

           1    3.80012E+00     7.9815E-02 -1.1331E-02 -2.4869E-01  2.6143E-01
ac ID =   33377                 7.0708E-01  2.8564E+00  2.5884E-02  2.9427E+00
                               -3.7436E-01  1.0768E+01 -4.7186E+01  2.5147E+03

           1    3.90011E+00     6.1583E-02 -1.0941E-02 -3.2821E-01  3.3412E-01
ac ID =   33377                 8.9676E-01  2.8838E+00  6.4791E-02  3.0207E+00
                               -3.7424E-01  1.0782E+01 -4.7199E+01  2.5147E+03

           1    4.00010E+00     7.1672E-02 -2.2190E-02 -2.5863E-01  2.6929E-01
ac ID =   33377                 5.6989E-01  2.6031E+00  4.9915E-01  2.7111E+00
                               -3.7417E-01  1.0798E+01 -4.7213E+01  2.5147E+03

           1    4.10009E+00     9.1659E-02  1.8699E-03 -2.5263E-01  2.6875E-01
ac ID =   33377                 6.7748E-01  2.6933E+00 -3.5772E-01  2.8001E+00
                               -3.7417E-01  1.0815E+01 -4.7227E+01  2.5147E+03

           1    4.20008E+00     7.9910E-02  9.9595E-03 -3.2291E-01  3.3280E-01
ac ID =   33377                 9.3696E-02  2.4301E+00 -3.6776E-01  2.4595E+00
                               -3.7424E-01  1.0833E+01 -4.7241E+01  2.5147E+03

           1    4.30007E+00     8.1644E-02 -2.6777E-02 -4.4015E-01  4.4846E-01
ac ID =   33377                 4.8099E-01  2.4745E+00  4.6728E-01  2.5638E+00
                               -3.7425E-01  1.0853E+01 -4.7255E+01  2.5147E+03

           1    4.40006E+00     8.1116E-02 -2.0168E-02 -4.0322E-01  4.1180E-01
ac ID =   33377                 7.3652E-01  3.4992E+00  2.1688E-02  3.5760E+00
                               -3.7437E-01  1.0874E+01 -4.7269E+01  2.5147E+03

           1    4.50005E+00     1.0393E-01 -5.5417E-04 -3.5304E-01  3.6802E-01
ac ID =   33377                 7.8761E-01  3.3257E+00  4.7830E-01  3.4510E+00
                               -3.7450E-01  1.0897E+01 -4.7284E+01  2.5147E+03

           1    4.60004E+00     1.1002E-01 -2.2128E-02 -3.9249E-01  4.0822E-01
ac ID =   33377                 9.5759E-01  3.8163E+00  3.1322E-01  3.9471E+00
                               -3.7455E-01  1.0922E+01 -4.7298E+01  2.5147E+03

           1    4.70003E+00     1.0408E-01  1.5711E-02 -5.1214E-01  5.2285E-01
ac ID =   33377                 7.5941E-01  2.7776E+00 -5.9837E-01  2.9410E+00
                               -3.7466E-01  1.0948E+01 -4.7312E+01  2.5147E+03

           1    4.80002E+00     5.8637E-02 -1.5453E-02 -5.4366E-01  5.4703E-01
ac ID =   33377                 7.7604E-01  2.6137E+00  5.3095E-01  2.7777E+00
                               -3.7465E-01  1.0976E+01 -4.7327E+01  2.5147E+03

           1    4.90001E+00     1.4270E-01  1.0356E-03 -4.9964E-01  5.1961E-01
ac ID =   33377                 1.0244E+00  3.8166E+00  6.6664E-01  4.0075E+00
                               -3.7463E-01  1.1005E+01 -4.7342E+01  2.5147E+03

           1    5.00000E+00     1.0859E-01 -4.4973E-03 -4.9573E-01  5.0751E-01
ac ID =   33377                 1.8883E-01  3.5980E+00  1.0864E+00  3.7631E+00
                               -3.7447E-01  1.1036E+01 -4.7357E+01  2.5147E+03

           1    5.10049E+00     8.8598E-02 -1.0399E-02 -5.9896E-01  6.0557E-01
ac ID =   33377                 1.2022E+00  2.8563E+00  5.5512E-01  3.1483E+00
                               -3.7439E-01  1.1069E+01 -4.7371E+01  2.5147E+03

           1    5.20048E+00     9.6009E-02  8.7802E-03 -6.5285E-01  6.5993E-01
ac ID =   33377                -2.7194E-02  3.3931E+00 -2.7356E-01  3.4042E+00
                               -3.7433E-01  1.1104E+01 -4.7386E+01  2.5147E+03

           1    5.30047E+00     1.4063E-01  1.0111E-02 -6.4339E-01  6.5865E-01
ac ID =   33377                 4.8035E-01  4.1920E+00 -1.3552E+00  4.4317E+00
                               -3.7405E-01  1.1140E+01 -4.7401E+01  2.5147E+03

           1    5.40046E+00     1.0634E-01 -2.3162E-02 -6.4520E-01  6.5431E-01
ac ID =   33377                 1.3057E+00  3.6909E+00 -1.2966E+00  4.1242E+00
                               -3.7360E-01  1.1178E+01 -4.7415E+01  2.5147E+03

           1    5.50045E+00     8.6560E-02 -2.4280E-02 -7.5696E-01  7.6228E-01
ac ID =   33377                 1.1557E+00  3.5970E+00 -2.8175E-01  3.7886E+00
                               -3.7321E-01  1.1218E+01 -4.7429E+01  2.5147E+03

           1    5.60044E+00     1.1904E-01  3.8764E-02 -8.4301E-01  8.5225E-01
ac ID =   33377                 6.6258E-03  4.1495E+00  4.3011E-01  4.1717E+00
                               -3.7285E-01  1.1259E+01 -4.7443E+01  2.5147E+03

           1    5.70043E+00     9.5616E-02 -5.7809E-03 -8.0235E-01  8.0805E-01
ac ID =   33377                 4.7141E-01  2.5456E+00  4.0757E-01  2.6208E+00
                               -3.7201E-01  1.1301E+01 -4.7457E+01  2.5147E+03

           1    5.80042E+00     1.3578E-01  1.9891E-03 -8.3259E-01  8.4359E-01
ac ID =   33377                 1.4566E+00  3.5570E+00 -1.2216E+00  4.0331E+00
                               -3.7121E-01  1.1346E+01 -4.7470E+01  2.5147E+03

           1    5.90041E+00     1.0440E-01 -3.2674E-02 -8.5898E-01  8.6592E-01
ac ID =   33377                 3.9292E-01  2.9707E+00  4.8318E-01  3.0353E+00
                               -3.7037E-01  1.1391E+01 -4.7482E+01  2.5147E+03

           1    6.00040E+00     1.3758E-01  4.7657E-02 -9.1778E-01  9.2925E-01
ac ID =   33377                -4.7553E-01  3.3874E+00  2.6807E+00  4.3459E+00
                               -3.6964E-01  1.1438E+01 -4.7495E+01  2.5147E+03

           1    6.10039E+00     1.2375E-01 -1.9857E-03 -9.0958E-01  9.1796E-01
ac ID =   33377                 3.7733E-01  3.3429E+00  6.9508E-01  3.4352E+00
                               -3.6847E-01  1.1486E+01 -4.7506E+01  2.5147E+03

           1    6.20038E+00     1.0109E-01 -4.8279E-03 -9.1334E-01  9.1893E-01
ac ID =   33377                 9.0439E-01  3.1599E+00 -1.3889E+00  3.5682E+00
                               -3.6744E-01  1.1536E+01 -4.7518E+01  2.5147E+03

           1    6.30037E+00     1.1046E-01  2.4126E-02 -9.4707E-01  9.5379E-01
ac ID =   33377                -3.2463E-01  2.8175E+00  6.3010E-01  2.9052E+00
                               -3.6623E-01  1.1587E+01 -4.7528E+01  2.5147E+03

           1    6.40036E+00     1.4342E-01  3.4552E-03 -1.0563E+00  1.0660E+00
ac ID =   33377                 7.5986E-01  4.2719E+00  9.7728E-01  4.4476E+00
                               -3.6485E-01  1.1639E+01 -4.7538E+01  2.5147E+03

           1    6.50035E+00     1.6243E-01 -5.5681E-03 -1.1271E+00  1.1388E+00
ac ID =   33377                 3.3210E-01  4.8617E+00 -7.8130E-02  4.8737E+00
                               -3.6340E-01  1.1692E+01 -4.7547E+01  2.5147E+03

           1    6.60034E+00     1.1257E-01  1.4054E-02 -1.1045E+00  1.1103E+00
ac ID =   33377                 7.4626E-01  3.6080E+00 -1.3349E+00  3.9187E+00
                               -3.6183E-01  1.1747E+01 -4.7556E+01  2.5147E+03

           1    6.70033E+00     8.4616E-02  4.5986E-02 -1.1443E+00  1.1484E+00
ac ID =   33377                -6.0856E-01  3.5630E+00 -1.4373E+00  3.8899E+00
                               -3.6023E-01  1.1803E+01 -4.7564E+01  2.5147E+03

           1    6.80032E+00     1.6284E-01 -2.0321E-02 -1.2039E+00  1.2150E+00
ac ID =   33377                 1.0852E+00  4.9407E+00  2.0449E-01  5.0626E+00
                               -3.5847E-01  1.1861E+01 -4.7571E+01  2.5147E+03

           1    6.90031E+00     1.6871E-01  7.4721E-02 -1.2731E+00  1.2864E+00
ac ID =   33377                -3.2976E-01  5.2092E+00 -4.5315E-02  5.2199E+00
                               -3.5662E-01  1.1920E+01 -4.7577E+01  2.5147E+03

           1    7.00030E+00     1.4855E-01  1.0783E-02 -1.2161E+00  1.2252E+00
ac ID =   33377                -1.2479E-01  4.3674E+00 -6.7482E-01  4.4210E+00
                               -3.5463E-01  1.1981E+01 -4.7583E+01  2.5147E+03

           1    7.10029E+00     1.3410E-01 -1.5835E-02 -1.2829E+00  1.2900E+00
ac ID =   33377                 6.8877E-01  4.9723E+00 -1.1899E-01  5.0212E+00
                               -3.5268E-01  1.2043E+01 -4.7587E+01  2.5147E+03

           1    7.20028E+00     2.1312E-01 -1.7371E-02 -1.3607E+00  1.3774E+00
ac ID =   33377                 5.9715E-01  5.1957E+00 -1.1192E-01  5.2311E+00
                               -3.5073E-01  1.2107E+01 -4.7591E+01  2.5147E+03

           1    7.30027E+00     1.6977E-01  3.5599E-03 -1.4492E+00  1.4591E+00
ac ID =   33377                 1.1137E-01  5.7949E+00  1.2359E-01  5.7973E+00
                               -3.4884E-01  1.2172E+01 -4.7593E+01  2.5147E+03

           1    7.40026E+00     1.9463E-01 -6.5961E-02 -1.4544E+00  1.4689E+00
ac ID =   33377                 1.9086E+00  5.6305E+00  9.7146E-02  5.9459E+00
                               -3.4705E-01  1.2239E+01 -4.7595E+01  2.5147E+03

           1    7.50025E+00     1.8310E-01  2.2133E-04 -1.4414E+00  1.4529E+00
ac ID =   33377                 1.5418E-01  5.7337E+00 -6.3034E-02  5.7361E+00
                               -3.4522E-01  1.2308E+01 -4.7595E+01  2.5147E+03

           1    7.60024E+00     1.7038E-01 -6.5612E-02 -1.4786E+00  1.4898E+00
ac ID =   33377                 1.0474E+00  6.6538E+00 -6.4997E-01  6.7670E+00
                               -3.4336E-01  1.2378E+01 -4.7595E+01  2.5147E+03

           1    7.70023E+00     2.3348E-01  1.7459E-02 -1.5225E+00  1.5404E+00
ac ID =   33377                 1.6172E+00  7.6535E+00 -1.2740E-02  7.8225E+00
                               -3.4196E-01  1.2449E+01 -4.7593E+01  2.5147E+03

           1    7.80022E+00     1.8235E-01  2.1481E-02 -1.5822E+00  1.5928E+00
ac ID =   33377                 9.5960E-02  5.9928E+00  1.6636E+00  6.2202E+00
                               -3.4027E-01  1.2522E+01 -4.7590E+01  2.5147E+03

           1    7.90021E+00     2.1381E-01 -1.6110E-02 -1.5841E+00  1.5985E+00
ac ID =   33377                 6.3067E-01  6.0544E+00  4.4105E-02  6.0873E+00
                               -3.3872E-01  1.2597E+01 -4.7586E+01  2.5147E+03

           1    8.00020E+00     2.4203E-01 -3.4128E-02 -1.5920E+00  1.6106E+00
ac ID =   33377                 1.6099E+00  7.0963E+00  3.6997E-01  7.2860E+00
                               -3.3730E-01  1.2674E+01 -4.7581E+01  2.5147E+03

           1    8.10019E+00     2.7887E-01  7.6063E-03 -1.6658E+00  1.6890E+00
ac ID =   33377                 7.9379E-01  7.5002E+00 -2.6141E-01  7.5466E+00
                               -3.3608E-01  1.2752E+01 -4.7574E+01  2.5147E+03

           1    8.20018E+00     2.0755E-01  1.3196E-02 -1.7313E+00  1.7437E+00
ac ID =   33377                 4.3038E-01  6.8628E+00 -7.2040E-01  6.9139E+00
                               -3.3474E-01  1.2831E+01 -4.7566E+01  2.5147E+03

           1    8.30017E+00     2.5624E-01 -4.2593E-02 -1.7425E+00  1.7618E+00
ac ID =   33377                 2.3865E+00  9.2508E+00  6.4068E-01  9.5751E+00
                               -3.3340E-01  1.2913E+01 -4.7558E+01  2.5147E+03

           1    8.40016E+00     2.9772E-01 -2.5896E-02 -1.7417E+00  1.7671E+00
ac ID =   33377                 1.7360E+00  9.1097E+00 -3.8437E-01  9.2816E+00
                               -3.3222E-01  1.2996E+01 -4.7548E+01  2.5147E+03

           1    8.50015E+00     2.0274E-01  3.5684E-02 -1.7634E+00  1.7754E+00
ac ID =   33377                 3.9811E-01  7.7300E+00 -2.0275E+00  8.0013E+00
                               -3.3093E-01  1.3080E+01 -4.7536E+01  2.5147E+03

           1    8.60014E+00     2.4748E-01 -5.2344E-02 -1.8716E+00  1.8886E+00
ac ID =   33377                 2.4980E+00  8.2079E+00 -1.7223E-01  8.5814E+00
                               -3.2949E-01  1.3166E+01 -4.7524E+01  2.5147E+03

           1    8.70013E+00     3.3006E-01 -2.2849E-02 -1.8589E+00  1.8881E+00
ac ID =   33377                 1.4858E+00  1.0320E+01  6.3359E-01  1.0446E+01
                               -3.2822E-01  1.3254E+01 -4.7510E+01  2.5147E+03

           1    8.80012E+00     1.9233E-01 -2.4685E-03 -1.7984E+00  1.8087E+00
ac ID =   33377                 1.4756E+00  7.7922E+00  7.7290E-01  7.9682E+00
                               -3.2690E-01  1.3343E+01 -4.7495E+01  2.5147E+03

           1    8.90011E+00     2.9035E-01  4.5481E-02 -1.8590E+00  1.8821E+00
ac ID =   33377                 8.8192E-01  8.1033E+00  1.1662E+00  8.2342E+00
                               -3.2557E-01  1.3433E+01 -4.7478E+01  2.5147E+03

           1    9.00010E+00     2.6321E-01 -6.1245E-02 -1.9795E+00  1.9979E+00
ac ID =   33377                 2.9754E+00  8.9376E+00 -9.4349E-01  9.4670E+00
                               -3.2420E-01  1.3524E+01 -4.7459E+01  2.5147E+03

           1    9.10009E+00     2.8084E-01  1.8805E-02 -1.9537E+00  1.9739E+00
ac ID =   33377                 1.5928E+00  9.4492E+00  2.2525E-01  9.5851E+00
                               -3.2276E-01  1.3616E+01 -4.7438E+01  2.5147E+03

           1    9.20008E+00     2.3422E-01  3.7435E-02 -1.9808E+00  1.9949E+00
ac ID =   33377                 1.1701E+00  7.9868E+00  2.1803E+00  8.3614E+00
                               -3.2108E-01  1.3709E+01 -4.7417E+01  2.5147E+03

           1    9.30007E+00     3.5113E-01 -4.9324E-02 -1.9000E+00  1.9328E+00
ac ID =   33377                 2.5144E+00  9.4438E+00  1.8180E-01  9.7745E+00
                               -3.1936E-01  1.3804E+01 -4.7394E+01  2.5147E+03

           1    9.40006E+00     2.7188E-01 -1.5233E-02 -2.0051E+00  2.0235E+00
ac ID =   33377                 1.8482E+00  8.7099E+00 -5.6038E-01  8.9215E+00
                               -3.1741E-01  1.3899E+01 -4.7368E+01  2.5147E+03

           1    9.50005E+00     2.2931E-01  4.1065E-02 -2.1050E+00  2.1178E+00
ac ID =   33377                 2.4638E-01  9.3928E+00 -6.4070E-01  9.4178E+00
                               -3.1541E-01  1.3997E+01 -4.7342E+01  2.5147E+03

           1    9.60004E+00     3.2331E-01 -1.2103E-02 -2.0563E+00  2.0816E+00
ac ID =   33377                 1.7085E+00  9.2388E+00  2.3247E-01  9.3983E+00
                               -3.1294E-01  1.4094E+01 -4.7313E+01  2.5147E+03

           1    9.70003E+00     3.0354E-01 -1.2945E-02 -1.9740E+00  1.9972E+00
ac ID =   33377                 1.9321E+00  9.8646E+00  6.2629E-01  1.0072E+01
                               -3.1058E-01  1.4195E+01 -4.7284E+01  2.5147E+03

           1    9.80002E+00     3.2883E-01  8.8092E-02 -2.0441E+00  2.0723E+00
ac ID =   33377                -4.5100E-01  9.2985E+00  4.8115E-01  9.3219E+00
                               -3.0794E-01  1.4295E+01 -4.7252E+01  2.5147E+03

           1    9.90001E+00     2.5574E-01 -3.2106E-02 -2.1442E+00  2.1596E+00
ac ID =   33377                 1.6394E+00  1.0110E+01 -2.0803E+00  1.0451E+01
                               -3.0494E-01  1.4398E+01 -4.7219E+01  2.5147E+03

           1    1.00005E+01     3.5228E-01  3.4226E-02 -2.1119E+00  2.1414E+00
ac ID =   33377                 1.0675E+00  1.0236E+01 -9.0496E-01  1.0332E+01
                               -3.0186E-01  1.4502E+01 -4.7183E+01  2.5147E+03

           1    1.01005E+01     2.5397E-01 -1.7632E-02 -2.1412E+00  2.1563E+00
ac ID =   33377                 1.4221E+00  1.0138E+01  1.0323E+00  1.0289E+01
                               -2.9859E-01  1.4607E+01 -4.7147E+01  2.5147E+03

           1    1.02005E+01     3.2299E-01  6.9391E-03 -2.1232E+00  2.1476E+00
ac ID =   33377                 2.2774E-01  9.8672E+00  2.3256E-01  9.8726E+00
                               -2.9504E-01  1.4713E+01 -4.7109E+01  2.5147E+03

           1    1.03005E+01     3.5538E-01  3.3689E-02 -2.1817E+00  2.2107E+00
ac ID =   33377                 6.2651E-01  1.1480E+01 -3.8717E-01  1.1503E+01
                               -2.9125E-01  1.4821E+01 -4.7069E+01  2.5147E+03

           1    1.04005E+01     2.7408E-01 -2.2444E-02 -2.2142E+00  2.2312E+00
ac ID =   33377                 7.4288E-01  1.0082E+01 -4.1439E-01  1.0118E+01
                               -2.8740E-01  1.4930E+01 -4.7026E+01  2.5147E+03

           1    1.05004E+01     2.8007E-01  1.6552E-02 -2.1940E+00  2.2119E+00
ac ID =   33377                 1.7065E-01  9.9072E+00  6.9094E-01  9.9327E+00
                               -2.8336E-01  1.5040E+01 -4.6983E+01  2.5147E+03

           1    1.06004E+01     3.7099E-01  5.3170E-02 -2.1580E+00  2.1903E+00
ac ID =   33377                -9.7459E-01  1.1079E+01  9.6877E-01  1.1164E+01
                               -2.7929E-01  1.5151E+01 -4.6937E+01  2.5147E+03

           1    1.07004E+01     2.9271E-01 -1.0407E-03 -2.1504E+00  2.1703E+00
ac ID =   33377                 8.5059E-01  9.7275E+00  1.1628E+00  9.8336E+00
                               -2.7490E-01  1.5264E+01 -4.6889E+01  2.5147E+03

           1    1.08004E+01     3.2867E-01 -1.2119E-02 -2.2184E+00  2.2426E+00
ac ID =   33377                 1.2744E+00  1.0167E+01 -1.2177E-01  1.0248E+01
                               -2.7047E-01  1.5378E+01 -4.6840E+01  2.5147E+03

           1    1.09004E+01     3.0320E-01  2.7692E-02 -2.2097E+00  2.2306E+00
ac ID =   33377                -5.4900E-01  9.6636E+00  1.7299E+00  9.8326E+00
                               -2.6602E-01  1.5494E+01 -4.6789E+01  2.5147E+03

           1    1.10004E+01     3.4825E-01  4.1852E-02 -2.1423E+00  2.1708E+00
ac ID =   33377                 3.7046E-01  1.0785E+01  4.1169E-01  1.0799E+01
                               -2.6162E-01  1.5610E+01 -4.6736E+01  2.5147E+03

           1    1.11004E+01     2.4223E-01 -4.1305E-02 -2.1278E+00  2.1420E+00
ac ID =   33377                 8.8706E-01  9.4020E+00 -1.8675E+00  9.6267E+00
                               -2.5691E-01  1.5728E+01 -4.6681E+01  2.5147E+03

           1    1.12004E+01     3.4207E-01  2.4214E-02 -2.2466E+00  2.2726E+00
ac ID =   33377                 2.8685E-01  1.1296E+01 -1.6887E+00  1.1425E+01
                               -2.5235E-01  1.5847E+01 -4.6624E+01  2.5147E+03

           1    1.13004E+01     3.1767E-01  9.8726E-03 -2.1613E+00  2.1845E+00
ac ID =   33377                -1.0168E+00  1.0100E+01 -1.0865E-01  1.0151E+01
                               -2.4796E-01  1.5967E+01 -4.6566E+01  2.5147E+03

           1    1.14004E+01     2.9752E-01  1.9981E-02 -2.0903E+00  2.1114E+00
ac ID =   33377                -2.3033E-01  9.6295E+00  9.2943E-01  9.6770E+00
                               -2.4341E-01  1.6089E+01 -4.6505E+01  2.5147E+03

           1    1.15003E+01     2.6561E-01 -5.6266E-03 -2.0824E+00  2.0993E+00
ac ID =   33377                 9.3850E-01  9.3440E+00  1.5343E-01  9.3923E+00
                               -2.3887E-01  1.6211E+01 -4.6442E+01  2.5147E+03

           1    1.16003E+01     3.4209E-01  2.0437E-02 -2.1111E+00  2.1387E+00
ac ID =   33377                -3.2228E-01  9.0989E+00  2.7483E-01  9.1088E+00
                               -2.3459E-01  1.6334E+01 -4.6377E+01  2.5147E+03

           1    1.17003E+01     3.1348E-01  4.7848E-02 -2.1276E+00  2.1511E+00
ac ID =   33377                -6.1255E-01  9.3507E+00 -1.1529E+00  9.4414E+00
                               -2.3049E-01  1.6458E+01 -4.6310E+01  2.5147E+03

           1    1.18003E+01     3.0807E-01  2.7601E-03 -2.0714E+00  2.0942E+00
ac ID =   33377                 3.0363E-01  9.4924E+00 -7.0874E-01  9.5236E+00
                               -2.2610E-01  1.6583E+01 -4.6241E+01  2.5147E+03

           1    1.19003E+01     3.0332E-01 -5.3899E-03 -2.0906E+00  2.1125E+00
ac ID =   33377                 1.1582E+00  9.0396E+00 -6.6644E-01  9.1378E+00
                               -2.2198E-01  1.6709E+01 -4.6170E+01  2.5147E+03

           1    1.20003E+01     2.9515E-01  3.0522E-03 -2.0734E+00  2.0944E+00
ac ID =   33377                -1.1321E-01  8.7239E+00  2.2394E-01  8.7275E+00
                               -2.1798E-01  1.6835E+01 -4.6097E+01  2.5147E+03

           1    1.21003E+01     2.9037E-01  4.1694E-02 -2.0607E+00  2.0815E+00
ac ID =   33377                 2.5624E-02  8.8378E+00  1.5663E-01  8.8392E+00
                               -2.1398E-01  1.6962E+01 -4.6021E+01  2.5147E+03

           1    1.22003E+01     3.0455E-01 -4.2027E-02 -2.0172E+00  2.0405E+00
ac ID =   33377                 6.0416E-01  8.8089E+00 -9.1525E-01  8.8769E+00
                               -2.0972E-01  1.7090E+01 -4.5944E+01  2.5147E+03

           1    1.23003E+01     3.0638E-01  3.1926E-02 -1.9674E+00  1.9914E+00
ac ID =   33377                 3.6284E-01  7.7739E+00 -6.2209E-01  7.8072E+00
                               -2.0581E-01  1.7219E+01 -4.5864E+01  2.5147E+03

           1    1.24003E+01     2.8459E-01  4.4992E-02 -1.9642E+00  1.9853E+00
ac ID =   33377                -8.6746E-01  8.5685E+00  7.5881E-01  8.6456E+00
                               -2.0174E-01  1.7348E+01 -4.5783E+01  2.5147E+03

           1    1.25002E+01     3.5547E-01  9.3064E-04 -1.9027E+00  1.9357E+00
ac ID =   33377                 6.1840E-01  8.8656E+00  7.2428E-01  8.9166E+00
                               -1.9744E-01  1.7479E+01 -4.5700E+01  2.5147E+03

           1    1.26002E+01     3.3100E-01 -1.2680E-02 -1.9389E+00  1.9670E+00
ac ID =   33377                 1.1598E+00  8.9748E+00 -4.4233E-01  9.0602E+00
                               -1.9330E-01  1.7610E+01 -4.5615E+01  2.5147E+03

           1    1.27002E+01     2.6041E-01  6.0561E-02 -1.8877E+00  1.9065E+00
ac ID =   33377                -1.1153E+00  7.2152E+00  1.9912E-01  7.3036E+00
                               -1.8890E-01  1.7742E+01 -4.5529E+01  2.5147E+03

           1    1.28002E+01     3.4343E-01 -7.7969E-03 -1.8229E+00  1.8549E+00
ac ID =   33377                 9.8336E-01  8.9846E+00 -3.1546E-01  9.0437E+00
                               -1.8427E-01  1.7875E+01 -4.5441E+01  2.5147E+03

           1    1.29002E+01     2.7949E-01 -2.3809E-02 -1.7813E+00  1.8032E+00
ac ID =   33377                 2.3192E+00  7.4450E+00  2.6174E-01  7.8023E+00
                               -1.7976E-01  1.8009E+01 -4.5351E+01  2.5147E+03

           1    1.30002E+01     3.0850E-01  5.3848E-02 -1.8452E+00  1.8716E+00
ac ID =   33377                -4.1562E-01  7.8758E+00  4.5032E-01  7.8996E+00
                               -1.7512E-01  1.8143E+01 -4.5259E+01  2.5147E+03

           1    1.31002E+01     3.0502E-01  1.4800E-02 -1.7819E+00  1.8079E+00
ac ID =   33377                 6.1094E-01  7.9396E+00 -1.7634E+00  8.1560E+00
                               -1.7025E-01  1.8278E+01 -4.5166E+01  2.5147E+03

           1    1.32002E+01     3.3612E-01 -4.9679E-02 -1.6326E+00  1.6676E+00
ac ID =   33377                 1.5331E+00  7.4800E+00 -1.5167E+00  7.7846E+00
                               -1.6506E-01  1.8413E+01 -4.5071E+01  2.5147E+03

           1    1.33002E+01     2.9333E-01  2.1780E-02 -1.6901E+00  1.7155E+00
ac ID =   33377                 2.1160E-01  6.9471E+00 -3.1989E-02  6.9504E+00
                               -1.6014E-01  1.8550E+01 -4.4975E+01  2.5147E+03

           1    1.34002E+01     2.9282E-01  8.5129E-02 -1.6815E+00  1.7090E+00
ac ID =   33377                -7.7893E-01  7.0480E+00  1.2804E+00  7.2056E+00
                               -1.5507E-01  1.8686E+01 -4.4877E+01  2.5147E+03

           1    1.35001E+01     3.3275E-01 -3.4414E-02 -1.6435E+00  1.6772E+00
ac ID =   33377                 1.7207E+00  7.3538E+00  4.2151E-02  7.5526E+00
                               -1.4942E-01  1.8823E+01 -4.4778E+01  2.5147E+03

           1    1.36001E+01     2.9476E-01 -4.4335E-02 -1.5492E+00  1.5776E+00
ac ID =   33377                 1.6178E+00  5.9185E+00 -1.0427E+00  6.2236E+00
                               -1.4426E-01  1.8961E+01 -4.4678E+01  2.5147E+03

           1    1.37001E+01     2.6313E-01  7.2951E-02 -1.4400E+00  1.4656E+00
ac ID =   33377                -3.2654E-01  5.5030E+00 -1.1210E-01  5.5138E+00
                               -1.3891E-01  1.9100E+01 -4.4576E+01  2.5147E+03

           1    1.38001E+01     3.0790E-01 -8.4789E-03 -1.5389E+00  1.5695E+00
ac ID =   33377                 9.7404E-01  6.5181E+00  7.2596E-01  6.6304E+00
                               -1.3318E-01  1.9239E+01 -4.4472E+01  2.5147E+03

           1    1.39001E+01     3.1959E-01 -5.8684E-02 -1.4612E+00  1.4969E+00
ac ID =   33377                 2.5466E+00  5.9206E+00  1.2177E-02  6.4450E+00
                               -1.2766E-01  1.9378E+01 -4.4367E+01  2.5147E+03

           1    1.40001E+01     2.5444E-01  3.6898E-02 -1.3726E+00  1.3965E+00
ac ID =   33377                 4.0400E-02  4.8000E+00 -1.3251E+00  4.9798E+00
                               -1.2222E-01  1.9518E+01 -4.4261E+01  2.5147E+03

           1    1.41001E+01     2.2476E-01  9.5922E-03 -1.3281E+00  1.3470E+00
ac ID =   33377                -2.7380E-01  5.1503E+00  1.4833E-01  5.1597E+00
                               -1.1643E-01  1.9659E+01 -4.4153E+01  2.5147E+03

           1    1.42001E+01     3.1660E-01 -2.5348E-02 -1.2719E+00  1.3109E+00
ac ID =   33377                 1.5929E+00  5.7262E+00  3.4687E-01  5.9537E+00
                               -1.1077E-01  1.9800E+01 -4.4044E+01  2.5147E+03

           1    1.43001E+01     2.2770E-01 -3.5625E-02 -1.2817E+00  1.3023E+00
ac ID =   33377                 8.5400E-01  4.2226E+00  6.3246E-02  4.3085E+00
                               -1.0523E-01  1.9942E+01 -4.3934E+01  2.5147E+03

           1    1.44001E+01     2.3808E-01  8.2069E-02 -1.2121E+00  1.2380E+00
ac ID =   33377                -1.7646E+00  4.6076E+00 -3.5615E-01  4.9468E+00
                               -9.9779E-02  2.0084E+01 -4.3822E+01  2.5147E+03

           1    1.45000E+01     2.9205E-01 -4.3765E-02 -1.1344E+00  1.1722E+00
ac ID =   33377                 1.0168E+00  5.1358E+00 -2.4296E-02  5.2356E+00
                               -9.4105E-02  2.0227E+01 -4.3710E+01  2.5147E+03

           1    1.46000E+01     2.6373E-01 -4.1220E-02 -1.1292E+00  1.1603E+00
ac ID =   33377                 1.7384E+00  3.9334E+00  7.2869E-01  4.3617E+00
                               -8.8470E-02  2.0370E+01 -4.3596E+01  2.5147E+03

           1    1.47000E+01     2.1892E-01  4.2211E-02 -1.1054E+00  1.1277E+00
ac ID =   33377                -8.4201E-01  3.2714E+00 -2.0330E-01  3.3842E+00
                               -8.3108E-02  2.0514E+01 -4.3481E+01  2.5147E+03

           1    1.48005E+01     2.0570E-01  1.4276E-02 -1.1086E+00  1.1276E+00
ac ID =   33377                -1.4445E-01  3.4606E+00  3.7731E-01  3.4841E+00
                               -7.7394E-02  2.0659E+01 -4.3365E+01  2.5147E+03

           1    1.49005E+01     2.8101E-01 -8.9137E-02 -9.7813E-01  1.0216E+00
ac ID =   33377                 1.6450E+00  3.4396E+00 -7.2394E-01  3.8808E+00
                               -7.1697E-02  2.0804E+01 -4.3249E+01  2.5147E+03

           1    1.50005E+01     2.1890E-01  3.4037E-02 -9.7202E-01  9.9694E-01
ac ID =   33377                -2.1919E-01  2.9482E+00 -3.3919E-01  2.9757E+00
                               -6.6402E-02  2.0949E+01 -4.3131E+01  2.5147E+03

           1    1.51005E+01     2.2155E-01  5.1075E-02 -9.5388E-01  9.8061E-01
ac ID =   33377                -1.4182E+00  3.3528E+00  6.1597E-01  3.6921E+00
                               -6.0895E-02  2.1096E+01 -4.3013E+01  2.5147E+03

           1    1.52005E+01     2.6504E-01 -1.5313E-02 -8.4919E-01  8.8972E-01
ac ID =   33377                 2.9222E-01  4.3991E+00 -3.9961E-01  4.4269E+00
                               -5.5118E-02  2.1242E+01 -4.2895E+01  2.5147E+03

           1    1.53005E+01     2.2349E-01 -7.1336E-02 -7.9110E-01  8.2515E-01
ac ID =   33377                 8.0776E-01  3.9820E+00 -3.5959E-01  4.0790E+00
                               -4.9587E-02  2.1390E+01 -4.2775E+01  2.5147E+03

           1    1.54005E+01     2.1471E-01  1.0074E-01 -8.1022E-01  8.4422E-01
ac ID =   33377                -1.9326E+00  3.5075E+00 -2.9969E-01  4.0159E+00
                               -4.4405E-02  2.1537E+01 -4.2655E+01  2.5147E+03

           1    1.55004E+01     2.2992E-01  2.1178E-02 -7.3836E-01  7.7362E-01
ac ID =   33377                -1.1933E+00  3.9363E+00  2.9729E-01  4.1239E+00
                               -3.8657E-02  2.1686E+01 -4.2535E+01  2.5147E+03

           1    1.56004E+01     1.9860E-01 -5.9572E-02 -6.8369E-01  7.1444E-01
ac ID =   33377                 1.3297E+00  3.2169E+00  2.1516E-01  3.4875E+00
                               -3.2902E-02  2.1835E+01 -4.2414E+01  2.5147E+03

           1    1.57004E+01     2.2128E-01  2.8566E-02 -6.4518E-01  6.8267E-01
ac ID =   33377                -7.3336E-01  4.2672E+00 -3.6404E-01  4.3450E+00
                               -2.7556E-02  2.1984E+01 -4.2293E+01  2.5147E+03

           1    1.58004E+01     2.2653E-01  7.0678E-02 -5.6979E-01  6.1722E-01
ac ID =   33377                -2.0385E+00  3.8813E+00  6.4797E-01  4.4317E+00
                               -2.2075E-02  2.2133E+01 -4.2171E+01  2.5147E+03

           1    1.59004E+01     2.1311E-01 -3.3911E-03 -5.5999E-01  5.9918E-01
ac ID =   33377                 2.6521E-01  4.2824E+00  1.7053E+00  4.6170E+00
                               -1.6280E-02  2.2282E+01 -4.2049E+01  2.5147E+03

           1    1.60004E+01     2.0895E-01 -3.5640E-02 -4.7466E-01  5.1984E-01
ac ID =   33377                 1.0408E-01  3.0799E+00 -1.3033E-01  3.0844E+00
                               -1.0523E-02  2.2431E+01 -4.1927E+01  2.5147E+03

           1    1.61004E+01     2.1706E-01  9.6107E-02 -3.9608E-01  4.6177E-01
ac ID =   33377                -1.9929E+00  4.1202E+00 -8.2112E-01  4.6499E+00
                               -5.2851E-03  2.2581E+01 -4.1804E+01  2.5147E+03

           1    1.62004E+01     1.3964E-01 -2.7571E-03 -3.6340E-01  3.8931E-01
ac ID =   33377                -1.1578E+00  2.8995E+00  3.4529E-02  3.1223E+00
                                5.5989E-04  2.2730E+01 -4.1682E+01  2.5147E+03

           1    1.63004E+01     1.7626E-01 -1.9460E-02 -3.8470E-01  4.2361E-01
ac ID =   33377                 4.5434E-02  2.9752E+00 -8.5556E-01  3.0961E+00
                                6.1876E-03  2.2880E+01 -4.1559E+01  2.5147E+03

           1    1.64004E+01     2.2043E-01 -3.3160E-03 -2.9999E-01  3.7228E-01
ac ID =   33377                -1.6324E-01  3.9675E+00 -1.2353E+00  4.1586E+00
                                1.1685E-02  2.3029E+01 -4.1437E+01  2.5147E+03

           1    1.65003E+01     1.6539E-01  9.7344E-02 -1.6002E-01  2.4987E-01
ac ID =   33377                -2.4191E+00  2.8803E+00  3.2060E-01  3.7750E+00
                                1.7084E-02  2.3179E+01 -4.1315E+01  2.5147E+03

           1    1.66003E+01     1.3704E-01 -2.9058E-02 -2.2199E-01  2.6249E-01
ac ID =   33377                 1.8393E-01  1.8422E+00  1.0619E-01  1.8544E+00
                                2.2879E-02  2.3329E+01 -4.1192E+01  2.5147E+03

           1    1.67003E+01     2.4314E-01 -2.9993E-02 -2.3951E-01  3.4261E-01
ac ID =   33377                 6.5421E-01  4.0559E+00  1.0191E-01  4.1096E+00
                                2.8440E-02  2.3478E+01 -4.1070E+01  2.5147E+03

           1    1.68003E+01     1.3878E-01  8.6579E-02 -1.4081E-01  2.1584E-01
ac ID =   33377                -2.1320E+00  1.7524E+00  1.3366E+00  3.0664E+00
                                3.3905E-02  2.3628E+01 -4.0948E+01  2.5147E+03

           1    1.69003E+01     1.4254E-01  6.0594E-03 -3.7464E-02  1.4750E-01
ac ID =   33377                -3.1424E-01  1.6536E+00  1.4232E-01  1.6892E+00
                                3.9426E-02  2.3779E+01 -4.0827E+01  2.5147E+03

           1    1.70003E+01     1.6977E-01 -8.6914E-03  1.1608E-02  1.7039E-01
ac ID =   33377                -3.4963E-01  2.5517E+00 -1.9632E-01  2.5830E+00
                                4.5170E-02  2.3929E+01 -4.0706E+01  2.5147E+03

           1    1.71003E+01     9.9306E-02 -2.5000E-02 -8.5350E-02  1.3331E-01
ac ID =   33377                 3.3251E-01  1.0947E+00  6.6873E-01  1.3252E+00
                                5.0573E-02  2.4079E+01 -4.0585E+01  2.5147E+03

           1    1.72003E+01     1.4424E-01  6.9267E-02 -1.1898E-02  1.6046E-01
ac ID =   33377                -1.8143E+00  7.8081E-01 -1.1847E-01  1.9787E+00
                                5.5887E-02  2.4230E+01 -4.0465E+01  2.5147E+03

           1    1.73003E+01     1.6230E-01  4.1816E-03  1.2345E-01  2.0396E-01
ac ID =   33377                 1.1596E-01  5.9214E-01 -1.5028E-01  6.2182E-01
                                6.1378E-02  2.4381E+01 -4.0346E+01  2.5147E+03

           1    1.74003E+01     1.3059E-01 -5.3889E-02  1.5076E-01  2.0661E-01
ac ID =   33377                 4.5675E-01  4.5252E-01 -4.2044E-01  7.6822E-01
                                6.6958E-02  2.4533E+01 -4.0227E+01  2.5147E+03

           1    1.75002E+01     1.3246E-01  5.2484E-02  8.7469E-02  1.6718E-01
ac ID =   33377                -1.0225E+00  1.0234E+00  4.0944E-01  1.5035E+00
                                7.2207E-02  2.4684E+01 -4.0109E+01  2.5147E+03

           1    1.76002E+01     1.1442E-01  1.8048E-02  9.9502E-02  1.5270E-01
ac ID =   33377                -6.2482E-01  4.5314E-02  1.4534E-01  6.4310E-01
                                7.7645E-02  2.4836E+01 -3.9991E+01  2.5147E+03

           1    1.77002E+01     1.6564E-01 -3.1203E-02  2.3040E-01  2.8548E-01
ac ID =   33377                 9.2862E-01  1.1737E+00  2.3323E-01  1.5147E+00
                                8.2978E-02  2.4988E+01 -3.9875E+01  2.5147E+03

           1    1.78002E+01     8.4162E-02  1.6376E-03  3.0154E-01  3.1307E-01
ac ID =   33377                 6.7853E-02 -5.0140E-01  3.9802E-01  6.4376E-01
                                8.8258E-02  2.5141E+01 -3.9759E+01  2.5147E+03

           1    1.79002E+01     9.0272E-02  4.2416E-02  2.4220E-01  2.6193E-01
ac ID =   33377                -4.7028E-01 -1.0797E+00 -1.5668E-01  1.1881E+00
                                9.3348E-02  2.5294E+01 -3.9644E+01  2.5147E+03

           1    1.80002E+01     1.7759E-01 -9.2062E-03  2.7362E-01  3.2633E-01
ac ID =   33377                 2.6148E-01  5.5763E-01 -5.8865E-01  8.5196E-01
                                9.8754E-02  2.5447E+01 -3.9530E+01  2.5147E+03

           1    1.81002E+01     8.1505E-02 -1.7616E-02  3.6674E-01  3.7610E-01
ac ID =   33377                 5.9649E-02 -1.5655E+00 -3.1889E-01  1.5987E+00
                                1.0408E-01  2.5601E+01 -3.9417E+01  2.5147E+03

           1    1.82002E+01     1.2938E-01  7.1417E-04  3.9665E-01  4.1722E-01
ac ID =   33377                -4.4967E-03 -8.8921E-01 -1.9928E-01  9.1128E-01
                                1.0923E-01  2.5756E+01 -3.9305E+01  2.5147E+03

           1    1.83002E+01     1.5034E-01  1.7392E-02  3.9633E-01  4.2424E-01
ac ID =   33377                -2.4645E-01  7.4631E-02  9.6873E-02  2.7512E-01
                                1.1425E-01  2.5911E+01 -3.9194E+01  2.5147E+03

           1    1.84002E+01     7.3836E-02 -1.0311E-02  3.9843E-01  4.0534E-01
ac ID =   33377                 3.0308E-01 -1.2996E+00  3.6729E-01  1.3841E+00
                                1.1953E-01  2.6066E+01 -3.9084E+01  2.5147E+03

           1    1.85001E+01     9.3104E-02 -6.7439E-03  4.4609E-01  4.5575E-01
ac ID =   33377                 1.1798E-01 -1.4144E+00 -4.1492E-01  1.4787E+00
                                1.2469E-01  2.6222E+01 -3.8976E+01  2.5147E+03

           1    1.86001E+01     1.4250E-01  8.1565E-03  4.7933E-01  5.0013E-01
ac ID =   33377                 1.4064E-01 -1.2188E+00 -7.5671E-02  1.2292E+00
                                1.2977E-01  2.6378E+01 -3.8869E+01  2.5147E+03

           1    1.87001E+01     9.2258E-02  6.3610E-03  5.6120E-01  5.6877E-01
ac ID =   33377                 8.1408E-02 -2.0318E+00 -1.2810E-01  2.0374E+00
                                1.3495E-01  2.6535E+01 -3.8763E+01  2.5147E+03

           1    1.88001E+01     6.0868E-02 -1.2756E-02  4.9585E-01  4.9973E-01
ac ID =   33377                 3.8802E-02 -3.0738E+00 -2.1694E-02  3.0741E+00
                                1.4018E-01  2.6692E+01 -3.8658E+01  2.5147E+03

           1    1.89001E+01     1.2995E-01  1.6920E-02  5.7709E-01  5.9178E-01
ac ID =   33377                -1.2558E-01 -1.5655E+00  1.9118E-01  1.5821E+00
                                1.4534E-01  2.6850E+01 -3.8555E+01  2.5147E+03

           1    1.90001E+01     1.0827E-01 -1.5081E-03  6.1989E-01  6.2927E-01
ac ID =   33377                 6.0180E-02 -2.3590E+00 -1.7686E-01  2.3663E+00
                                1.5067E-01  2.7008E+01 -3.8452E+01  2.5147E+03

           1    1.91001E+01     5.5239E-02  1.8014E-02  5.7947E-01  5.8238E-01
ac ID =   33377                -5.6721E-01 -2.6920E+00 -1.2069E-01  2.7538E+00
                                1.5593E-01  2.7167E+01 -3.8352E+01  2.5147E+03

           1    1.92001E+01     1.1211E-01  1.7514E-03  6.0524E-01  6.1554E-01
ac ID =   33377                 1.5200E-01 -2.1813E+00  1.5246E-01  2.1919E+00
                                1.6120E-01  2.7326E+01 -3.8252E+01  2.5147E+03

           1    1.93001E+01     8.6694E-02  7.3955E-03  6.6967E-01  6.7530E-01
ac ID =   33377                -3.7162E-01 -2.8241E+00 -5.4706E-02  2.8489E+00
                                1.6664E-01  2.7486E+01 -3.8155E+01  2.5147E+03

           1    1.94001E+01     7.5871E-02  1.3555E-02  6.6006E-01  6.6454E-01
ac ID =   33377                -3.4225E-02 -3.3699E+00 -3.3579E-01  3.3868E+00
                                1.7204E-01  2.7646E+01 -3.8059E+01  2.5147E+03

           1    1.95000E+01     5.2045E-02 -8.3282E-03  6.9194E-01  6.9394E-01
ac ID =   33377                 6.3183E-01 -3.8504E+00 -2.4251E-01  3.9094E+00
                                1.7755E-01  2.7807E+01 -3.7964E+01  2.5147E+03

           1    1.96000E+01     1.2979E-01  2.4012E-02  6.2866E-01  6.4237E-01
ac ID =   33377                -4.3854E-01 -2.8016E+00 -4.6959E-01  2.8743E+00
                                1.8305E-01  2.7968E+01 -3.7871E+01  2.5147E+03

           1    1.97005E+01     4.2100E-02 -2.3679E-03  6.7765E-01  6.7896E-01
ac ID =   33377                -2.2432E-01 -4.3503E+00 -5.0831E-01  4.3857E+00
                                1.8868E-01  2.8130E+01 -3.7778E+01  2.5147E+03

           1    1.98005E+01     6.4124E-02 -7.2750E-03  7.1334E-01  7.1625E-01
ac ID =   33377                 4.9957E-01 -3.8393E+00 -2.2343E-02  3.8717E+00
                                1.9424E-01  2.8292E+01 -3.7689E+01  2.5147E+03

           1    1.99005E+01     1.0892E-01 -1.2061E-02  7.3531E-01  7.4343E-01
ac ID =   33377                 1.4113E-01 -3.1959E+00 -2.0483E-01  3.2056E+00
                                1.9978E-01  2.8455E+01 -3.7600E+01  2.5147E+03

           1    2.00005E+01     4.2707E-02  3.5690E-02  7.0788E-01  7.1006E-01
ac ID =   33377                -6.7404E-01 -4.6676E+00 -5.1986E-02  4.7163E+00
                                2.0512E-01  2.8618E+01 -3.7513E+01  2.5147E+03

           1    2.01005E+01     7.9355E-02  1.3121E-02  6.9379E-01  6.9844E-01
ac ID =   33377                -2.9591E-01 -3.8945E+00 -4.2953E-02  3.9060E+00
                                2.1075E-01  2.8781E+01 -3.7427E+01  2.5147E+03

           1    2.02005E+01     8.3922E-02 -4.5666E-02  7.5829E-01  7.6429E-01
ac ID =   33377                 5.9379E-01 -4.0660E+00  2.5424E-02  4.1092E+00
                                2.1631E-01  2.8945E+01 -3.7344E+01  2.5147E+03

           1    2.03005E+01     4.6376E-02  9.6198E-04  7.5923E-01  7.6065E-01
ac ID =   33377                 8.0271E-02 -5.6484E+00 -1.4731E-01  5.6509E+00
                                2.2149E-01  2.9109E+01 -3.7261E+01  2.5147E+03

           1    2.04005E+01     8.0551E-02  6.1958E-02  7.3397E-01  7.4097E-01
ac ID =   33377                -1.3106E+00 -4.9263E+00  2.5176E-01  5.1038E+00
                                2.2654E-01  2.9274E+01 -3.7181E+01  2.5147E+03

           1    2.05004E+01     6.4950E-02 -3.8404E-02  7.3278E-01  7.3665E-01
ac ID =   33377                 1.0753E+00 -4.9363E+00 -2.4204E-01  5.0578E+00
                                2.3192E-01  2.9439E+01 -3.7102E+01  2.5147E+03

           1    2.06004E+01     3.3352E-02 -2.9245E-02  7.3886E-01  7.4019E-01
ac ID =   33377                 2.8038E-01 -5.7050E+00  8.8452E-02  5.7126E+00
                                2.3696E-01  2.9605E+01 -3.7025E+01  2.5147E+03

           1    2.07004E+01     8.9664E-02  4.1705E-02  7.5567E-01  7.6211E-01
ac ID =   33377                -5.3760E-01 -4.4718E+00  5.1220E-02  4.5042E+00
                                2.4166E-01  2.9771E+01 -3.6949E+01  2.5147E+03

           1    2.08004E+01     8.0781E-02 -1.3590E-03  7.6194E-01  7.6621E-01
ac ID =   33377                -2.1101E-01 -5.0539E+00 -1.1210E-01  5.0596E+00
                                2.4657E-01  2.9938E+01 -3.6875E+01  2.5147E+03

           1    2.09004E+01     4.8992E-02 -4.5763E-02  7.3979E-01  7.4282E-01
ac ID =   33377                 8.7715E-01 -5.3202E+00 -2.0329E-01  5.3958E+00
                                2.5142E-01  3.0105E+01 -3.6803E+01  2.5147E+03

           1    2.10004E+01     7.4192E-02  4.2238E-02  7.5521E-01  7.6002E-01
ac ID =   33377                -7.8884E-01 -5.3094E+00 -4.2133E-01  5.3842E+00
                                2.5590E-01  3.0272E+01 -3.6732E+01  2.5147E+03

           1    2.11004E+01     6.7432E-02  9.9792E-03  7.5250E-01  7.5558E-01
ac ID =   33377                -7.7581E-02 -5.5069E+00 -1.4798E-01  5.5095E+00
                                2.6054E-01  3.0440E+01 -3.6663E+01  2.5147E+03

           1    2.12004E+01     8.4006E-02 -1.0134E-02  7.4217E-01  7.4698E-01
ac ID =   33377                 2.7665E-01 -5.3501E+00  8.1089E-02  5.3578E+00
                                2.6512E-01  3.0608E+01 -3.6595E+01  2.5147E+03

           1    2.13004E+01     3.3261E-02 -7.0070E-03  6.9783E-01  6.9866E-01
ac ID =   33377                 2.9425E-01 -6.6298E+00 -1.3873E-01  6.6378E+00
                                2.6950E-01  3.0776E+01 -3.6529E+01  2.5147E+03

           1    2.14004E+01     1.0346E-01  5.3229E-02  6.9077E-01  7.0050E-01
ac ID =   33377                -9.9610E-01 -5.0735E+00 -3.4135E-02  5.1705E+00
                                2.7382E-01  3.0945E+01 -3.6466E+01  2.5147E+03

           1    2.15003E+01     9.3596E-02 -2.8675E-02  7.2423E-01  7.3082E-01
ac ID =   33377                 1.2127E+00 -6.1136E+00  1.1254E-02  6.2327E+00
                                2.7832E-01  3.1114E+01 -3.6403E+01  2.5147E+03

           1    2.16003E+01     5.3613E-02 -6.6836E-03  6.8510E-01  6.8723E-01
ac ID =   33377                 4.2278E-01 -6.2691E+00  1.7641E-01  6.2858E+00
                                2.8262E-01  3.1283E+01 -3.6342E+01  2.5147E+03

           1    2.17003E+01     1.0282E-01  2.2280E-02  6.2780E-01  6.3655E-01
ac ID =   33377                -3.0545E-01 -5.6559E+00 -1.6804E-01  5.6666E+00
                                2.8685E-01  3.1453E+01 -3.6282E+01  2.5147E+03

           1    2.18003E+01     6.9532E-02  2.0691E-02  6.4335E-01  6.4742E-01
ac ID =   33377                 3.3782E-02 -6.0979E+00  4.2229E-02  6.0981E+00
                                2.9107E-01  3.1623E+01 -3.6224E+01  2.5147E+03

           1    2.19003E+01     4.7165E-02 -2.3800E-02  6.5784E-01  6.5996E-01
ac ID =   33377                 1.0189E+00 -7.3758E+00 -1.1680E-01  7.4468E+00
                                2.9539E-01  3.1793E+01 -3.6168E+01  2.5147E+03

           1    2.20003E+01     7.1847E-02  2.0963E-02  6.3189E-01  6.3630E-01
ac ID =   33377                -2.5587E-01 -7.0800E+00  1.1509E-01  7.0856E+00
                                2.9955E-01  3.1963E+01 -3.6112E+01  2.5147E+03

           1    2.21003E+01     9.1334E-02  1.0885E-02  5.7390E-01  5.8123E-01
ac ID =   33377                 5.1174E-01 -6.7914E+00 -1.3386E-01  6.8120E+00
                                3.0360E-01  3.2134E+01 -3.6059E+01  2.5147E+03

           1    2.22003E+01     4.8162E-02 -3.1203E-03  5.9330E-01  5.9526E-01
ac ID =   33377                 3.2760E-01 -7.6817E+00  1.1021E-02  7.6887E+00
                                3.0773E-01  3.2305E+01 -3.6006E+01  2.5147E+03

           1    2.23003E+01     9.5185E-02  1.0606E-03  5.7715E-01  5.8495E-01
ac ID =   33377                 8.2459E-01 -7.1880E+00 -2.9590E-01  7.2412E+00
                                3.1181E-01  3.2477E+01 -3.5955E+01  2.5147E+03

           1    2.24003E+01     9.1668E-02  1.6988E-02  5.6926E-01  5.7685E-01
ac ID =   33377                 2.3673E-01 -7.3471E+00  1.4464E-01  7.3523E+00
                                3.1590E-01  3.2648E+01 -3.5905E+01  2.5147E+03

           1    2.25002E+01     7.7568E-02  9.3002E-03  5.2875E-01  5.3449E-01
ac ID =   33377                 6.4143E-01 -8.2107E+00  3.4615E-01  8.2430E+00
                                3.2003E-01  3.2820E+01 -3.5856E+01  2.5147E+03

           1    2.26002E+01     6.0980E-02 -7.7301E-03  4.9140E-01  4.9523E-01
ac ID =   33377                 8.0342E-01 -8.4932E+00 -1.2739E-02  8.5312E+00
                                3.2419E-01  3.2993E+01 -3.5808E+01  2.5147E+03

           1    2.27002E+01     7.8035E-02  1.1145E-02  5.0810E-01  5.1418E-01
ac ID =   33377                 3.8883E-01 -8.5224E+00 -2.3402E-01  8.5345E+00
                                3.2829E-01  3.3165E+01 -3.5762E+01  2.5147E+03

           1    2.28002E+01     7.0545E-02  1.4327E-02  4.9410E-01  4.9932E-01
ac ID =   33377                 2.8844E-01 -9.2352E+00 -2.5166E-01  9.2432E+00
                                3.3234E-01  3.3338E+01 -3.5716E+01  2.5147E+03

           1    2.29002E+01     7.2759E-02  8.0913E-03  4.2250E-01  4.2879E-01
ac ID =   33377                 6.7780E-01 -9.2464E+00  7.5338E-02  9.2715E+00
                                3.3648E-01  3.3511E+01 -3.5672E+01  2.5147E+03

           1    2.30002E+01     8.8091E-02 -8.0653E-03  4.1898E-01  4.2822E-01
ac ID =   33377                 9.5094E-01 -8.7999E+00  1.3548E-01  8.8522E+00
                                3.4068E-01  3.3685E+01 -3.5628E+01  2.5147E+03

           1    2.31002E+01     9.0126E-02  2.1815E-02  4.1392E-01  4.2418E-01
ac ID =   33377                 2.0866E-01 -8.9880E+00 -4.0613E-01  8.9996E+00
                                3.4469E-01  3.3858E+01 -3.5586E+01  2.5147E+03

           1    2.32002E+01     7.9689E-02  1.3948E-02  3.8458E-01  3.9300E-01
ac ID =   33377                 6.3544E-01 -9.2798E+00 -2.6297E-01  9.3052E+00
                                3.4886E-01  3.4032E+01 -3.5545E+01  2.5147E+03

           1    2.33002E+01     1.0608E-01 -2.7807E-02  3.3841E-01  3.5573E-01
ac ID =   33377                 9.1106E-01 -8.7735E+00  1.3064E-01  8.8216E+00
                                3.5316E-01  3.4206E+01 -3.5504E+01  2.5147E+03

           1    2.34002E+01     7.3007E-02  1.7227E-02  3.0128E-01  3.1048E-01
ac ID =   33377                 7.2004E-01 -9.2374E+00  2.4240E-02  9.2655E+00
                                3.5719E-01  3.4380E+01 -3.5464E+01  2.5147E+03

           1    2.35001E+01     8.1143E-02  2.7150E-02  3.0252E-01  3.1439E-01
ac ID =   33377                 1.7990E-01 -9.4491E+00  3.7113E-01  9.4581E+00
                                3.6132E-01  3.4555E+01 -3.5425E+01  2.5147E+03

           1    2.36001E+01     9.4548E-02 -1.2453E-02  2.7378E-01  2.8992E-01
ac ID =   33377                 1.0367E+00 -9.1878E+00  2.2399E-03  9.2461E+00
                                3.6562E-01  3.4729E+01 -3.5387E+01  2.5147E+03

           1    2.37001E+01     1.0022E-01 -4.9239E-03  2.2553E-01  2.4684E-01
ac ID =   33377                 6.4107E-01 -9.1490E+00 -5.7373E-01  9.1894E+00
                                3.6975E-01  3.4904E+01 -3.5350E+01  2.5147E+03

           1    2.38001E+01     1.0007E-01  2.8274E-02  2.4277E-01  2.6411E-01
ac ID =   33377                 3.1475E-01 -9.1143E+00 -1.0824E-01  9.1204E+00
                                3.7383E-01  3.5078E+01 -3.5313E+01  2.5147E+03

           1    2.39001E+01     1.1384E-01  3.6840E-03  1.9377E-01  2.2477E-01
ac ID =   33377                 6.4973E-01 -8.6579E+00  9.1096E-02  8.6827E+00
                                3.7798E-01  3.5253E+01 -3.5277E+01  2.5147E+03

           1    2.40001E+01     1.2482E-01 -2.0557E-02  1.8047E-01  2.2039E-01
ac ID =   33377                 1.1055E+00 -8.3897E+00 -6.2252E-03  8.4622E+00
                                3.8208E-01  3.5427E+01 -3.5241E+01  2.5147E+03

           1    2.41001E+01     9.4399E-02  1.6722E-02  1.7244E-01  1.9730E-01
ac ID =   33377                 5.9458E-01 -8.8369E+00  4.7143E-02  8.8570E+00
                                3.8604E-01  3.5601E+01 -3.5206E+01  2.5147E+03

           1    2.42001E+01     1.2123E-01  1.0456E-02  1.0475E-01  1.6056E-01
ac ID =   33377                 5.3251E-01 -8.7267E+00 -5.5607E-01  8.7606E+00
                                3.9002E-01  3.5776E+01 -3.5171E+01  2.5147E+03

           1    2.43001E+01     1.2306E-01 -1.5899E-02  9.6411E-02  1.5713E-01
ac ID =   33377                 1.2778E+00 -8.6612E+00 -3.0274E-01  8.7602E+00
                                3.9404E-01  3.5950E+01 -3.5137E+01  2.5147E+03

           1    2.44001E+01     1.0876E-01  8.9835E-03  8.7925E-02  1.4014E-01
ac ID =   33377                 4.7627E-01 -9.0502E+00 -5.9101E-02  9.0629E+00
                                3.9797E-01  3.6123E+01 -3.5103E+01  2.5147E+03

           1    2.45005E+01     1.3416E-01  1.8654E-02  7.4438E-02  1.5456E-01
ac ID =   33377                 4.0860E-01 -8.5599E+00 -5.6113E-01  8.5880E+00
                                4.0188E-01  3.6298E+01 -3.5069E+01  2.5147E+03

           1    2.46005E+01     1.4122E-01 -1.3037E-02  1.8273E-02  1.4299E-01
ac ID =   33377                 9.3763E-01 -8.5898E+00 -6.4040E-01  8.6645E+00
                                4.0587E-01  3.6471E+01 -3.5035E+01  2.5147E+03

           1    2.47005E+01     1.3780E-01  1.6269E-02 -1.0568E-02  1.3916E-01
ac ID =   33377                 4.3204E-01 -8.2204E+00 -2.2733E-01  8.2349E+00
                                4.0975E-01  3.6644E+01 -3.5002E+01  2.5147E+03

           1    2.48005E+01     1.3459E-01  1.2130E-02  3.3086E-03  1.3518E-01
ac ID =   33377                 3.6846E-01 -8.5118E+00 -2.0467E-01  8.5223E+00
                                4.1370E-01  3.6816E+01 -3.4968E+01  2.5147E+03

           1    2.49005E+01     1.3871E-01  1.4519E-02 -1.0342E-02  1.3985E-01
ac ID =   33377                 6.9937E-01 -8.4455E+00 -1.9507E-01  8.4767E+00
                                4.1767E-01  3.6989E+01 -3.4935E+01  2.5147E+03

