 LSTC 50th% Full_FE H-III Dummy (Beta Version, February 17, 2019)        
                    ls-dyna smp s R16 R16.0_619_d222963 date 03/18/2025

{BEGIN LEGEND}
 Entity #        Title
    22626                                                                                     
{END LEGEND}




 n o d a l   p r i n t   o u t   f o r   t i m e  s t e p       1                              ( at time 0.0000000E+00 )

 nodal point  x-disp     y-disp      z-disp      x-vel       y-vel       z-vel      x-accl      y-accl      z-accl      x-coor      y-coor      z-coor
    22626  0.00000E+00 0.00000E+00 0.00000E+00 0.00000E+00 0.00000E+00-3.12000E+00 0.00000E+00 0.00000E+00 0.00000E+00 4.79642E+01-2.20298E+01 7.33850E+00



 n o d a l   p r i n t   o u t   f o r   t i m e  s t e p       1                              ( at time 0.0000000E+00 )

 nodal point  x-rot      y-rot       z-rot       x-rot vel   y-rot vel   z-rot vel   x-rot acc   y-rot acc   z-rot acc
    22626  0.00000E+00 0.00000E+00 0.00000E+00 0.00000E+00 0.00000E+00 0.00000E+00 0.00000E+00 0.00000E+00 0.00000E+00



 n o d a l   p r i n t   o u t   f o r   t i m e  s t e p     201                              ( at time 9.9989993E-02 )

 nodal point  x-disp     y-disp      z-disp      x-vel       y-vel       z-vel      x-accl      y-accl      z-accl      x-coor      y-coor      z-coor
    22626  8.33994E-07-4.04124E-06-3.12016E-01 4.77062E-05-4.96324E-04-3.12074E+00 4.77109E-04-4.96374E-03-7.42748E-03 4.79642E+01-2.20298E+01 7.02648E+00



 n o d a l   p r i n t   o u t   f o r   t i m e  s t e p     201                              ( at time 9.9989993E-02 )

 nodal point  x-rot      y-rot       z-rot       x-rot vel   y-rot vel   z-rot vel   x-rot acc   y-rot acc   z-rot acc
    22626  9.62462E-09 3.04173E-08 5.26943E-08 1.30670E-06 2.72400E-06 5.21542E-06 1.30683E-05 2.72427E-05 5.21594E-05



 n o d a l   p r i n t   o u t   f o r   t i m e  s t e p     401                              ( at time 1.9997999E-01 )

 nodal point  x-disp     y-disp      z-disp      x-vel       y-vel       z-vel      x-accl      y-accl      z-accl      x-coor      y-coor      z-coor
    22626 -5.12736E-05-5.21498E-04-6.23853E-01-1.09598E-03-1.11135E-02-3.11558E+00-1.14380E-02-1.06182E-01 5.16156E-02 4.79641E+01-2.20303E+01 6.71465E+00



 n o d a l   p r i n t   o u t   f o r   t i m e  s t e p     401                              ( at time 1.9997999E-01 )

 nodal point  x-rot      y-rot       z-rot       x-rot vel   y-rot vel   z-rot vel   x-rot acc   y-rot acc   z-rot acc
    22626  4.60273E-07 1.33051E-06 2.50339E-06 2.66560E-06 1.90834E-05 3.50208E-05 1.35903E-05 1.63610E-04 2.98084E-04



 n o d a l   p r i n t   o u t   f o r   t i m e  s t e p     601                              ( at time 2.9996998E-01 )

 nodal point  x-disp     y-disp      z-disp      x-vel       y-vel       z-vel      x-accl      y-accl      z-accl      x-coor      y-coor      z-coor
    22626 -2.44415E-05-1.97508E-03-9.35239E-01 1.66653E-03-1.60154E-02-3.11417E+00 2.76279E-02-4.90240E-02 1.41396E-02 4.79642E+01-2.20318E+01 6.40326E+00



 n o d a l   p r i n t   o u t   f o r   t i m e  s t e p     601                              ( at time 2.9996998E-01 )

 nodal point  x-rot      y-rot       z-rot       x-rot vel   y-rot vel   z-rot vel   x-rot acc   y-rot acc   z-rot acc
    22626  6.75608E-07 2.40985E-06 4.82969E-06 8.33300E-06 5.23519E-06 1.45864E-05 5.66797E-05-1.38496E-04-2.04365E-04



 n o d a l   p r i n t   o u t   f o r   t i m e  s t e p     801                              ( at time 3.9995997E-01 )

 nodal point  x-disp     y-disp      z-disp      x-vel       y-vel       z-vel      x-accl      y-accl      z-accl      x-coor      y-coor      z-coor
    22626  6.11751E-05-3.56566E-03-1.24663E+00 2.17187E-04-1.72681E-02-3.11361E+00-1.44949E-02-1.25283E-02 5.54855E-03 4.79642E+01-2.20334E+01 6.09187E+00



 n o d a l   p r i n t   o u t   f o r   t i m e  s t e p     801                              ( at time 3.9995997E-01 )

 nodal point  x-rot      y-rot       z-rot       x-rot vel   y-rot vel   z-rot vel   x-rot acc   y-rot acc   z-rot acc
    22626  1.60324E-06 3.62171E-06 6.61827E-06 6.76744E-06 2.30266E-05 3.67804E-05-1.56572E-05 1.77932E-04 2.21963E-04



 n o d a l   p r i n t   o u t   f o r   t i m e  s t e p    1001                              ( at time 4.9994997E-01 )

 nodal point  x-disp     y-disp      z-disp      x-vel       y-vel       z-vel      x-accl      y-accl      z-accl      x-coor      y-coor      z-coor
    22626  7.41986E-05-5.60196E-03-1.55784E+00 8.54967E-04-2.35212E-02-3.11102E+00 6.37845E-03-6.25373E-02 2.59163E-02 4.79643E+01-2.20354E+01 5.78066E+00



 n o d a l   p r i n t   o u t   f o r   t i m e  s t e p    1001                              ( at time 4.9994997E-01 )

 nodal point  x-rot      y-rot       z-rot       x-rot vel   y-rot vel   z-rot vel   x-rot acc   y-rot acc   z-rot acc
    22626  1.61256E-06 6.38982E-06 1.15171E-05-3.37968E-06 4.08930E-05 6.81920E-05-1.01481E-04 1.78682E-04 3.14148E-04



 n o d a l   p r i n t   o u t   f o r   t i m e  s t e p    1201                              ( at time 5.9993996E-01 )

 nodal point  x-disp     y-disp      z-disp      x-vel       y-vel       z-vel      x-accl      y-accl      z-accl      x-coor      y-coor      z-coor
    22626  5.41008E-05-8.06354E-03-1.86892E+00-4.78190E-04-2.55926E-02-3.11112E+00-1.33329E-02-2.07156E-02-1.01100E-03 4.79642E+01-2.20379E+01 5.46958E+00



 n o d a l   p r i n t   o u t   f o r   t i m e  s t e p    1201                              ( at time 5.9993996E-01 )

 nodal point  x-rot      y-rot       z-rot       x-rot vel   y-rot vel   z-rot vel   x-rot acc   y-rot acc   z-rot acc
    22626  1.54777E-06 9.24810E-06 1.69428E-05-4.93513E-07 2.16113E-05 4.70062E-05 2.88646E-05-1.92836E-04-2.11879E-04



 n o d a l   p r i n t   o u t   f o r   t i m e  s t e p    1401                              ( at time 6.9992995E-01 )

 nodal point  x-disp     y-disp      z-disp      x-vel       y-vel       z-vel      x-accl      y-accl      z-accl      x-coor      y-coor      z-coor
    22626  3.21079E-05-1.08917E-02-2.17984E+00 8.17537E-04-3.16242E-02-3.10808E+00 1.29586E-02-6.03224E-02 3.03823E-02 4.79642E+01-2.20407E+01 5.15866E+00



 n o d a l   p r i n t   o u t   f o r   t i m e  s t e p    1401                              ( at time 6.9992995E-01 )

 nodal point  x-rot      y-rot       z-rot       x-rot vel   y-rot vel   z-rot vel   x-rot acc   y-rot acc   z-rot acc
    22626  1.57889E-06 1.18058E-05 2.11437E-05 1.07069E-07 2.96535E-05 4.91606E-05 6.00642E-06 8.04294E-05 2.15464E-05



 n o d a l   p r i n t   o u t   f o r   t i m e  s t e p    1601                              ( at time 7.9991994E-01 )

 nodal point  x-disp     y-disp      z-disp      x-vel       y-vel       z-vel      x-accl      y-accl      z-accl      x-coor      y-coor      z-coor
    22626  1.51664E-04-1.43558E-02-2.49051E+00 1.39879E-03-3.56814E-02-3.10664E+00 5.81312E-03-4.05762E-02 1.44281E-02 4.79643E+01-2.20441E+01 4.84799E+00



 n o d a l   p r i n t   o u t   f o r   t i m e  s t e p    1601                              ( at time 7.9991994E-01 )

 nodal point  x-rot      y-rot       z-rot       x-rot vel   y-rot vel   z-rot vel   x-rot acc   y-rot acc   z-rot acc
    22626  1.86947E-06 1.50139E-05 2.68829E-05 7.88468E-06 3.81964E-05 6.20972E-05 7.77839E-05 8.54376E-05 1.29379E-04



 n o d a l   p r i n t   o u t   f o r   t i m e  s t e p    1801                              ( at time 8.9990994E-01 )

 nodal point  x-disp     y-disp      z-disp      x-vel       y-vel       z-vel      x-accl      y-accl      z-accl      x-coor      y-coor      z-coor
    22626  2.28773E-04-1.78672E-02-2.80123E+00-4.58648E-04-3.49903E-02-3.10818E+00-1.85763E-02 6.91159E-03-1.54296E-02 4.79644E+01-2.20477E+01 4.53727E+00



 n o d a l   p r i n t   o u t   f o r   t i m e  s t e p    1801                              ( at time 8.9990994E-01 )

 nodal point  x-rot      y-rot       z-rot       x-rot vel   y-rot vel   z-rot vel   x-rot acc   y-rot acc   z-rot acc
    22626  2.39026E-06 1.78433E-05 3.21833E-05 3.25548E-06 2.34206E-05 4.92700E-05-4.62967E-05-1.47773E-04-1.28285E-04



 n o d a l   p r i n t   o u t   f o r   t i m e  s t e p    2001                              ( at time 9.9989993E-01 )

 nodal point  x-disp     y-disp      z-disp      x-vel       y-vel       z-vel      x-accl      y-accl      z-accl      x-coor      y-coor      z-coor
    22626  1.42023E-04-2.14209E-02-3.11204E+00-6.73553E-04-3.65978E-02-3.10864E+00-2.14927E-03-1.60759E-02-4.50418E-03 4.79643E+01-2.20512E+01 4.22646E+00



 n o d a l   p r i n t   o u t   f o r   t i m e  s t e p    2001                              ( at time 9.9989993E-01 )

 nodal point  x-rot      y-rot       z-rot       x-rot vel   y-rot vel   z-rot vel   x-rot acc   y-rot acc   z-rot acc
    22626  2.79438E-06 2.03315E-05 3.71784E-05 5.50822E-06 2.64376E-05 6.06419E-05 2.25297E-05 3.01732E-05 1.13730E-04



 n o d a l   p r i n t   o u t   f o r   t i m e  s t e p    2201                              ( at time 1.0998899E+00 )

 nodal point  x-disp     y-disp      z-disp      x-vel       y-vel       z-vel      x-accl      y-accl      z-accl      x-coor      y-coor      z-coor
    22626  1.38233E-04-2.51683E-02-3.42285E+00-6.01275E-05-3.81078E-02-3.10824E+00 6.13488E-03-1.51022E-02 3.98199E-03 4.79643E+01-2.20550E+01 3.91565E+00



 n o d a l   p r i n t   o u t   f o r   t i m e  s t e p    2201                              ( at time 1.0998899E+00 )

 nodal point  x-rot      y-rot       z-rot       x-rot vel   y-rot vel   z-rot vel   x-rot acc   y-rot acc   z-rot acc
    22626  3.58258E-06 2.29442E-05 4.29110E-05 1.28388E-05 2.30238E-05 4.20787E-05 7.33132E-05-3.41415E-05-1.85651E-04



 n o d a l   p r i n t   o u t   f o r   t i m e  s t e p    2401                              ( at time 1.1998799E+00 )

 nodal point  x-disp     y-disp      z-disp      x-vel       y-vel       z-vel      x-accl      y-accl      z-accl      x-coor      y-coor      z-coor
    22626  1.97919E-04-2.89527E-02-3.73372E+00 8.23643E-04-3.73285E-02-3.10988E+00 8.83859E-03 7.79371E-03-1.63834E-02 4.79644E+01-2.20587E+01 3.60478E+00



 n o d a l   p r i n t   o u t   f o r   t i m e  s t e p    2401                              ( at time 1.1998799E+00 )

 nodal point  x-rot      y-rot       z-rot       x-rot vel   y-rot vel   z-rot vel   x-rot acc   y-rot acc   z-rot acc
    22626  4.76372E-06 2.45376E-05 4.62646E-05 1.25878E-05 1.22534E-05 2.86462E-05-2.50984E-06-1.07715E-04-1.34338E-04



 n o d a l   p r i n t   o u t   f o r   t i m e  s t e p    2601                              ( at time 1.2998699E+00 )

 nodal point  x-disp     y-disp      z-disp      x-vel       y-vel       z-vel      x-accl      y-accl      z-accl      x-coor      y-coor      z-coor
    22626  2.11653E-04-3.25161E-02-4.04481E+00-4.15041E-04-3.35756E-02-3.11298E+00-1.23881E-02 3.75330E-02-3.10071E-02 4.79644E+01-2.20623E+01 3.29369E+00



 n o d a l   p r i n t   o u t   f o r   t i m e  s t e p    2601                              ( at time 1.2998699E+00 )

 nodal point  x-rot      y-rot       z-rot       x-rot vel   y-rot vel   z-rot vel   x-rot acc   y-rot acc   z-rot acc
    22626  5.81712E-06 2.56252E-05 4.91054E-05 5.03516E-06 1.35794E-05 3.63334E-05-7.55344E-05 1.32615E-05 7.68798E-05



 n o d a l   p r i n t   o u t   f o r   t i m e  s t e p    2801                              ( at time 1.3998599E+00 )

 nodal point  x-disp     y-disp      z-disp      x-vel       y-vel       z-vel      x-accl      y-accl      z-accl      x-coor      y-coor      z-coor
    22626  1.07585E-04-3.55979E-02-4.35628E+00-1.09250E-03-2.83343E-02-3.11679E+00-6.77532E-03 5.24181E-02-3.81174E-02 4.79643E+01-2.20654E+01 2.98222E+00



 n o d a l   p r i n t   o u t   f o r   t i m e  s t e p    2801                              ( at time 1.3998599E+00 )

 nodal point  x-rot      y-rot       z-rot       x-rot vel   y-rot vel   z-rot vel   x-rot acc   y-rot acc   z-rot acc
    22626  6.21692E-06 2.67368E-05 5.22438E-05 3.21218E-06 8.64214E-06 2.36364E-05-1.82315E-05-4.93775E-05-1.26983E-04



 n o d a l   p r i n t   o u t   f o r   t i m e  s t e p    3001                              ( at time 1.4998499E+00 )

 nodal point  x-disp     y-disp      z-disp      x-vel       y-vel       z-vel      x-accl      y-accl      z-accl      x-coor      y-coor      z-coor
    22626  1.98336E-05-3.83384E-02-4.66803E+00-3.44493E-04-2.67218E-02-3.11882E+00 7.48086E-03 1.61268E-02-2.02891E-02 4.79642E+01-2.20681E+01 2.67047E+00



 n o d a l   p r i n t   o u t   f o r   t i m e  s t e p    3001                              ( at time 1.4998499E+00 )

 nodal point  x-rot      y-rot       z-rot       x-rot vel   y-rot vel   z-rot vel   x-rot acc   y-rot acc   z-rot acc
    22626  6.56135E-06 2.70346E-05 5.37064E-05 5.32582E-06-5.12998E-06 5.21913E-06 2.11385E-05-1.37735E-04-1.84191E-04



 n o d a l   p r i n t   o u t   f o r   t i m e  s t e p    3201                              ( at time 1.5998399E+00 )

 nodal point  x-disp     y-disp      z-disp      x-vel       y-vel       z-vel      x-accl      y-accl      z-accl      x-coor      y-coor      z-coor
    22626 -2.91408E-05-4.09275E-02-4.97997E+00-8.01029E-04-2.45176E-02-3.12111E+00-4.56581E-03 2.20445E-02-2.29596E-02 4.79641E+01-2.20707E+01 2.35853E+00



 n o d a l   p r i n t   o u t   f o r   t i m e  s t e p    3201                              ( at time 1.5998399E+00 )

 nodal point  x-rot      y-rot       z-rot       x-rot vel   y-rot vel   z-rot vel   x-rot acc   y-rot acc   z-rot acc
    22626  6.93230E-06 2.65200E-05 5.34628E-05 5.45453E-06-3.66053E-06-3.33532E-06 1.28720E-06 1.46959E-05-8.55530E-05



 n o d a l   p r i n t   o u t   f o r   t i m e  s t e p    3401                              ( at time 1.6998299E+00 )

 nodal point  x-disp     y-disp      z-disp      x-vel       y-vel       z-vel      x-accl      y-accl      z-accl      x-coor      y-coor      z-coor
    22626 -1.20300E-04-4.31565E-02-5.29222E+00-1.05848E-03-1.97344E-02-3.12481E+00-2.57474E-03 4.78367E-02-3.69443E-02 4.79641E+01-2.20729E+01 2.04628E+00



 n o d a l   p r i n t   o u t   f o r   t i m e  s t e p    3401                              ( at time 1.6998299E+00 )

 nodal point  x-rot      y-rot       z-rot       x-rot vel   y-rot vel   z-rot vel   x-rot acc   y-rot acc   z-rot acc
    22626  7.29425E-06 2.60377E-05 5.33017E-05 1.87219E-06-4.98920E-06-3.26321E-06-3.58270E-05-1.32880E-05 7.21119E-07



 n o d a l   p r i n t   o u t   f o r   t i m e  s t e p    3601                              ( at time 1.7998199E+00 )

 nodal point  x-disp     y-disp      z-disp      x-vel       y-vel       z-vel      x-accl      y-accl      z-accl      x-coor      y-coor      z-coor
    22626 -2.17913E-04-4.48910E-02-5.60487E+00-1.37924E-03-1.53400E-02-3.12861E+00-3.20798E-03 4.39483E-02-3.80626E-02 4.79640E+01-2.20747E+01 1.73363E+00



 n o d a l   p r i n t   o u t   f o r   t i m e  s t e p    3601                              ( at time 1.7998199E+00 )

 nodal point  x-rot      y-rot       z-rot       x-rot vel   y-rot vel   z-rot vel   x-rot acc   y-rot acc   z-rot acc
    22626  7.62860E-06 2.53634E-05 5.29243E-05 5.16394E-06-1.15165E-05-9.47488E-06 3.29208E-05-6.52801E-05-6.21229E-05



 n o d a l   p r i n t   o u t   f o r   t i m e  s t e p    3801                              ( at time 1.8998099E+00 )

 nodal point  x-disp     y-disp      z-disp      x-vel       y-vel       z-vel      x-accl      y-accl      z-accl      x-coor      y-coor      z-coor
    22626 -4.17797E-04-4.63253E-02-5.91781E+00-2.33879E-03-1.34695E-02-3.13086E+00-9.59647E-03 1.87070E-02-2.24851E-02 4.79638E+01-2.20761E+01 1.42069E+00



 n o d a l   p r i n t   o u t   f o r   t i m e  s t e p    3801                              ( at time 1.8998099E+00 )

 nodal point  x-rot      y-rot       z-rot       x-rot vel   y-rot vel   z-rot vel   x-rot acc   y-rot acc   z-rot acc
    22626  7.88791E-06 2.39362E-05 5.13445E-05 5.51347E-06-1.67710E-05-2.16109E-05 3.49562E-06-5.25497E-05-1.21373E-04



 n o d a l   p r i n t   o u t   f o r   t i m e  s t e p    4001                              ( at time 1.9997999E+00 )

 nodal point  x-disp     y-disp      z-disp      x-vel       y-vel       z-vel      x-accl      y-accl      z-accl      x-coor      y-coor      z-coor
    22626 -6.08639E-04-4.75728E-02-6.23097E+00-1.79677E-03-1.16548E-02-3.13282E+00 5.42074E-03 1.81485E-02-1.95737E-02 4.79636E+01-2.20774E+01 1.10753E+00



 n o d a l   p r i n t   o u t   f o r   t i m e  s t e p    4001                              ( at time 1.9997999E+00 )

 nodal point  x-rot      y-rot       z-rot       x-rot vel   y-rot vel   z-rot vel   x-rot acc   y-rot acc   z-rot acc
    22626  8.35110E-06 2.21675E-05 4.89209E-05 4.71597E-06-1.69199E-05-2.53732E-05-7.97574E-06-1.48885E-06-3.76258E-05



 n o d a l   p r i n t   o u t   f o r   t i m e  s t e p    4201                              ( at time 2.0997899E+00 )

 nodal point  x-disp     y-disp      z-disp      x-vel       y-vel       z-vel      x-accl      y-accl      z-accl      x-coor      y-coor      z-coor
    22626 -7.90774E-04-4.85755E-02-6.54436E+00-2.03271E-03-8.53433E-03-3.13548E+00-2.35964E-03 3.12078E-02-2.65887E-02 4.79634E+01-2.20784E+01 7.94142E-01



 n o d a l   p r i n t   o u t   f o r   t i m e  s t e p    4201                              ( at time 2.0997899E+00 )

 nodal point  x-rot      y-rot       z-rot       x-rot vel   y-rot vel   z-rot vel   x-rot acc   y-rot acc   z-rot acc
    22626  8.75403E-06 1.99979E-05 4.56139E-05-2.75033E-07-2.29195E-05-3.99386E-05-4.99150E-05-6.00029E-05-1.45669E-04



 n o d a l   p r i n t   o u t   f o r   t i m e  s t e p    4401                              ( at time 2.1997798E+00 )

 nodal point  x-disp     y-disp      z-disp      x-vel       y-vel       z-vel      x-accl      y-accl      z-accl      x-coor      y-coor      z-coor
    22626 -1.04664E-03-4.92284E-02-6.85804E+00-2.91749E-03-4.30758E-03-3.13904E+00-8.84868E-03 4.22719E-02-3.56138E-02 4.79631E+01-2.20790E+01 4.80457E-01



 n o d a l   p r i n t   o u t   f o r   t i m e  s t e p    4401                              ( at time 2.1997798E+00 )

 nodal point  x-rot      y-rot       z-rot       x-rot vel   y-rot vel   z-rot vel   x-rot acc   y-rot acc   z-rot acc
    22626  8.56017E-06 1.76405E-05 4.17898E-05-2.65835E-06-2.30385E-05-3.74326E-05-2.38356E-05-1.19007E-06 2.50629E-05



 n o d a l   p r i n t   o u t   f o r   t i m e  s t e p    4601                              ( at time 2.2997698E+00 )

 nodal point  x-disp     y-disp      z-disp      x-vel       y-vel       z-vel      x-accl      y-accl      z-accl      x-coor      y-coor      z-coor
    22626 -1.37358E-03-4.94415E-02-7.17209E+00-3.57964E-03-6.58649E-04-3.14205E+00-6.62211E-03 3.64929E-02-3.01796E-02 4.79628E+01-2.20792E+01 1.66412E-01



 n o d a l   p r i n t   o u t   f o r   t i m e  s t e p    4601                              ( at time 2.2997698E+00 )

 nodal point  x-rot      y-rot       z-rot       x-rot vel   y-rot vel   z-rot vel   x-rot acc   y-rot acc   z-rot acc
    22626  7.88815E-06 1.55012E-05 3.81425E-05-8.04030E-06-2.62601E-05-4.20417E-05-5.38248E-05-3.22183E-05-4.60961E-05



 n o d a l   p r i n t   o u t   f o r   t i m e  s t e p    4801                              ( at time 2.3997598E+00 )

 nodal point  x-disp     y-disp      z-disp      x-vel       y-vel       z-vel      x-accl      y-accl      z-accl      x-coor      y-coor      z-coor
    22626 -1.74501E-03-4.94541E-02-7.48634E+00-3.62652E-03 4.35235E-04-3.14362E+00-4.68845E-04 1.09399E-02-1.56848E-02 4.79624E+01-2.20792E+01-1.47836E-01



 n o d a l   p r i n t   o u t   f o r   t i m e  s t e p    4801                              ( at time 2.3997598E+00 )

 nodal point  x-rot      y-rot       z-rot       x-rot vel   y-rot vel   z-rot vel   x-rot acc   y-rot acc   z-rot acc
    22626  7.00495E-06 1.28030E-05 3.32477E-05-1.09558E-05-2.57914E-05-5.22072E-05-2.91578E-05 4.68686E-06-1.01665E-04



 n o d a l   p r i n t   o u t   f o r   t i m e  s t e p    5001                              ( at time 2.4997498E+00 )

 nodal point  x-disp     y-disp      z-disp      x-vel       y-vel       z-vel      x-accl      y-accl      z-accl      x-coor      y-coor      z-coor
    22626 -2.13878E-03-4.92964E-02-7.80079E+00-4.30803E-03 3.41878E-03-3.14637E+00-6.81578E-03 2.98384E-02-2.74614E-02 4.79620E+01-2.20791E+01-4.62284E-01



 n o d a l   p r i n t   o u t   f o r   t i m e  s t e p    5001                              ( at time 2.4997498E+00 )

 nodal point  x-rot      y-rot       z-rot       x-rot vel   y-rot vel   z-rot vel   x-rot acc   y-rot acc   z-rot acc
    22626  6.10006E-06 9.80853E-06 2.76967E-05-1.02051E-05-3.19511E-05-6.14848E-05 7.50707E-06-6.16028E-05-9.27852E-05



 n o d a l   p r i n t   o u t   f o r   t i m e  s t e p    5201                              ( at time 2.5997398E+00 )

 nodal point  x-disp     y-disp      z-disp      x-vel       y-vel       z-vel      x-accl      y-accl      z-accl      x-coor      y-coor      z-coor
    22626 -2.60955E-03-4.87430E-02-8.11557E+00-5.09269E-03 7.51790E-03-3.14981E+00-7.84741E-03 4.09954E-02-3.44001E-02 4.79616E+01-2.20785E+01-7.77072E-01



 n o d a l   p r i n t   o u t   f o r   t i m e  s t e p    5201                              ( at time 2.5997398E+00 )

 nodal point  x-rot      y-rot       z-rot       x-rot vel   y-rot vel   z-rot vel   x-rot acc   y-rot acc   z-rot acc
    22626  5.05728E-06 6.39511E-06 2.14253E-05-1.04368E-05-3.60091E-05-6.63858E-05-2.31714E-06-4.05840E-05-4.90147E-05



 n o d a l   p r i n t   o u t   f o r   t i m e  s t e p    5401                              ( at time 2.6997298E+00 )

 nodal point  x-disp     y-disp      z-disp      x-vel       y-vel       z-vel      x-accl      y-accl      z-accl      x-coor      y-coor      z-coor
    22626 -3.15856E-03-4.78212E-02-8.43068E+00-6.11373E-03 1.05282E-02-3.15288E+00-1.02114E-02 3.01062E-02-3.07543E-02 4.79610E+01-2.20776E+01-1.09218E+00



 n o d a l   p r i n t   o u t   f o r   t i m e  s t e p    5401                              ( at time 2.6997298E+00 )

 nodal point  x-rot      y-rot       z-rot       x-rot vel   y-rot vel   z-rot vel   x-rot acc   y-rot acc   z-rot acc
    22626  4.16579E-06 2.91992E-06 1.50395E-05-8.30143E-06-3.56397E-05-6.20857E-05 2.13562E-05 3.69448E-06 4.30049E-05



 n o d a l   p r i n t   o u t   f o r   t i m e  s t e p    5601                              ( at time 2.7997198E+00 )

 nodal point  x-disp     y-disp      z-disp      x-vel       y-vel       z-vel      x-accl      y-accl      z-accl      x-coor      y-coor      z-coor
    22626 -3.81999E-03-4.66580E-02-8.74605E+00-6.90125E-03 1.24114E-02-3.15497E+00-7.87606E-03 1.88341E-02-2.09114E-02 4.79604E+01-2.20764E+01-1.40755E+00



 n o d a l   p r i n t   o u t   f o r   t i m e  s t e p    5601                              ( at time 2.7997198E+00 )

 nodal point  x-rot      y-rot       z-rot       x-rot vel   y-rot vel   z-rot vel   x-rot acc   y-rot acc   z-rot acc
    22626  3.28259E-06-1.30774E-06 7.73552E-06-8.05353E-06-4.93167E-05-8.56713E-05 2.47921E-06-1.36784E-04-2.35879E-04



 n o d a l   p r i n t   o u t   f o r   t i m e  s t e p    5801                              ( at time 2.8997098E+00 )

 nodal point  x-disp     y-disp      z-disp      x-vel       y-vel       z-vel      x-accl      y-accl      z-accl      x-coor      y-coor      z-coor
    22626 -4.50708E-03-4.53742E-02-9.06160E+00-6.94477E-03 1.33027E-02-3.15651E+00-4.35172E-04 8.91339E-03-1.53796E-02 4.79597E+01-2.20752E+01-1.72310E+00



 n o d a l   p r i n t   o u t   f o r   t i m e  s t e p    5801                              ( at time 2.8997098E+00 )

 nodal point  x-rot      y-rot       z-rot       x-rot vel   y-rot vel   z-rot vel   x-rot acc   y-rot acc   z-rot acc
    22626  2.64664E-06-6.54427E-06-1.38530E-06-6.32276E-06-5.09552E-05-9.39012E-05 1.73095E-05-1.63866E-05-8.23073E-05



 n o d a l   p r i n t   o u t   f o r   t i m e  s t e p    6001                              ( at time 2.9996998E+00 )

 nodal point  x-disp     y-disp      z-disp      x-vel       y-vel       z-vel      x-accl      y-accl      z-accl      x-coor      y-coor      z-coor
    22626 -5.23437E-03-4.39297E-02-9.37732E+00-7.79497E-03 1.57478E-02-3.15881E+00-8.50289E-03 2.44538E-02-2.29930E-02 4.79589E+01-2.20737E+01-2.03882E+00



 n o d a l   p r i n t   o u t   f o r   t i m e  s t e p    6001                              ( at time 2.9996998E+00 )

 nodal point  x-rot      y-rot       z-rot       x-rot vel   y-rot vel   z-rot vel   x-rot acc   y-rot acc   z-rot acc
    22626  2.02780E-06-1.16185E-05-1.04489E-05-7.28246E-06-5.15840E-05-9.29139E-05-9.59804E-06-6.28887E-06 9.87328E-06



 n o d a l   p r i n t   o u t   f o r   t i m e  s t e p    6201                              ( at time 3.0996898E+00 )

 nodal point  x-disp     y-disp      z-disp      x-vel       y-vel       z-vel      x-accl      y-accl      z-accl      x-coor      y-coor      z-coor
    22626 -6.07520E-03-4.22428E-02-9.69328E+00-8.92705E-03 1.75230E-02-3.16079E+00-1.13219E-02 1.77538E-02-1.98170E-02 4.79581E+01-2.20720E+01-2.35478E+00



 n o d a l   p r i n t   o u t   f o r   t i m e  s t e p    6201                              ( at time 3.0996898E+00 )

 nodal point  x-rot      y-rot       z-rot       x-rot vel   y-rot vel   z-rot vel   x-rot acc   y-rot acc   z-rot acc
    22626  1.03516E-06-1.69335E-05-1.99476E-05-1.20486E-05-5.53981E-05-9.85517E-05-4.76666E-05-3.81445E-05-5.63830E-05



 n o d a l   p r i n t   o u t   f o r   t i m e  s t e p    6401                              ( at time 3.1996798E+00 )

 nodal point  x-disp     y-disp      z-disp      x-vel       y-vel       z-vel      x-accl      y-accl      z-accl      x-coor      y-coor      z-coor
    22626 -6.98684E-03-4.05167E-02-1.00094E+01-9.27225E-03 1.66836E-02-3.16132E+00-3.45230E-03-8.39514E-03-5.23380E-03 4.79572E+01-2.20703E+01-2.67087E+00



 n o d a l   p r i n t   o u t   f o r   t i m e  s t e p    6401                              ( at time 3.1996798E+00 )

 nodal point  x-rot      y-rot       z-rot       x-rot vel   y-rot vel   z-rot vel   x-rot acc   y-rot acc   z-rot acc
    22626 -1.79443E-07-2.27344E-05-2.98887E-05-1.07120E-05-5.91771E-05-1.03618E-04 1.33681E-05-3.77940E-05-5.06653E-05



 n o d a l   p r i n t   o u t   f o r   t i m e  s t e p    6601                              ( at time 3.2996698E+00 )

 nodal point  x-disp     y-disp      z-disp      x-vel       y-vel       z-vel      x-accl      y-accl      z-accl      x-coor      y-coor      z-coor
    22626 -7.92222E-03-3.89431E-02-1.03255E+01-9.43746E-03 1.48160E-02-3.16099E+00-1.65232E-03-1.86779E-02 3.29766E-03 4.79563E+01-2.20687E+01-2.98695E+00



 n o d a l   p r i n t   o u t   f o r   t i m e  s t e p    6601                              ( at time 3.2996698E+00 )

 nodal point  x-rot      y-rot       z-rot       x-rot vel   y-rot vel   z-rot vel   x-rot acc   y-rot acc   z-rot acc
    22626 -1.23202E-06-2.85415E-05-4.03570E-05-1.00206E-05-5.81367E-05-1.05115E-04 6.91420E-06 1.04053E-05-1.49739E-05



 n o d a l   p r i n t   o u t   f o r   t i m e  s t e p    6801                              ( at time 3.3996598E+00 )

 nodal point  x-disp     y-disp      z-disp      x-vel       y-vel       z-vel      x-accl      y-accl      z-accl      x-coor      y-coor      z-coor
    22626 -8.88705E-03-3.75320E-02-1.06415E+01-9.85885E-03 1.34331E-02-3.16130E+00-4.21427E-03-1.38299E-02-3.13790E-03 4.79553E+01-2.20673E+01-3.30303E+00



 n o d a l   p r i n t   o u t   f o r   t i m e  s t e p    6801                              ( at time 3.3996598E+00 )

 nodal point  x-rot      y-rot       z-rot       x-rot vel   y-rot vel   z-rot vel   x-rot acc   y-rot acc   z-rot acc
    22626 -2.02146E-06-3.43642E-05-5.09819E-05-9.83102E-06-5.97381E-05-1.05014E-04 1.89613E-06-1.60156E-05 1.00957E-06



 n o d a l   p r i n t   o u t   f o r   t i m e  s t e p    7001                              ( at time 3.4996498E+00 )

 nodal point  x-disp     y-disp      z-disp      x-vel       y-vel       z-vel      x-accl      y-accl      z-accl      x-coor      y-coor      z-coor
    22626 -9.91424E-03-3.62385E-02-1.09577E+01-1.06124E-02 1.24019E-02-3.16172E+00-7.53639E-03-1.03135E-02-4.22997E-03 4.79543E+01-2.20660E+01-3.61916E+00



 n o d a l   p r i n t   o u t   f o r   t i m e  s t e p    7001                              ( at time 3.4996498E+00 )

 nodal point  x-rot      y-rot       z-rot       x-rot vel   y-rot vel   z-rot vel   x-rot acc   y-rot acc   z-rot acc
    22626 -2.79048E-06-4.02190E-05-6.09628E-05-5.65228E-06-5.80961E-05-9.76268E-05 4.17917E-05 1.64213E-05 7.38794E-05



 n o d a l   p r i n t   o u t   f o r   t i m e  s t e p    7201                              ( at time 3.5996397E+00 )

 nodal point  x-disp     y-disp      z-disp      x-vel       y-vel       z-vel      x-accl      y-accl      z-accl      x-coor      y-coor      z-coor
    22626 -1.09950E-02-3.51021E-02-1.12738E+01-1.07237E-02 9.98176E-03-3.16150E+00-1.11270E-03-2.42038E-02 2.26759E-03 4.79532E+01-2.20649E+01-3.93530E+00



 n o d a l   p r i n t   o u t   f o r   t i m e  s t e p    7201                              ( at time 3.5996397E+00 )

 nodal point  x-rot      y-rot       z-rot       x-rot vel   y-rot vel   z-rot vel   x-rot acc   y-rot acc   z-rot acc
    22626 -3.31532E-06-4.57395E-05-7.02224E-05-1.41390E-06-5.27260E-05-8.59846E-05 4.23881E-05 5.37063E-05 1.16434E-04



 n o d a l   p r i n t   o u t   f o r   t i m e  s t e p    7401                              ( at time 3.6996297E+00 )

 nodal point  x-disp     y-disp      z-disp      x-vel       y-vel       z-vel      x-accl      y-accl      z-accl      x-coor      y-coor      z-coor
    22626 -1.20500E-02-3.42482E-02-1.15899E+01-1.04303E-02 7.11833E-03-3.16085E+00 2.93355E-03-2.86371E-02 6.48801E-03 4.79521E+01-2.20640E+01-4.25137E+00



 n o d a l   p r i n t   o u t   f o r   t i m e  s t e p    7401                              ( at time 3.6996297E+00 )

 nodal point  x-rot      y-rot       z-rot       x-rot vel   y-rot vel   z-rot vel   x-rot acc   y-rot acc   z-rot acc
    22626 -3.30743E-06-5.08967E-05-7.89315E-05 8.59751E-07-5.13305E-05-8.67030E-05 2.27388E-05 1.39563E-05-7.18535E-06



 n o d a l   p r i n t   o u t   f o r   t i m e  s t e p    7601                              ( at time 3.7996197E+00 )

 nodal point  x-disp     y-disp      z-disp      x-vel       y-vel       z-vel      x-accl      y-accl      z-accl      x-coor      y-coor      z-coor
    22626 -1.30738E-02-3.36532E-02-1.19059E+01-1.01297E-02 4.86041E-03-3.16044E+00 3.00636E-03-2.25815E-02 4.06306E-03 4.79511E+01-2.20634E+01-4.56740E+00



 n o d a l   p r i n t   o u t   f o r   t i m e  s t e p    7601                              ( at time 3.7996197E+00 )

 nodal point  x-rot      y-rot       z-rot       x-rot vel   y-rot vel   z-rot vel   x-rot acc   y-rot acc   z-rot acc
    22626 -3.03927E-06-5.57227E-05-8.68901E-05 3.73465E-06-4.18793E-05-6.75919E-05 2.87519E-05 9.45222E-05 1.91130E-04



 n o d a l   p r i n t   o u t   f o r   t i m e  s t e p    7801                              ( at time 3.8996097E+00 )

 nodal point  x-disp     y-disp      z-disp      x-vel       y-vel       z-vel      x-accl      y-accl      z-accl      x-coor      y-coor      z-coor
    22626 -1.40658E-02-3.32307E-02-1.22219E+01-9.63064E-03 3.80476E-03-3.16077E+00 4.99146E-03-1.05575E-02-3.32388E-03 4.79501E+01-2.20630E+01-4.88343E+00



 n o d a l   p r i n t   o u t   f o r   t i m e  s t e p    7801                              ( at time 3.8996097E+00 )

 nodal point  x-rot      y-rot       z-rot       x-rot vel   y-rot vel   z-rot vel   x-rot acc   y-rot acc   z-rot acc
    22626 -2.69060E-06-5.94248E-05-9.26170E-05 1.63213E-06-3.00926E-05-4.41620E-05-2.10273E-05 1.17879E-04 2.34323E-04



 n o d a l   p r i n t   o u t   f o r   t i m e  s t e p    8001                              ( at time 3.9995997E+00 )

 nodal point  x-disp     y-disp      z-disp      x-vel       y-vel       z-vel      x-accl      y-accl      z-accl      x-coor      y-coor      z-coor
    22626 -1.50046E-02-3.28805E-02-1.25380E+01-9.08415E-03 3.00397E-03-3.16126E+00 5.46540E-03-8.00878E-03-4.89523E-03 4.79492E+01-2.20627E+01-5.19950E+00



 n o d a l   p r i n t   o u t   f o r   t i m e  s t e p    8001                              ( at time 3.9995997E+00 )

 nodal point  x-rot      y-rot       z-rot       x-rot vel   y-rot vel   z-rot vel   x-rot acc   y-rot acc   z-rot acc
    22626 -2.30519E-06-6.19475E-05-9.62825E-05 3.27605E-06-2.01993E-05-3.01140E-05 1.64408E-05 9.89429E-05 1.40494E-04



 n o d a l   p r i n t   o u t   f o r   t i m e  s t e p    8201                              ( at time 4.0995897E+00 )

 nodal point  x-disp     y-disp      z-disp      x-vel       y-vel       z-vel      x-accl      y-accl      z-accl      x-coor      y-coor      z-coor
    22626 -1.58394E-02-3.26838E-02-1.28541E+01-7.51789E-03 7.59410E-04-3.16093E+00 1.56642E-02-2.24478E-02 3.29289E-03 4.79483E+01-2.20625E+01-5.51558E+00



 n o d a l   p r i n t   o u t   f o r   t i m e  s t e p    8201                              ( at time 4.0995897E+00 )

 nodal point  x-rot      y-rot       z-rot       x-rot vel   y-rot vel   z-rot vel   x-rot acc   y-rot acc   z-rot acc
    22626 -1.90072E-06-6.35141E-05-9.81443E-05 4.36439E-06-6.69252E-06-4.94357E-06 1.08845E-05 1.35081E-04 2.51729E-04



 n o d a l   p r i n t   o u t   f o r   t i m e  s t e p    8401                              ( at time 4.1995797E+00 )

 nodal point  x-disp     y-disp      z-disp      x-vel       y-vel       z-vel      x-accl      y-accl      z-accl      x-coor      y-coor      z-coor
    22626 -1.65218E-02-3.27077E-02-1.31701E+01-6.06860E-03-1.09222E-03-3.16057E+00 1.44944E-02-1.85182E-02 3.65056E-03 4.79477E+01-2.20625E+01-5.83163E+00



 n o d a l   p r i n t   o u t   f o r   t i m e  s t e p    8401                              ( at time 4.1995797E+00 )

 nodal point  x-rot      y-rot       z-rot       x-rot vel   y-rot vel   z-rot vel   x-rot acc   y-rot acc   z-rot acc
    22626 -1.35653E-06-6.35524E-05-9.71846E-05 5.83584E-06 7.31667E-06 2.36645E-05 1.47159E-05 1.40106E-04 2.86110E-04



 n o d a l   p r i n t   o u t   f o r   t i m e  s t e p    8601                              ( at time 4.2995697E+00 )

 nodal point  x-disp     y-disp      z-disp      x-vel       y-vel       z-vel      x-accl      y-accl      z-accl      x-coor      y-coor      z-coor
    22626 -1.70726E-02-3.28934E-02-1.34862E+01-4.79873E-03-2.39946E-03-3.16084E+00 1.27000E-02-1.30737E-02-2.74209E-03 4.79471E+01-2.20627E+01-6.14766E+00



 n o d a l   p r i n t   o u t   f o r   t i m e  s t e p    8601                              ( at time 4.2995697E+00 )

 nodal point  x-rot      y-rot       z-rot       x-rot vel   y-rot vel   z-rot vel   x-rot acc   y-rot acc   z-rot acc
    22626 -6.12536E-07-6.19893E-05-9.35240E-05 9.52788E-06 2.19360E-05 5.08191E-05 3.69241E-05 1.46208E-04 2.71573E-04



 n o d a l   p r i n t   o u t   f o r   t i m e  s t e p    8801                              ( at time 4.3995597E+00 )

 nodal point  x-disp     y-disp      z-disp      x-vel       y-vel       z-vel      x-accl      y-accl      z-accl      x-coor      y-coor      z-coor
    22626 -1.74781E-02-3.31626E-02-1.38022E+01-3.24681E-03-3.12317E-03-3.16156E+00 1.55208E-02-7.23784E-03-7.21766E-03 4.79467E+01-2.20630E+01-6.46375E+00



 n o d a l   p r i n t   o u t   f o r   t i m e  s t e p    8801                              ( at time 4.3995597E+00 )

 nodal point  x-rot      y-rot       z-rot       x-rot vel   y-rot vel   z-rot vel   x-rot acc   y-rot acc   z-rot acc
    22626  2.75748E-07-5.88979E-05-8.67207E-05 8.27346E-06 3.95538E-05 8.38410E-05-1.25455E-05 1.76196E-04 3.30252E-04



 n o d a l   p r i n t   o u t   f o r   t i m e  s t e p    9001                              ( at time 4.4995497E+00 )

 nodal point  x-disp     y-disp      z-disp      x-vel       y-vel       z-vel      x-accl      y-accl      z-accl      x-coor      y-coor      z-coor
    22626 -1.77293E-02-3.35680E-02-1.41184E+01-1.61443E-03-5.22133E-03-3.16122E+00 1.63254E-02-2.09836E-02 3.45979E-03 4.79464E+01-2.20634E+01-6.77986E+00



 n o d a l   p r i n t   o u t   f o r   t i m e  s t e p    9001                              ( at time 4.4995497E+00 )

 nodal point  x-rot      y-rot       z-rot       x-rot vel   y-rot vel   z-rot vel   x-rot acc   y-rot acc   z-rot acc
    22626  1.23651E-06-5.40170E-05-7.66267E-05 1.27325E-05 5.49820E-05 1.13927E-04 4.45950E-05 1.54297E-04 3.00889E-04



 n o d a l   p r i n t   o u t   f o r   t i m e  s t e p    9201                              ( at time 4.5995397E+00 )

 nodal point  x-disp     y-disp      z-disp      x-vel       y-vel       z-vel      x-accl      y-accl      z-accl      x-coor      y-coor      z-coor
    22626 -1.77970E-02-3.42126E-02-1.44344E+01 1.87411E-04-7.51889E-03-3.16079E+00 1.80202E-02-2.29779E-02 4.28243E-03 4.79464E+01-2.20640E+01-7.09593E+00



 n o d a l   p r i n t   o u t   f o r   t i m e  s t e p    9201                              ( at time 4.5995397E+00 )

 nodal point  x-rot      y-rot       z-rot       x-rot vel   y-rot vel   z-rot vel   x-rot acc   y-rot acc   z-rot acc
    22626  2.53936E-06-4.78500E-05-6.40413E-05 1.37501E-05 6.86535E-05 1.35692E-04 1.01765E-05 1.36729E-04 2.17677E-04



 n o d a l   p r i n t   o u t   f o r   t i m e  s t e p    9401                              ( at time 4.6995297E+00 )

 nodal point  x-disp     y-disp      z-disp      x-vel       y-vel       z-vel      x-accl      y-accl      z-accl      x-coor      y-coor      z-coor
    22626 -1.76827E-02-3.50314E-02-1.47505E+01 2.01103E-03-8.77465E-03-3.16097E+00 1.82380E-02-1.25589E-02-1.83839E-03 4.79465E+01-2.20648E+01-7.41198E+00



 n o d a l   p r i n t   o u t   f o r   t i m e  s t e p    9401                              ( at time 4.6995297E+00 )

 nodal point  x-rot      y-rot       z-rot       x-rot vel   y-rot vel   z-rot vel   x-rot acc   y-rot acc   z-rot acc
    22626  3.80547E-06-4.00030E-05-4.86096E-05 1.18649E-05 8.81140E-05 1.70606E-04-1.88540E-05 1.94624E-04 3.49166E-04



 n o d a l   p r i n t   o u t   f o r   t i m e  s t e p    9601                              ( at time 4.7995197E+00 )

 nodal point  x-disp     y-disp      z-disp      x-vel       y-vel       z-vel      x-accl      y-accl      z-accl      x-coor      y-coor      z-coor
    22626 -1.73981E-02-3.59589E-02-1.50666E+01 3.61359E-03-9.58796E-03-3.16148E+00 1.60272E-02-8.13392E-03-5.05498E-03 4.79468E+01-2.20657E+01-7.72807E+00



 n o d a l   p r i n t   o u t   f o r   t i m e  s t e p    9601                              ( at time 4.7995197E+00 )

 nodal point  x-rot      y-rot       z-rot       x-rot vel   y-rot vel   z-rot vel   x-rot acc   y-rot acc   z-rot acc
    22626  4.93502E-06-3.02152E-05-2.98937E-05 8.26362E-06 1.07141E-04 2.03066E-04-3.60162E-05 1.90288E-04 3.24639E-04



 n o d a l   p r i n t   o u t   f o r   t i m e  s t e p    9801                              ( at time 4.8995097E+00 )

 nodal point  x-disp     y-disp      z-disp      x-vel       y-vel       z-vel      x-accl      y-accl      z-accl      x-coor      y-coor      z-coor
    22626 -1.69545E-02-3.69598E-02-1.53827E+01 5.29754E-03-1.06096E-02-3.16165E+00 1.68412E-02-1.02176E-02-1.69056E-03 4.79472E+01-2.20667E+01-8.04420E+00



 n o d a l   p r i n t   o u t   f o r   t i m e  s t e p    9801                              ( at time 4.8995097E+00 )

 nodal point  x-rot      y-rot       z-rot       x-rot vel   y-rot vel   z-rot vel   x-rot acc   y-rot acc   z-rot acc
    22626  5.73618E-06-1.87682E-05-8.38710E-06 7.53390E-06 1.20743E-04 2.24723E-04-7.29788E-06 1.36035E-04 2.16589E-04



 n o d a l   p r i n t   o u t   f o r   t i m e  s t e p   10001                              ( at time 4.9994997E+00 )

 nodal point  x-disp     y-disp      z-disp      x-vel       y-vel       z-vel      x-accl      y-accl      z-accl      x-coor      y-coor      z-coor
    22626 -1.63246E-02-3.81194E-02-1.56988E+01 7.27235E-03-1.25837E-02-3.16162E+00 1.97500E-02-1.97423E-02 3.24280E-04 4.79479E+01-2.20679E+01-8.36033E+00



 n o d a l   p r i n t   o u t   f o r   t i m e  s t e p   10001                              ( at time 4.9994997E+00 )

 nodal point  x-rot      y-rot       z-rot       x-rot vel   y-rot vel   z-rot vel   x-rot acc   y-rot acc   z-rot acc
    22626  6.41332E-06-5.97664E-06 1.53682E-05 6.15049E-06 1.34228E-04 2.49246E-04-1.38354E-05 1.34867E-04 2.45258E-04



 n o d a l   p r i n t   o u t   f o r   t i m e  s t e p   10202                              ( at time 5.0999896E+00 )

 nodal point  x-disp     y-disp      z-disp      x-vel       y-vel       z-vel      x-accl      y-accl      z-accl      x-coor      y-coor      z-coor
    22626 -1.55088E-02-3.94277E-02-1.60166E+01 8.95912E-03-1.32864E-02-3.16197E+00 1.67855E-02-6.99300E-03-3.53987E-03 4.79487E+01-2.20692E+01-8.67805E+00



 n o d a l   p r i n t   o u t   f o r   t i m e  s t e p   10202                              ( at time 5.0999896E+00 )

 nodal point  x-rot      y-rot       z-rot       x-rot vel   y-rot vel   z-rot vel   x-rot acc   y-rot acc   z-rot acc
    22626  6.90038E-06 8.39192E-06 4.15866E-05 2.16919E-06 1.47899E-04 2.71917E-04-3.96191E-05 1.36037E-04 2.25606E-04



 n o d a l   p r i n t   o u t   f o r   t i m e  s t e p   10402                              ( at time 5.1999796E+00 )

 nodal point  x-disp     y-disp      z-disp      x-vel       y-vel       z-vel      x-accl      y-accl      z-accl      x-coor      y-coor      z-coor
    22626 -1.45487E-02-4.07485E-02-1.63328E+01 1.02453E-02-1.29241E-02-3.16321E+00 1.28629E-02 3.62280E-03-1.23894E-02 4.79496E+01-2.20705E+01-8.99428E+00



 n o d a l   p r i n t   o u t   f o r   t i m e  s t e p   10402                              ( at time 5.1999796E+00 )

 nodal point  x-rot      y-rot       z-rot       x-rot vel   y-rot vel   z-rot vel   x-rot acc   y-rot acc   z-rot acc
    22626  7.18895E-06 2.39082E-05 6.96482E-05 1.17369E-06 1.57495E-04 2.88088E-04-9.95588E-06 9.59681E-05 1.61724E-04



 n o d a l   p r i n t   o u t   f o r   t i m e  s t e p   10602                              ( at time 5.2999696E+00 )

 nodal point  x-disp     y-disp      z-disp      x-vel       y-vel       z-vel      x-accl      y-accl      z-accl      x-coor      y-coor      z-coor
    22626 -1.34833E-02-4.20189E-02-1.66491E+01 1.10940E-02-1.25119E-02-3.16464E+00 8.48794E-03 4.12246E-03-1.43376E-02 4.79507E+01-2.20718E+01-9.31065E+00



 n o d a l   p r i n t   o u t   f o r   t i m e  s t e p   10602                              ( at time 5.2999696E+00 )

 nodal point  x-rot      y-rot       z-rot       x-rot vel   y-rot vel   z-rot vel   x-rot acc   y-rot acc   z-rot acc
    22626  7.25385E-06 4.03165E-05 9.92012E-05-1.44729E-06 1.65800E-04 2.99313E-04-2.62125E-05 8.30675E-05 1.12259E-04



 n o d a l   p r i n t   o u t   f o r   t i m e  s t e p   10802                              ( at time 5.3999596E+00 )

 nodal point  x-disp     y-disp      z-disp      x-vel       y-vel       z-vel      x-accl      y-accl      z-accl      x-coor      y-coor      z-coor
    22626 -1.23224E-02-4.32521E-02-1.69657E+01 1.22620E-02-1.21242E-02-3.16603E+00 1.16810E-02 3.87752E-03-1.38702E-02 4.79519E+01-2.20730E+01-9.62715E+00



 n o d a l   p r i n t   o u t   f o r   t i m e  s t e p   10802                              ( at time 5.3999596E+00 )

 nodal point  x-rot      y-rot       z-rot       x-rot vel   y-rot vel   z-rot vel   x-rot acc   y-rot acc   z-rot acc
    22626  7.22541E-06 5.72631E-05 1.29666E-04 4.62213E-07 1.69622E-04 3.00675E-04 1.90970E-05 3.82191E-05 1.36185E-05



 n o d a l   p r i n t   o u t   f o r   t i m e  s t e p   11002                              ( at time 5.4999496E+00 )

 nodal point  x-disp     y-disp      z-disp      x-vel       y-vel       z-vel      x-accl      y-accl      z-accl      x-coor      y-coor      z-coor
    22626 -1.10335E-02-4.44217E-02-1.72823E+01 1.34410E-02-1.11230E-02-3.16764E+00 1.17915E-02 1.00133E-02-1.60973E-02 4.79531E+01-2.20742E+01-9.94379E+00



 n o d a l   p r i n t   o u t   f o r   t i m e  s t e p   11002                              ( at time 5.4999496E+00 )

 nodal point  x-rot      y-rot       z-rot       x-rot vel   y-rot vel   z-rot vel   x-rot acc   y-rot acc   z-rot acc
    22626  7.25471E-06 7.45266E-05 1.60245E-04 4.48940E-08 1.73403E-04 3.05238E-04-4.17361E-06 3.78097E-05 4.56385E-05



 n o d a l   p r i n t   o u t   f o r   t i m e  s t e p   11202                              ( at time 5.5999396E+00 )

 nodal point  x-disp     y-disp      z-disp      x-vel       y-vel       z-vel      x-accl      y-accl      z-accl      x-coor      y-coor      z-coor
    22626 -9.65519E-03-4.54407E-02-1.75991E+01 1.39996E-02-9.19276E-03-3.16961E+00 5.58685E-03 1.93043E-02-1.96977E-02 4.79545E+01-2.20752E+01-1.02606E+01



 n o d a l   p r i n t   o u t   f o r   t i m e  s t e p   11202                              ( at time 5.5999396E+00 )

 nodal point  x-rot      y-rot       z-rot       x-rot vel   y-rot vel   z-rot vel   x-rot acc   y-rot acc   z-rot acc
    22626  7.09792E-06 9.19507E-05 1.91273E-04-5.04233E-06 1.75490E-04 3.11631E-04-5.08774E-05 2.08777E-05 6.39327E-05



 n o d a l   p r i n t   o u t   f o r   t i m e  s t e p   11402                              ( at time 5.6999296E+00 )

 nodal point  x-disp     y-disp      z-disp      x-vel       y-vel       z-vel      x-accl      y-accl      z-accl      x-coor      y-coor      z-coor
    22626 -8.23386E-03-4.62470E-02-1.79162E+01 1.43749E-02-6.90345E-03-3.17206E+00 3.75314E-03 2.28954E-02-2.44713E-02 4.79559E+01-2.20760E+01-1.05777E+01



 n o d a l   p r i n t   o u t   f o r   t i m e  s t e p   11402                              ( at time 5.6999296E+00 )

 nodal point  x-rot      y-rot       z-rot       x-rot vel   y-rot vel   z-rot vel   x-rot acc   y-rot acc   z-rot acc
    22626  6.62364E-06 1.09563E-04 2.22452E-04-4.91110E-06 1.76013E-04 3.06783E-04 1.31241E-06 5.22435E-06-4.84791E-05



 n o d a l   p r i n t   o u t   f o r   t i m e  s t e p   11602                              ( at time 5.7999195E+00 )

 nodal point  x-disp     y-disp      z-disp      x-vel       y-vel       z-vel      x-accl      y-accl      z-accl      x-coor      y-coor      z-coor
    22626 -6.75777E-03-4.68523E-02-1.82334E+01 1.51128E-02-5.46168E-03-3.17372E+00 7.37940E-03 1.44191E-02-1.66671E-02 4.79574E+01-2.20766E+01-1.08949E+01



 n o d a l   p r i n t   o u t   f o r   t i m e  s t e p   11602                              ( at time 5.7999195E+00 )

 nodal point  x-rot      y-rot       z-rot       x-rot vel   y-rot vel   z-rot vel   x-rot acc   y-rot acc   z-rot acc
    22626  6.00219E-06 1.26923E-04 2.53043E-04-6.47988E-06 1.70687E-04 3.04343E-04-1.56893E-05-5.32650E-05-2.44034E-05



 n o d a l   p r i n t   o u t   f o r   t i m e  s t e p   11802                              ( at time 5.8999095E+00 )

 nodal point  x-disp     y-disp      z-disp      x-vel       y-vel       z-vel      x-accl      y-accl      z-accl      x-coor      y-coor      z-coor
    22626 -5.22445E-03-4.73750E-02-1.85508E+01 1.55302E-02-4.89811E-03-3.17507E+00 4.17481E-03 5.63624E-03-1.34196E-02 4.79590E+01-2.20772E+01-1.12123E+01



 n o d a l   p r i n t   o u t   f o r   t i m e  s t e p   11802                              ( at time 5.8999095E+00 )

 nodal point  x-rot      y-rot       z-rot       x-rot vel   y-rot vel   z-rot vel   x-rot acc   y-rot acc   z-rot acc
    22626  5.36003E-06 1.44008E-04 2.83037E-04-5.76638E-06 1.68118E-04 2.97428E-04 7.13570E-06-2.56835E-05-6.91580E-05



 n o d a l   p r i n t   o u t   f o r   t i m e  s t e p   12002                              ( at time 5.9998995E+00 )

 nodal point  x-disp     y-disp      z-disp      x-vel       y-vel       z-vel      x-accl      y-accl      z-accl      x-coor      y-coor      z-coor
    22626 -3.66033E-03-4.78089E-02-1.88684E+01 1.54914E-02-3.72533E-03-3.17652E+00-3.88093E-04 1.17290E-02-1.45641E-02 4.79605E+01-2.20776E+01-1.15299E+01



 n o d a l   p r i n t   o u t   f o r   t i m e  s t e p   12002                              ( at time 5.9998995E+00 )

 nodal point  x-rot      y-rot       z-rot       x-rot vel   y-rot vel   z-rot vel   x-rot acc   y-rot acc   z-rot acc
    22626  4.66723E-06 1.60577E-04 3.12225E-04-7.55590E-06 1.64485E-04 2.86432E-04-1.78970E-05-3.63395E-05-1.09968E-04



 n o d a l   p r i n t   o u t   f o r   t i m e  s t e p   12202                              ( at time 6.0998895E+00 )

 nodal point  x-disp     y-disp      z-disp      x-vel       y-vel       z-vel      x-accl      y-accl      z-accl      x-coor      y-coor      z-coor
    22626 -2.13265E-03-4.81191E-02-1.91861E+01 1.51857E-02-2.31190E-03-3.17843E+00-3.05708E-03 1.41357E-02-1.90491E-02 4.79620E+01-2.20779E+01-1.18476E+01



 n o d a l   p r i n t   o u t   f o r   t i m e  s t e p   12202                              ( at time 6.0998895E+00 )

 nodal point  x-rot      y-rot       z-rot       x-rot vel   y-rot vel   z-rot vel   x-rot acc   y-rot acc   z-rot acc
    22626  4.00483E-06 1.76503E-04 3.40211E-04-5.30617E-06 1.55158E-04 2.73340E-04 2.24995E-05-9.32734E-05-1.30934E-04



 n o d a l   p r i n t   o u t   f o r   t i m e  s t e p   12402                              ( at time 6.1998795E+00 )

 nodal point  x-disp     y-disp      z-disp      x-vel       y-vel       z-vel      x-accl      y-accl      z-accl      x-coor      y-coor      z-coor
    22626 -6.48841E-04-4.83115E-02-1.95040E+01 1.45688E-02-1.65167E-03-3.17991E+00-6.16952E-03 6.60294E-03-1.48001E-02 4.79635E+01-2.20781E+01-1.21655E+01



 n o d a l   p r i n t   o u t   f o r   t i m e  s t e p   12402                              ( at time 6.1998795E+00 )

 nodal point  x-rot      y-rot       z-rot       x-rot vel   y-rot vel   z-rot vel   x-rot acc   y-rot acc   z-rot acc
    22626  3.42474E-06 1.91678E-04 3.66869E-04-3.65499E-06 1.46749E-04 2.60885E-04 1.65135E-05-8.41015E-05-1.24569E-04



 n o d a l   p r i n t   o u t   f o r   t i m e  s t e p   12602                              ( at time 6.2998695E+00 )

 nodal point  x-disp     y-disp      z-disp      x-vel       y-vel       z-vel      x-accl      y-accl      z-accl      x-coor      y-coor      z-coor
    22626  7.88960E-04-4.84370E-02-1.98220E+01 1.41646E-02-8.17847E-04-3.18134E+00-4.04265E-03 8.33907E-03-1.43209E-02 4.79650E+01-2.20782E+01-1.24835E+01



 n o d a l   p r i n t   o u t   f o r   t i m e  s t e p   12602                              ( at time 6.2998695E+00 )

 nodal point  x-rot      y-rot       z-rot       x-rot vel   y-rot vel   z-rot vel   x-rot acc   y-rot acc   z-rot acc
    22626  2.97650E-06 2.05866E-04 3.92066E-04-4.82847E-06 1.37551E-04 2.41833E-04-1.17360E-05-9.19864E-05-1.90534E-04



 n o d a l   p r i n t   o u t   f o r   t i m e  s t e p   12802                              ( at time 6.3998595E+00 )

 nodal point  x-disp     y-disp      z-disp      x-vel       y-vel       z-vel      x-accl      y-accl      z-accl      x-coor      y-coor      z-coor
    22626  2.16659E-03-4.84791E-02-2.01402E+01 1.35374E-02 1.78720E-04-3.18300E+00-6.27291E-03 9.96668E-03-1.65861E-02 4.79663E+01-2.20783E+01-1.28017E+01



 n o d a l   p r i n t   o u t   f o r   t i m e  s t e p   12802                              ( at time 6.3998595E+00 )

 nodal point  x-rot      y-rot       z-rot       x-rot vel   y-rot vel   z-rot vel   x-rot acc   y-rot acc   z-rot acc
    22626  2.54744E-06 2.19310E-04 4.15684E-04-3.06855E-06 1.30009E-04 2.31223E-04 1.76010E-05-7.54295E-05-1.06110E-04



 n o d a l   p r i n t   o u t   f o r   t i m e  s t e p   13002                              ( at time 6.4998495E+00 )

 nodal point  x-disp     y-disp      z-disp      x-vel       y-vel       z-vel      x-accl      y-accl      z-accl      x-coor      y-coor      z-coor
    22626  3.47981E-03-4.83625E-02-2.04586E+01 1.27834E-02 2.11748E-03-3.18508E+00-7.54097E-03 1.93896E-02-2.08828E-02 4.79677E+01-2.20782E+01-1.31201E+01



 n o d a l   p r i n t   o u t   f o r   t i m e  s t e p   13002                              ( at time 6.4998495E+00 )

 nodal point  x-rot      y-rot       z-rot       x-rot vel   y-rot vel   z-rot vel   x-rot acc   y-rot acc   z-rot acc
    22626  2.28966E-06 2.31959E-04 4.38239E-04-3.07827E-06 1.24192E-04 2.20819E-04-9.72348E-08-5.81763E-05-1.04053E-04



 n o d a l   p r i n t   o u t   f o r   t i m e  s t e p   13202                              ( at time 6.5998395E+00 )

 nodal point  x-disp     y-disp      z-disp      x-vel       y-vel       z-vel      x-accl      y-accl      z-accl      x-coor      y-coor      z-coor
    22626  4.71363E-03-4.80798E-02-2.07771E+01 1.19212E-02 3.55924E-03-3.18640E+00-8.62205E-03 1.44190E-02-1.31167E-02 4.79689E+01-2.20779E+01-1.34386E+01



 n o d a l   p r i n t   o u t   f o r   t i m e  s t e p   13202                              ( at time 6.5998395E+00 )

 nodal point  x-rot      y-rot       z-rot       x-rot vel   y-rot vel   z-rot vel   x-rot acc   y-rot acc   z-rot acc
    22626  1.55622E-06 2.43810E-04 4.59592E-04-5.00517E-06 1.11863E-04 2.03423E-04-1.92708E-05-1.23301E-04-1.73976E-04



 n o d a l   p r i n t   o u t   f o r   t i m e  s t e p   13402                              ( at time 6.6998295E+00 )

 nodal point  x-disp     y-disp      z-disp      x-vel       y-vel       z-vel      x-accl      y-accl      z-accl      x-coor      y-coor      z-coor
    22626  5.86687E-03-4.76342E-02-2.10957E+01 1.12305E-02 5.40384E-03-3.18489E+00-6.90772E-03 1.84479E-02 1.50219E-02 4.79700E+01-2.20774E+01-1.37572E+01



 n o d a l   p r i n t   o u t   f o r   t i m e  s t e p   13402                              ( at time 6.6998295E+00 )

 nodal point  x-rot      y-rot       z-rot       x-rot vel   y-rot vel   z-rot vel   x-rot acc   y-rot acc   z-rot acc
    22626  2.49164E-06 2.54697E-04 4.78815E-04 3.06391E-05 1.09198E-04 1.81996E-04 3.56479E-04-2.66582E-05-2.14295E-04



 n o d a l   p r i n t   o u t   f o r   t i m e  s t e p   13602                              ( at time 6.7998195E+00 )

 nodal point  x-disp     y-disp      z-disp      x-vel       y-vel       z-vel      x-accl      y-accl      z-accl      x-coor      y-coor      z-coor
    22626  6.93563E-03-4.69706E-02-2.14139E+01 1.04158E-02 7.88332E-03-3.18038E+00-8.14864E-03 2.47973E-02 4.51157E-02 4.79711E+01-2.20768E+01-1.40754E+01



 n o d a l   p r i n t   o u t   f o r   t i m e  s t e p   13602                              ( at time 6.7998195E+00 )

 nodal point  x-rot      y-rot       z-rot       x-rot vel   y-rot vel   z-rot vel   x-rot acc   y-rot acc   z-rot acc
    22626  8.72252E-06 2.66043E-04 4.95770E-04 9.38463E-05 1.21368E-04 1.59942E-04 6.32136E-04 1.21720E-04-2.20555E-04



 n o d a l   p r i n t   o u t   f o r   t i m e  s t e p   13802                              ( at time 6.8998095E+00 )

 nodal point  x-disp     y-disp      z-disp      x-vel       y-vel       z-vel      x-accl      y-accl      z-accl      x-coor      y-coor      z-coor
    22626  7.92827E-03-4.60493E-02-2.17316E+01 9.34638E-03 1.04378E-02-3.17360E+00-1.06949E-02 2.55478E-02 6.78608E-02 4.79721E+01-2.20758E+01-1.43931E+01



 n o d a l   p r i n t   o u t   f o r   t i m e  s t e p   13802                              ( at time 6.8998095E+00 )

 nodal point  x-rot      y-rot       z-rot       x-rot vel   y-rot vel   z-rot vel   x-rot acc   y-rot acc   z-rot acc
    22626  2.19425E-05 2.78820E-04 5.10285E-04 1.71249E-04 1.34907E-04 1.32054E-04 7.74107E-04 1.35402E-04-2.78907E-04



 n o d a l   p r i n t   o u t   f o r   t i m e  s t e p   14002                              ( at time 6.9997995E+00 )

 nodal point  x-disp     y-disp      z-disp      x-vel       y-vel       z-vel      x-accl      y-accl      z-accl      x-coor      y-coor      z-coor
    22626  8.81412E-03-4.48385E-02-2.20485E+01 8.44628E-03 1.35809E-02-3.16249E+00-9.00189E-03 3.14334E-02 1.11136E-01 4.79730E+01-2.20746E+01-1.47100E+01



 n o d a l   p r i n t   o u t   f o r   t i m e  s t e p   14002                              ( at time 6.9997995E+00 )

 nodal point  x-rot      y-rot       z-rot       x-rot vel   y-rot vel   z-rot vel   x-rot acc   y-rot acc   z-rot acc
    22626  4.42295E-05 2.93514E-04 5.22320E-04 2.79397E-04 1.61298E-04 1.10400E-04 1.08158E-03 2.63930E-04-2.16570E-04



 n o d a l   p r i n t   o u t   f o r   t i m e  s t e p   14202                              ( at time 7.0997895E+00 )

 nodal point  x-disp     y-disp      z-disp      x-vel       y-vel       z-vel      x-accl      y-accl      z-accl      x-coor      y-coor      z-coor
    22626  9.58638E-03-4.33181E-02-2.23639E+01 7.03086E-03 1.70885E-02-3.14593E+00-1.41556E-02 3.50795E-02 1.65521E-01 4.79738E+01-2.20731E+01-1.50254E+01



 n o d a l   p r i n t   o u t   f o r   t i m e  s t e p   14202                              ( at time 7.0997895E+00 )

 nodal point  x-rot      y-rot       z-rot       x-rot vel   y-rot vel   z-rot vel   x-rot acc   y-rot acc   z-rot acc
    22626  7.98222E-05 3.12041E-04 5.32560E-04 4.38429E-04 2.11835E-04 9.39472E-05 1.59048E-03 5.05427E-04-1.64541E-04



 n o d a l   p r i n t   o u t   f o r   t i m e  s t e p   14402                              ( at time 7.1997794E+00 )

 nodal point  x-disp     y-disp      z-disp      x-vel       y-vel       z-vel      x-accl      y-accl      z-accl      x-coor      y-coor      z-coor
    22626  1.02144E-02-4.14612E-02-2.26775E+01 5.36541E-03 1.97733E-02-3.12563E+00-1.66562E-02 2.68508E-02 2.03070E-01 4.79744E+01-2.20713E+01-1.53390E+01



 n o d a l   p r i n t   o u t   f o r   t i m e  s t e p   14402                              ( at time 7.1997794E+00 )

 nodal point  x-rot      y-rot       z-rot       x-rot vel   y-rot vel   z-rot vel   x-rot acc   y-rot acc   z-rot acc
    22626  1.31778E-04 3.37209E-04 5.41111E-04 5.98183E-04 3.00897E-04 7.87982E-05 1.59770E-03 8.90709E-04-1.51505E-04



 n o d a l   p r i n t   o u t   f o r   t i m e  s t e p   14602                              ( at time 7.2997694E+00 )

 nodal point  x-disp     y-disp      z-disp      x-vel       y-vel       z-vel      x-accl      y-accl      z-accl      x-coor      y-coor      z-coor
    22626  1.06232E-02-3.94335E-02-2.29888E+01 2.50450E-03 2.14664E-02-3.10100E+00-2.86120E-02 1.69328E-02 2.46278E-01 4.79748E+01-2.20692E+01-1.56503E+01



 n o d a l   p r i n t   o u t   f o r   t i m e  s t e p   14602                              ( at time 7.2997694E+00 )

 nodal point  x-rot      y-rot       z-rot       x-rot vel   y-rot vel   z-rot vel   x-rot acc   y-rot acc   z-rot acc
    22626  2.00335E-04 3.73211E-04 5.49093E-04 7.85738E-04 4.20660E-04 7.87639E-05 1.87574E-03 1.19775E-03-3.42878E-07



 n o d a l   p r i n t   o u t   f o r   t i m e  s t e p   14802                              ( at time 7.3997594E+00 )

 nodal point  x-disp     y-disp      z-disp      x-vel       y-vel       z-vel      x-accl      y-accl      z-accl      x-coor      y-coor      z-coor
    22626  1.07010E-02-3.70760E-02-2.32974E+01-1.05052E-03 2.56145E-02-3.07173E+00-3.55538E-02 4.14849E-02 2.92765E-01 4.79749E+01-2.20669E+01-1.59589E+01



 n o d a l   p r i n t   o u t   f o r   t i m e  s t e p   14802                              ( at time 7.3997594E+00 )

 nodal point  x-rot      y-rot       z-rot       x-rot vel   y-rot vel   z-rot vel   x-rot acc   y-rot acc   z-rot acc
    22626  2.90909E-04 4.22849E-04 5.56978E-04 1.02716E-03 5.70844E-04 8.32382E-05 2.41448E-03 1.50199E-03 4.47470E-05



 n o d a l   p r i n t   o u t   f o r   t i m e  s t e p   15002                              ( at time 7.4997494E+00 )

 nodal point  x-disp     y-disp      z-disp      x-vel       y-vel       z-vel      x-accl      y-accl      z-accl      x-coor      y-coor      z-coor
    22626  1.04472E-02-3.43878E-02-2.36029E+01-3.86606E-03 2.78868E-02-3.03750E+00-2.81581E-02 2.27254E-02 3.42388E-01 4.79746E+01-2.20642E+01-1.62644E+01



 n o d a l   p r i n t   o u t   f o r   t i m e  s t e p   15002                              ( at time 7.4997494E+00 )

 nodal point  x-rot      y-rot       z-rot       x-rot vel   y-rot vel   z-rot vel   x-rot acc   y-rot acc   z-rot acc
    22626  4.05458E-04 4.88292E-04 5.65911E-04 1.27024E-03 7.43575E-04 9.30477E-05 2.43104E-03 1.72748E-03 9.81042E-05



 n o d a l   p r i n t   o u t   f o r   t i m e  s t e p   15202                              ( at time 7.5997394E+00 )

 nodal point  x-disp     y-disp      z-disp      x-vel       y-vel       z-vel      x-accl      y-accl      z-accl      x-coor      y-coor      z-coor
    22626  9.90182E-03-3.15588E-02-2.39048E+01-7.01337E-03 2.83274E-02-2.99977E+00-3.14762E-02 4.40694E-03 3.77297E-01 4.79741E+01-2.20613E+01-1.65663E+01



 n o d a l   p r i n t   o u t   f o r   t i m e  s t e p   15202                              ( at time 7.5997394E+00 )

 nodal point  x-rot      y-rot       z-rot       x-rot vel   y-rot vel   z-rot vel   x-rot acc   y-rot acc   z-rot acc
    22626  5.45135E-04 5.72391E-04 5.75276E-04 1.52186E-03 9.54595E-04 1.01437E-04 2.51641E-03 2.11042E-03 8.39012E-05



 n o d a l   p r i n t   o u t   f o r   t i m e  s t e p   15402                              ( at time 7.6997294E+00 )

 nodal point  x-disp     y-disp      z-disp      x-vel       y-vel       z-vel      x-accl      y-accl      z-accl      x-coor      y-coor      z-coor
    22626  9.06685E-03-2.85569E-02-2.42026E+01-8.75546E-03 3.06533E-02-2.95820E+00-1.74227E-02 2.32608E-02 4.15775E-01 4.79732E+01-2.20583E+01-1.68641E+01



 n o d a l   p r i n t   o u t   f o r   t i m e  s t e p   15402                              ( at time 7.6997294E+00 )

 nodal point  x-rot      y-rot       z-rot       x-rot vel   y-rot vel   z-rot vel   x-rot acc   y-rot acc   z-rot acc
    22626  7.12317E-04 6.78525E-04 5.84545E-04 1.80490E-03 1.17289E-03 1.02489E-04 2.83074E-03 2.18321E-03 1.05168E-05



 n o d a l   p r i n t   o u t   f o r   t i m e  s t e p   15602                              ( at time 7.7997194E+00 )

 nodal point  x-disp     y-disp      z-disp      x-vel       y-vel       z-vel      x-accl      y-accl      z-accl      x-coor      y-coor      z-coor
    22626  8.08759E-03-2.53924E-02-2.44962E+01-1.07018E-02 3.24080E-02-2.91241E+00-1.94658E-02 1.75495E-02 4.57903E-01 4.79723E+01-2.20552E+01-1.71577E+01



 n o d a l   p r i n t   o u t   f o r   t i m e  s t e p   15602                              ( at time 7.7997194E+00 )

 nodal point  x-rot      y-rot       z-rot       x-rot vel   y-rot vel   z-rot vel   x-rot acc   y-rot acc   z-rot acc
    22626  9.06995E-04 8.08913E-04 5.94811E-04 2.07893E-03 1.42933E-03 1.05513E-04 2.74054E-03 2.56465E-03 3.02446E-05



 n o d a l   p r i n t   o u t   f o r   t i m e  s t e p   15802                              ( at time 7.8997094E+00 )

 nodal point  x-disp     y-disp      z-disp      x-vel       y-vel       z-vel      x-accl      y-accl      z-accl      x-coor      y-coor      z-coor
    22626  6.99402E-03-2.21020E-02-2.47851E+01-1.11128E-02 3.35825E-02-2.86611E+00-4.11026E-03 1.17454E-02 4.63010E-01 4.79712E+01-2.20519E+01-1.74466E+01



 n o d a l   p r i n t   o u t   f o r   t i m e  s t e p   15802                              ( at time 7.8997094E+00 )

 nodal point  x-rot      y-rot       z-rot       x-rot vel   y-rot vel   z-rot vel   x-rot acc   y-rot acc   z-rot acc
    22626  1.12968E-03 9.64758E-04 6.05721E-04 2.37190E-03 1.68861E-03 9.63876E-05 2.92995E-03 2.59305E-03-9.12601E-05



 n o d a l   p r i n t   o u t   f o r   t i m e  s t e p   16002                              ( at time 7.9996994E+00 )

 nodal point  x-disp     y-disp      z-disp      x-vel       y-vel       z-vel      x-accl      y-accl      z-accl      x-coor      y-coor      z-coor
    22626  5.93935E-03-1.87273E-02-2.50691E+01-1.00214E-02 3.42304E-02-2.81584E+00 1.09150E-02 6.47980E-03 5.02787E-01 4.79701E+01-2.20485E+01-1.77306E+01



 n o d a l   p r i n t   o u t   f o r   t i m e  s t e p   16002                              ( at time 7.9996994E+00 )

 nodal point  x-rot      y-rot       z-rot       x-rot vel   y-rot vel   z-rot vel   x-rot acc   y-rot acc   z-rot acc
    22626  1.38202E-03 1.14763E-03 6.15466E-04 2.66968E-03 1.96663E-03 9.18085E-05 2.97817E-03 2.78040E-03-4.57954E-05



 n o d a l   p r i n t   o u t   f o r   t i m e  s t e p   16202                              ( at time 8.0996894E+00 )

 nodal point  x-disp     y-disp      z-disp      x-vel       y-vel       z-vel      x-accl      y-accl      z-accl      x-coor      y-coor      z-coor
    22626  4.99693E-03-1.52410E-02-2.53480E+01-8.74753E-03 3.50709E-02-2.76269E+00 1.27404E-02 8.40611E-03 5.31522E-01 4.79692E+01-2.20450E+01-1.80095E+01



 n o d a l   p r i n t   o u t   f o r   t i m e  s t e p   16202                              ( at time 8.0996894E+00 )

 nodal point  x-rot      y-rot       z-rot       x-rot vel   y-rot vel   z-rot vel   x-rot acc   y-rot acc   z-rot acc
    22626  1.66432E-03 1.35894E-03 6.25284E-04 2.99298E-03 2.24714E-03 1.06029E-04 3.23326E-03 2.80544E-03 1.42216E-04



 n o d a l   p r i n t   o u t   f o r   t i m e  s t e p   16402                              ( at time 8.1996794E+00 )

 nodal point  x-disp     y-disp      z-disp      x-vel       y-vel       z-vel      x-accl      y-accl      z-accl      x-coor      y-coor      z-coor
    22626  4.15807E-03-1.16898E-02-2.56214E+01-7.51315E-03 3.62000E-02-2.70600E+00 1.23450E-02 1.12919E-02 5.67036E-01 4.79683E+01-2.20415E+01-1.82829E+01



 n o d a l   p r i n t   o u t   f o r   t i m e  s t e p   16402                              ( at time 8.1996794E+00 )

 nodal point  x-rot      y-rot       z-rot       x-rot vel   y-rot vel   z-rot vel   x-rot acc   y-rot acc   z-rot acc
    22626  1.97873E-03 1.59693E-03 6.36460E-04 3.29988E-03 2.54147E-03 1.01052E-04 3.06932E-03 2.94359E-03-4.97705E-05



 n o d a l   p r i n t   o u t   f o r   t i m e  s t e p   16602                              ( at time 8.2996694E+00 )

 nodal point  x-disp     y-disp      z-disp      x-vel       y-vel       z-vel      x-accl      y-accl      z-accl      x-coor      y-coor      z-coor
    22626  3.59302E-03-7.99632E-03-2.58891E+01-4.13442E-03 3.68096E-02-2.64867E+00 3.37907E-02 6.09657E-03 5.73364E-01 4.79678E+01-2.20378E+01-1.85506E+01



 n o d a l   p r i n t   o u t   f o r   t i m e  s t e p   16602                              ( at time 8.2996694E+00 )

 nodal point  x-rot      y-rot       z-rot       x-rot vel   y-rot vel   z-rot vel   x-rot acc   y-rot acc   z-rot acc
    22626  2.32463E-03 1.86459E-03 6.46065E-04 3.61954E-03 2.81644E-03 1.04972E-04 3.19698E-03 2.74996E-03 3.92052E-05



 n o d a l   p r i n t   o u t   f o r   t i m e  s t e p   16802                              ( at time 8.3996594E+00 )

 nodal point  x-disp     y-disp      z-disp      x-vel       y-vel       z-vel      x-accl      y-accl      z-accl      x-coor      y-coor      z-coor
    22626  3.31939E-03-4.28120E-03-2.61509E+01-1.16043E-03 3.69465E-02-2.58672E+00 2.97430E-02 1.36907E-03 6.19498E-01 4.79675E+01-2.20341E+01-1.88124E+01



 n o d a l   p r i n t   o u t   f o r   t i m e  s t e p   16802                              ( at time 8.3996594E+00 )

 nodal point  x-rot      y-rot       z-rot       x-rot vel   y-rot vel   z-rot vel   x-rot acc   y-rot acc   z-rot acc
    22626  2.70230E-03 2.16070E-03 6.56689E-04 3.93863E-03 3.10960E-03 1.16104E-04 3.19118E-03 2.93191E-03 1.11329E-04



 n o d a l   p r i n t   o u t   f o r   t i m e  s t e p   17002                              ( at time 8.4996494E+00 )

 nodal point  x-disp     y-disp      z-disp      x-vel       y-vel       z-vel      x-accl      y-accl      z-accl      x-coor      y-coor      z-coor
    22626  3.43676E-03-6.37592E-04-2.64064E+01 3.47867E-03 3.62047E-02-2.52310E+00 4.63957E-02-7.41877E-03 6.36253E-01 4.79676E+01-2.20304E+01-1.90679E+01



 n o d a l   p r i n t   o u t   f o r   t i m e  s t e p   17002                              ( at time 8.4996494E+00 )

 nodal point  x-rot      y-rot       z-rot       x-rot vel   y-rot vel   z-rot vel   x-rot acc   y-rot acc   z-rot acc
    22626  3.11206E-03 2.48563E-03 6.67836E-04 4.23873E-03 3.39747E-03 1.16485E-04 3.00129E-03 2.87902E-03 3.81575E-06



 n o d a l   p r i n t   o u t   f o r   t i m e  s t e p   17202                              ( at time 8.5996394E+00 )

 nodal point  x-disp     y-disp      z-disp      x-vel       y-vel       z-vel      x-accl      y-accl      z-accl      x-coor      y-coor      z-coor
    22626  3.97212E-03 2.83097E-03-2.66555E+01 7.82735E-03 3.43320E-02-2.45779E+00 4.34912E-02-1.87292E-02 6.53168E-01 4.79682E+01-2.20270E+01-1.93169E+01



 n o d a l   p r i n t   o u t   f o r   t i m e  s t e p   17202                              ( at time 8.5996394E+00 )

 nodal point  x-rot      y-rot       z-rot       x-rot vel   y-rot vel   z-rot vel   x-rot acc   y-rot acc   z-rot acc
    22626  3.55095E-03 2.84086E-03 6.79398E-04 4.55064E-03 3.69575E-03 1.16255E-04 3.11939E-03 2.98306E-03-2.30271E-06



 n o d a l   p r i n t   o u t   f o r   t i m e  s t e p   17402                              ( at time 8.6996293E+00 )

 nodal point  x-disp     y-disp      z-disp      x-vel       y-vel       z-vel      x-accl      y-accl      z-accl      x-coor      y-coor      z-coor
    22626  5.03186E-03 6.14738E-03-2.68978E+01 1.27469E-02 3.20384E-02-2.38854E+00 4.91995E-02-2.29379E-02 6.92569E-01 4.79692E+01-2.20236E+01-1.95593E+01



 n o d a l   p r i n t   o u t   f o r   t i m e  s t e p   17402                              ( at time 8.6996293E+00 )

 nodal point  x-rot      y-rot       z-rot       x-rot vel   y-rot vel   z-rot vel   x-rot acc   y-rot acc   z-rot acc
    22626  4.02180E-03 3.22502E-03 6.90847E-04 4.85812E-03 3.97096E-03 1.18681E-04 3.07515E-03 2.75236E-03 2.42647E-05



 n o d a l   p r i n t   o u t   f o r   t i m e  s t e p   17602                              ( at time 8.7996193E+00 )

 nodal point  x-disp     y-disp      z-disp      x-vel       y-vel       z-vel      x-accl      y-accl      z-accl      x-coor      y-coor      z-coor
    22626  6.61903E-03 9.18083E-03-2.71331E+01 1.92091E-02 2.88008E-02-2.31959E+00 6.46295E-02-3.23785E-02 6.89617E-01 4.79708E+01-2.20206E+01-1.97946E+01



 n o d a l   p r i n t   o u t   f o r   t i m e  s t e p   17602                              ( at time 8.7996193E+00 )

 nodal point  x-rot      y-rot       z-rot       x-rot vel   y-rot vel   z-rot vel   x-rot acc   y-rot acc   z-rot acc
    22626  4.52047E-03 3.63649E-03 7.03586E-04 5.13120E-03 4.23595E-03 1.24260E-04 2.73108E-03 2.65017E-03 5.57959E-05



 n o d a l   p r i n t   o u t   f o r   t i m e  s t e p   17802                              ( at time 8.8996093E+00 )

 nodal point  x-disp     y-disp      z-disp      x-vel       y-vel       z-vel      x-accl      y-accl      z-accl      x-coor      y-coor      z-coor
    22626  8.85331E-03 1.18844E-02-2.73615E+01 2.42483E-02 2.49470E-02-2.24588E+00 5.03962E-02-3.85423E-02 7.37196E-01 4.79730E+01-2.20179E+01-2.00230E+01



 n o d a l   p r i n t   o u t   f o r   t i m e  s t e p   17802                              ( at time 8.8996093E+00 )

 nodal point  x-rot      y-rot       z-rot       x-rot vel   y-rot vel   z-rot vel   x-rot acc   y-rot acc   z-rot acc
    22626  5.04867E-03 4.07191E-03 7.16808E-04 5.43232E-03 4.48221E-03 1.12913E-04 3.01148E-03 2.46287E-03-1.13481E-04



 n o d a l   p r i n t   o u t   f o r   t i m e  s t e p   18002                              ( at time 8.9995993E+00 )

 nodal point  x-disp     y-disp      z-disp      x-vel       y-vel       z-vel      x-accl      y-accl      z-accl      x-coor      y-coor      z-coor
    22626  1.18552E-02 1.43017E-02-2.75822E+01 3.46545E-02 2.23888E-02-2.17080E+00 1.04073E-01-2.55845E-02 7.50794E-01 4.79760E+01-2.20155E+01-2.02437E+01



 n o d a l   p r i n t   o u t   f o r   t i m e  s t e p   18002                              ( at time 8.9995993E+00 )

 nodal point  x-rot      y-rot       z-rot       x-rot vel   y-rot vel   z-rot vel   x-rot acc   y-rot acc   z-rot acc
    22626  5.60728E-03 4.53328E-03 7.28162E-04 5.74662E-03 4.71683E-03 1.00714E-04 3.14330E-03 2.34639E-03-1.22006E-04



 n o d a l   p r i n t   o u t   f o r   t i m e  s t e p   18202                              ( at time 9.0995893E+00 )

 nodal point  x-disp     y-disp      z-disp      x-vel       y-vel       z-vel      x-accl      y-accl      z-accl      x-coor      y-coor      z-coor
    22626  1.54758E-02 1.62743E-02-2.77953E+01 3.90466E-02 1.90664E-02-2.09337E+00 4.39253E-02-3.32278E-02 7.74455E-01 4.79797E+01-2.20135E+01-2.04568E+01



 n o d a l   p r i n t   o u t   f o r   t i m e  s t e p   18202                              ( at time 9.0995893E+00 )

 nodal point  x-rot      y-rot       z-rot       x-rot vel   y-rot vel   z-rot vel   x-rot acc   y-rot acc   z-rot acc
    22626  6.19532E-03 5.01459E-03 7.41506E-04 6.00658E-03 4.91283E-03 1.02668E-04 2.59988E-03 1.96023E-03 1.95363E-05



 n o d a l   p r i n t   o u t   f o r   t i m e  s t e p   18402                              ( at time 9.1995793E+00 )

 nodal point  x-disp     y-disp      z-disp      x-vel       y-vel       z-vel      x-accl      y-accl      z-accl      x-coor      y-coor      z-coor
    22626  1.99956E-02 1.79335E-02-2.80007E+01 4.89324E-02 1.33725E-02-2.01481E+00 9.88681E-02-5.69440E-02 7.85599E-01 4.79842E+01-2.20119E+01-2.06622E+01



 n o d a l   p r i n t   o u t   f o r   t i m e  s t e p   18402                              ( at time 9.1995793E+00 )

 nodal point  x-rot      y-rot       z-rot       x-rot vel   y-rot vel   z-rot vel   x-rot acc   y-rot acc   z-rot acc
    22626  6.81037E-03 5.51661E-03 7.52362E-04 6.28542E-03 5.10392E-03 8.99633E-05 2.78867E-03 1.91108E-03-1.27055E-04



 n o d a l   p r i n t   o u t   f o r   t i m e  s t e p   18602                              ( at time 9.2995693E+00 )

 nodal point  x-disp     y-disp      z-disp      x-vel       y-vel       z-vel      x-accl      y-accl      z-accl      x-coor      y-coor      z-coor
    22626  2.53024E-02 1.90258E-02-2.81980E+01 5.74763E-02 9.59488E-03-1.93241E+00 8.54484E-02-3.77803E-02 8.24082E-01 4.79895E+01-2.20108E+01-2.08595E+01



 n o d a l   p r i n t   o u t   f o r   t i m e  s t e p   18602                              ( at time 9.2995693E+00 )

 nodal point  x-rot      y-rot       z-rot       x-rot vel   y-rot vel   z-rot vel   x-rot acc   y-rot acc   z-rot acc
    22626  7.45251E-03 6.03610E-03 7.62857E-04 6.56659E-03 5.28700E-03 1.00815E-04 2.81198E-03 1.83100E-03 1.08531E-04



 n o d a l   p r i n t   o u t   f o r   t i m e  s t e p   18802                              ( at time 9.3995593E+00 )

 nodal point  x-disp     y-disp      z-disp      x-vel       y-vel       z-vel      x-accl      y-accl      z-accl      x-coor      y-coor      z-coor
    22626  3.14645E-02 1.96897E-02-2.83872E+01 6.57327E-02 3.67692E-03-1.85074E+00 8.25719E-02-5.91856E-02 8.16813E-01 4.79956E+01-2.20101E+01-2.10487E+01



 n o d a l   p r i n t   o u t   f o r   t i m e  s t e p   18802                              ( at time 9.3995593E+00 )

 nodal point  x-rot      y-rot       z-rot       x-rot vel   y-rot vel   z-rot vel   x-rot acc   y-rot acc   z-rot acc
    22626  8.12090E-03 6.57254E-03 7.71456E-04 6.80556E-03 5.42204E-03 6.05380E-05 2.38991E-03 1.35051E-03-4.02814E-04



 n o d a l   p r i n t   o u t   f o r   t i m e  s t e p   19002                              ( at time 9.4995493E+00 )

 nodal point  x-disp     y-disp      z-disp      x-vel       y-vel       z-vel      x-accl      y-accl      z-accl      x-coor      y-coor      z-coor
    22626  3.84710E-02 1.97029E-02-2.85681E+01 7.50862E-02-3.71041E-03-1.76843E+00 9.35446E-02-7.38808E-02 8.23183E-01 4.80027E+01-2.20101E+01-2.12296E+01



 n o d a l   p r i n t   o u t   f o r   t i m e  s t e p   19002                              ( at time 9.4995493E+00 )

 nodal point  x-rot      y-rot       z-rot       x-rot vel   y-rot vel   z-rot vel   x-rot acc   y-rot acc   z-rot acc
    22626  8.81021E-03 7.12313E-03 7.77037E-04 6.99593E-03 5.58898E-03 5.88841E-05 1.90395E-03 1.66955E-03-1.65401E-05



 n o d a l   p r i n t   o u t   f o r   t i m e  s t e p   19202                              ( at time 9.5995393E+00 )

 nodal point  x-disp     y-disp      z-disp      x-vel       y-vel       z-vel      x-accl      y-accl      z-accl      x-coor      y-coor      z-coor
    22626  4.64972E-02 1.91238E-02-2.87406E+01 8.56892E-02-9.24854E-03-1.68272E+00 1.06040E-01-5.53863E-02 8.57173E-01 4.80107E+01-2.20107E+01-2.14021E+01



 n o d a l   p r i n t   o u t   f o r   t i m e  s t e p   19202                              ( at time 9.5995393E+00 )

 nodal point  x-rot      y-rot       z-rot       x-rot vel   y-rot vel   z-rot vel   x-rot acc   y-rot acc   z-rot acc
    22626  9.52318E-03 7.69177E-03 7.78934E-04 7.25277E-03 5.71343E-03 1.73210E-05 2.56859E-03 1.24462E-03-4.15669E-04



 n o d a l   p r i n t   o u t   f o r   t i m e  s t e p   19402                              ( at time 9.6995293E+00 )

 nodal point  x-disp     y-disp      z-disp      x-vel       y-vel       z-vel      x-accl      y-accl      z-accl      x-coor      y-coor      z-coor
    22626  5.53885E-02 1.79481E-02-2.89045E+01 9.43672E-02-1.45459E-02-1.59638E+00 8.67881E-02-5.29791E-02 8.63465E-01 4.80196E+01-2.20118E+01-2.15660E+01



 n o d a l   p r i n t   o u t   f o r   t i m e  s t e p   19402                              ( at time 9.6995293E+00 )

 nodal point  x-rot      y-rot       z-rot       x-rot vel   y-rot vel   z-rot vel   x-rot acc   y-rot acc   z-rot acc
    22626  1.02561E-02 8.27216E-03 7.78959E-04 7.40561E-03 5.87585E-03-1.02954E-05 1.52860E-03 1.62440E-03-2.76192E-04



 n o d a l   p r i n t   o u t   f o r   t i m e  s t e p   19602                              ( at time 9.7995193E+00 )

 nodal point  x-disp     y-disp      z-disp      x-vel       y-vel       z-vel      x-accl      y-accl      z-accl      x-coor      y-coor      z-coor
    22626  6.53308E-02 1.59816E-02-2.90600E+01 1.04240E-01-2.39851E-02-1.51067E+00 9.87376E-02-9.44015E-02 8.57201E-01 4.80295E+01-2.20138E+01-2.17215E+01



 n o d a l   p r i n t   o u t   f o r   t i m e  s t e p   19602                              ( at time 9.7995193E+00 )

 nodal point  x-rot      y-rot       z-rot       x-rot vel   y-rot vel   z-rot vel   x-rot acc   y-rot acc   z-rot acc
    22626  1.10044E-02 8.86289E-03 7.74454E-04 7.56772E-03 5.99270E-03-9.05662E-05 1.62127E-03 1.16865E-03-8.02790E-04



 n o d a l   p r i n t   o u t   f o r   t i m e  s t e p   19802                              ( at time 9.8995093E+00 )

 nodal point  x-disp     y-disp      z-disp      x-vel       y-vel       z-vel      x-accl      y-accl      z-accl      x-coor      y-coor      z-coor
    22626  7.63039E-02 1.31633E-02-2.92068E+01 1.15506E-01-3.00070E-02-1.42516E+00 1.12672E-01-6.02247E-02 8.55194E-01 4.80405E+01-2.20166E+01-2.18683E+01



 n o d a l   p r i n t   o u t   f o r   t i m e  s t e p   19802                              ( at time 9.8995093E+00 )

 nodal point  x-rot      y-rot       z-rot       x-rot vel   y-rot vel   z-rot vel   x-rot acc   y-rot acc   z-rot acc
    22626  1.17703E-02 9.46660E-03 7.65924E-04 7.77507E-03 6.07429E-03-1.13731E-04 2.07365E-03 8.15968E-04-2.31667E-04



 n o d a l   p r i n t   o u t   f o r   t i m e  s t e p   20003                              ( at time 9.9999992E+00 )

 nodal point  x-disp     y-disp      z-disp      x-vel       y-vel       z-vel      x-accl      y-accl      z-accl      x-coor      y-coor      z-coor
[...]
    22626  1.96863E-01 1.14628E-01-2.07431E-02 1.83380E-02 6.74513E-03-4.34819E-03-4.07137E-04 8.40223E-05-2.52458E-05



 n o d a l   p r i n t   o u t   f o r   t i m e  s t e p   45205                              ( at time 2.2599738E+01 )

 nodal point  x-disp     y-disp      z-disp      x-vel       y-vel       z-vel      x-accl      y-accl      z-accl      x-coor      y-coor      z-coor
    22626  3.63215E+00-3.17964E+00-2.34890E+01 1.98243E-01-3.50501E-01 6.53482E-01-2.65712E-04-1.78979E-03 4.66151E-04 5.15963E+01-2.52094E+01-1.61505E+01



 n o d a l   p r i n t   o u t   f o r   t i m e  s t e p   45205                              ( at time 2.2599738E+01 )

 nodal point  x-rot      y-rot       z-rot       x-rot vel   y-rot vel   z-rot vel   x-rot acc   y-rot acc   z-rot acc
    22626  1.98695E-01 1.15301E-01-2.11769E-02 1.82879E-02 6.73430E-03-4.33475E-03-5.01284E-04-1.08285E-04 1.34388E-04



 n o d a l   p r i n t   o u t   f o r   t i m e  s t e p   45405                              ( at time 2.2699728E+01 )

 nodal point  x-disp     y-disp      z-disp      x-vel       y-vel       z-vel      x-accl      y-accl      z-accl      x-coor      y-coor      z-coor
    22626  3.65195E+00-3.21470E+00-2.34236E+01 1.98785E-01-3.50777E-01 6.54041E-01 5.42194E-03-2.76000E-03 5.58378E-03 5.16161E+01-2.52445E+01-1.60851E+01



 n o d a l   p r i n t   o u t   f o r   t i m e  s t e p   45405                              ( at time 2.2699728E+01 )

 nodal point  x-rot      y-rot       z-rot       x-rot vel   y-rot vel   z-rot vel   x-rot acc   y-rot acc   z-rot acc
    22626  2.00521E-01 1.15975E-01-2.16103E-02 1.82618E-02 6.72272E-03-4.34181E-03-2.60855E-04-1.15837E-04-7.06533E-05



 n o d a l   p r i n t   o u t   f o r   t i m e  s t e p   45605                              ( at time 2.2799718E+01 )

 nodal point  x-disp     y-disp      z-disp      x-vel       y-vel       z-vel      x-accl      y-accl      z-accl      x-coor      y-coor      z-coor
    22626  3.67181E+00-3.24976E+00-2.33581E+01 1.98473E-01-3.51299E-01 6.55740E-01-3.12506E-03-5.21410E-03 1.69942E-02 5.16360E+01-2.52796E+01-1.60196E+01



 n o d a l   p r i n t   o u t   f o r   t i m e  s t e p   45605                              ( at time 2.2799718E+01 )

 nodal point  x-rot      y-rot       z-rot       x-rot vel   y-rot vel   z-rot vel   x-rot acc   y-rot acc   z-rot acc
    22626  2.02346E-01 1.16647E-01-2.20440E-02 1.82245E-02 6.73940E-03-4.32256E-03-3.73215E-04 1.66894E-04 1.92601E-04



 n o d a l   p r i n t   o u t   f o r   t i m e  s t e p   45805                              ( at time 2.2899708E+01 )

 nodal point  x-disp     y-disp      z-disp      x-vel       y-vel       z-vel      x-accl      y-accl      z-accl      x-coor      y-coor      z-coor
    22626  3.69168E+00-3.28487E+00-2.32925E+01 1.99457E-01-3.50799E-01 6.56165E-01 9.84748E-03 5.00049E-03 4.24790E-03 5.16559E+01-2.53147E+01-1.59540E+01



 n o d a l   p r i n t   o u t   f o r   t i m e  s t e p   45805                              ( at time 2.2899708E+01 )

 nodal point  x-rot      y-rot       z-rot       x-rot vel   y-rot vel   z-rot vel   x-rot acc   y-rot acc   z-rot acc
    22626  2.04167E-01 1.17320E-01-2.24763E-02 1.82012E-02 6.73124E-03-4.32405E-03-2.32707E-04-8.16441E-05-1.49680E-05



 n o d a l   p r i n t   o u t   f o r   t i m e  s t e p   46005                              ( at time 2.2999698E+01 )

 nodal point  x-disp     y-disp      z-disp      x-vel       y-vel       z-vel      x-accl      y-accl      z-accl      x-coor      y-coor      z-coor
    22626  3.71164E+00-3.31993E+00-2.32268E+01 1.99979E-01-3.50400E-01 6.58125E-01 5.21469E-03 3.98136E-03 1.96016E-02 5.16758E+01-2.53497E+01-1.58883E+01



 n o d a l   p r i n t   o u t   f o r   t i m e  s t e p   46005                              ( at time 2.2999698E+01 )

 nodal point  x-rot      y-rot       z-rot       x-rot vel   y-rot vel   z-rot vel   x-rot acc   y-rot acc   z-rot acc
    22626  2.05986E-01 1.17993E-01-2.29088E-02 1.81827E-02 6.71965E-03-4.32700E-03-1.85257E-04-1.15881E-04-2.94884E-05



 n o d a l   p r i n t   o u t   f o r   t i m e  s t e p   46205                              ( at time 2.3099688E+01 )

 nodal point  x-disp     y-disp      z-disp      x-vel       y-vel       z-vel      x-accl      y-accl      z-accl      x-coor      y-coor      z-coor
    22626  3.73174E+00-3.35501E+00-2.31609E+01 2.01694E-01-3.50484E-01 6.60595E-01 1.71531E-02-8.36048E-04 2.47059E-02 5.16959E+01-2.53848E+01-1.58224E+01



 n o d a l   p r i n t   o u t   f o r   t i m e  s t e p   46205                              ( at time 2.3099688E+01 )

 nodal point  x-rot      y-rot       z-rot       x-rot vel   y-rot vel   z-rot vel   x-rot acc   y-rot acc   z-rot acc
    22626  2.07802E-01 1.18666E-01-2.33414E-02 1.81467E-02 6.72822E-03-4.32706E-03-3.60480E-04 8.56958E-05-6.38027E-07



 n o d a l   p r i n t   o u t   f o r   t i m e  s t e p   46405                              ( at time 2.3199678E+01 )

 nodal point  x-disp     y-disp      z-disp      x-vel       y-vel       z-vel      x-accl      y-accl      z-accl      x-coor      y-coor      z-coor
    22626  3.75196E+00-3.39004E+00-2.30947E+01 2.02418E-01-3.49413E-01 6.62304E-01 7.24188E-03 1.07081E-02 1.70926E-02 5.17161E+01-2.54198E+01-1.57562E+01



 n o d a l   p r i n t   o u t   f o r   t i m e  s t e p   46405                              ( at time 2.3199678E+01 )

 nodal point  x-rot      y-rot       z-rot       x-rot vel   y-rot vel   z-rot vel   x-rot acc   y-rot acc   z-rot acc
    22626  2.09615E-01 1.19338E-01-2.37741E-02 1.81212E-02 6.71355E-03-4.33724E-03-2.54367E-04-1.46720E-04-1.01775E-04



 n o d a l   p r i n t   o u t   f o r   t i m e  s t e p   46605                              ( at time 2.3299668E+01 )

 nodal point  x-disp     y-disp      z-disp      x-vel       y-vel       z-vel      x-accl      y-accl      z-accl      x-coor      y-coor      z-coor
    22626  3.77232E+00-3.42498E+00-2.30284E+01 2.04822E-01-3.49392E-01 6.65536E-01 2.40446E-02 2.11620E-04 3.23194E-02 5.17365E+01-2.54548E+01-1.56899E+01



 n o d a l   p r i n t   o u t   f o r   t i m e  s t e p   46605                              ( at time 2.3299668E+01 )

 nodal point  x-rot      y-rot       z-rot       x-rot vel   y-rot vel   z-rot vel   x-rot acc   y-rot acc   z-rot acc
    22626  2.11424E-01 1.20009E-01-2.42072E-02 1.80685E-02 6.71775E-03-4.33454E-03-5.27802E-04 4.19747E-05 2.70393E-05



 n o d a l   p r i n t   o u t   f o r   t i m e  s t e p   46805                              ( at time 2.3399658E+01 )

 nodal point  x-disp     y-disp      z-disp      x-vel       y-vel       z-vel      x-accl      y-accl      z-accl      x-coor      y-coor      z-coor
    22626  3.79287E+00-3.45991E+00-2.29618E+01 2.06459E-01-3.48643E-01 6.67628E-01 1.63712E-02 7.49329E-03 2.09225E-02 5.17570E+01-2.54897E+01-1.56233E+01



 n o d a l   p r i n t   o u t   f o r   t i m e  s t e p   46805                              ( at time 2.3399658E+01 )

 nodal point  x-rot      y-rot       z-rot       x-rot vel   y-rot vel   z-rot vel   x-rot acc   y-rot acc   z-rot acc
    22626  2.13228E-01 1.20680E-01-2.46402E-02 1.80197E-02 6.70724E-03-4.34316E-03-4.87164E-04-1.05053E-04-8.62437E-05



 n o d a l   p r i n t   o u t   f o r   t i m e  s t e p   47005                              ( at time 2.3499648E+01 )

 nodal point  x-disp     y-disp      z-disp      x-vel       y-vel       z-vel      x-accl      y-accl      z-accl      x-coor      y-coor      z-coor
    22626  3.81358E+00-3.49474E+00-2.28949E+01 2.07913E-01-3.48249E-01 6.68818E-01 1.45396E-02 3.94380E-03 1.19023E-02 5.17778E+01-2.55245E+01-1.55564E+01



 n o d a l   p r i n t   o u t   f o r   t i m e  s t e p   47005                              ( at time 2.3499648E+01 )

 nodal point  x-rot      y-rot       z-rot       x-rot vel   y-rot vel   z-rot vel   x-rot acc   y-rot acc   z-rot acc
    22626  2.15027E-01 1.21352E-01-2.50733E-02 1.79549E-02 6.69104E-03-4.34256E-03-6.48223E-04-1.62018E-04 6.00758E-06



 n o d a l   p r i n t   o u t   f o r   t i m e  s t e p   47205                              ( at time 2.3599638E+01 )

 nodal point  x-disp     y-disp      z-disp      x-vel       y-vel       z-vel      x-accl      y-accl      z-accl      x-coor      y-coor      z-coor
    22626  3.83445E+00-3.52954E+00-2.28279E+01 2.09708E-01-3.47748E-01 6.71545E-01 1.79510E-02 5.00675E-03 2.72692E-02 5.17986E+01-2.55593E+01-1.54894E+01



 n o d a l   p r i n t   o u t   f o r   t i m e  s t e p   47205                              ( at time 2.3599638E+01 )

 nodal point  x-rot      y-rot       z-rot       x-rot vel   y-rot vel   z-rot vel   x-rot acc   y-rot acc   z-rot acc
    22626  2.16820E-01 1.22022E-01-2.55065E-02 1.78874E-02 6.70166E-03-4.34069E-03-6.75023E-04 1.06141E-04 1.87356E-05



 n o d a l   p r i n t   o u t   f o r   t i m e  s t e p   47405                              ( at time 2.3699628E+01 )

 nodal point  x-disp     y-disp      z-disp      x-vel       y-vel       z-vel      x-accl      y-accl      z-accl      x-coor      y-coor      z-coor
    22626  3.85549E+00-3.56437E+00-2.27607E+01 2.10565E-01-3.47605E-01 6.73409E-01 8.57432E-03 1.42766E-03 1.86460E-02 5.18197E+01-2.55942E+01-1.54222E+01



 n o d a l   p r i n t   o u t   f o r   t i m e  s t e p   47405                              ( at time 2.3699628E+01 )

 nodal point  x-rot      y-rot       z-rot       x-rot vel   y-rot vel   z-rot vel   x-rot acc   y-rot acc   z-rot acc
    22626  2.18605E-01 1.22692E-01-2.59391E-02 1.78240E-02 6.69341E-03-4.33629E-03-6.34307E-04-8.24948E-05 4.39438E-05



 n o d a l   p r i n t   o u t   f o r   t i m e  s t e p   47605                              ( at time 2.3799618E+01 )

 nodal point  x-disp     y-disp      z-disp      x-vel       y-vel       z-vel      x-accl      y-accl      z-accl      x-coor      y-coor      z-coor
    22626  3.87665E+00-3.59918E+00-2.26934E+01 2.12040E-01-3.48114E-01 6.73874E-01 1.47514E-02-5.08603E-03 4.64848E-03 5.18408E+01-2.56290E+01-1.53549E+01



 n o d a l   p r i n t   o u t   f o r   t i m e  s t e p   47605                              ( at time 2.3799618E+01 )

 nodal point  x-rot      y-rot       z-rot       x-rot vel   y-rot vel   z-rot vel   x-rot acc   y-rot acc   z-rot acc
    22626  2.20383E-01 1.23361E-01-2.63710E-02 1.77534E-02 6.69284E-03-4.31069E-03-7.05834E-04-5.69101E-06 2.56026E-04



 n o d a l   p r i n t   o u t   f o r   t i m e  s t e p   47805                              ( at time 2.3899608E+01 )

 nodal point  x-disp     y-disp      z-disp      x-vel       y-vel       z-vel      x-accl      y-accl      z-accl      x-coor      y-coor      z-coor
    22626  3.89791E+00-3.63402E+00-2.26259E+01 2.13376E-01-3.48168E-01 6.74996E-01 1.33558E-02-5.43644E-04 1.12192E-02 5.18621E+01-2.56638E+01-1.52874E+01



 n o d a l   p r i n t   o u t   f o r   t i m e  s t e p   47805                              ( at time 2.3899608E+01 )

 nodal point  x-rot      y-rot       z-rot       x-rot vel   y-rot vel   z-rot vel   x-rot acc   y-rot acc   z-rot acc
    22626  2.22155E-01 1.24031E-01-2.68011E-02 1.76812E-02 6.69004E-03-4.30404E-03-7.22325E-04-2.79609E-05 6.65584E-05



 n o d a l   p r i n t   o u t   f o r   t i m e  s t e p   48005                              ( at time 2.3999598E+01 )

 nodal point  x-disp     y-disp      z-disp      x-vel       y-vel       z-vel      x-accl      y-accl      z-accl      x-coor      y-coor      z-coor
    22626  3.91931E+00-3.66888E+00-2.25584E+01 2.14026E-01-3.48698E-01 6.76082E-01 6.50597E-03-5.30272E-03 1.08653E-02 5.18835E+01-2.56987E+01-1.52199E+01



 n o d a l   p r i n t   o u t   f o r   t i m e  s t e p   48005                              ( at time 2.3999598E+01 )

 nodal point  x-rot      y-rot       z-rot       x-rot vel   y-rot vel   z-rot vel   x-rot acc   y-rot acc   z-rot acc
    22626  2.23918E-01 1.24699E-01-2.72301E-02 1.75927E-02 6.67680E-03-4.28696E-03-8.84798E-04-1.32421E-04 1.70768E-04



 n o d a l   p r i n t   o u t   f o r   t i m e  s t e p   48205                              ( at time 2.4099588E+01 )

 nodal point  x-disp     y-disp      z-disp      x-vel       y-vel       z-vel      x-accl      y-accl      z-accl      x-coor      y-coor      z-coor
    22626  3.94079E+00-3.70374E+00-2.24907E+01 2.15018E-01-3.48407E-01 6.77041E-01 9.91838E-03 2.91613E-03 9.58888E-03 5.19050E+01-2.57335E+01-1.51522E+01



 n o d a l   p r i n t   o u t   f o r   t i m e  s t e p   48205                              ( at time 2.4099588E+01 )

 nodal point  x-rot      y-rot       z-rot       x-rot vel   y-rot vel   z-rot vel   x-rot acc   y-rot acc   z-rot acc
    22626  2.25674E-01 1.25367E-01-2.76570E-02 1.75298E-02 6.67027E-03-4.26374E-03-6.29185E-04-6.53103E-05 2.32228E-04



 n o d a l   p r i n t   o u t   f o r   t i m e  s t e p   48405                              ( at time 2.4199578E+01 )

 nodal point  x-disp     y-disp      z-disp      x-vel       y-vel       z-vel      x-accl      y-accl      z-accl      x-coor      y-coor      z-coor
    22626  3.96238E+00-3.73858E+00-2.24228E+01 2.16453E-01-3.48615E-01 6.79531E-01 1.43499E-02-2.08133E-03 2.49074E-02 5.19266E+01-2.57684E+01-1.50843E+01



 n o d a l   p r i n t   o u t   f o r   t i m e  s t e p   48405                              ( at time 2.4199578E+01 )

 nodal point  x-rot      y-rot       z-rot       x-rot vel   y-rot vel   z-rot vel   x-rot acc   y-rot acc   z-rot acc
    22626  2.27423E-01 1.26034E-01-2.80816E-02 1.74513E-02 6.67496E-03-4.24422E-03-7.84950E-04 4.69066E-05 1.95297E-04



 n o d a l   p r i n t   o u t   f o r   t i m e  s t e p   48605                              ( at time 2.4299568E+01 )

 nodal point  x-disp     y-disp      z-disp      x-vel       y-vel       z-vel      x-accl      y-accl      z-accl      x-coor      y-coor      z-coor
    22626  3.98405E+00-3.77344E+00-2.23548E+01 2.17262E-01-3.47762E-01 6.81260E-01 8.09177E-03 8.52693E-03 1.72881E-02 5.19482E+01-2.58032E+01-1.50163E+01



 n o d a l   p r i n t   o u t   f o r   t i m e  s t e p   48605                              ( at time 2.4299568E+01 )

 nodal point  x-rot      y-rot       z-rot       x-rot vel   y-rot vel   z-rot vel   x-rot acc   y-rot acc   z-rot acc
    22626  2.29166E-01 1.26701E-01-2.85036E-02 1.74023E-02 6.65796E-03-4.22547E-03-4.90200E-04-1.70010E-04 1.87488E-04



 n o d a l   p r i n t   o u t   f o r   t i m e  s t e p   48805                              ( at time 2.4399558E+01 )

 nodal point  x-disp     y-disp      z-disp      x-vel       y-vel       z-vel      x-accl      y-accl      z-accl      x-coor      y-coor      z-coor
    22626  4.00583E+00-3.80823E+00-2.22866E+01 2.18493E-01-3.47688E-01 6.83450E-01 1.23151E-02 7.46617E-04 2.19031E-02 5.19700E+01-2.58380E+01-1.49481E+01



 n o d a l   p r i n t   o u t   f o r   t i m e  s t e p   48805                              ( at time 2.4399558E+01 )

 nodal point  x-rot      y-rot       z-rot       x-rot vel   y-rot vel   z-rot vel   x-rot acc   y-rot acc   z-rot acc
    22626  2.30902E-01 1.27367E-01-2.89235E-02 1.73296E-02 6.66935E-03-4.19338E-03-7.26964E-04 1.13902E-04 3.20940E-04



 n o d a l   p r i n t   o u t   f o r   t i m e  s t e p   49006                              ( at time 2.4500048E+01 )

 nodal point  x-disp     y-disp      z-disp      x-vel       y-vel       z-vel      x-accl      y-accl      z-accl      x-coor      y-coor      z-coor
    22626  4.02783E+00-3.84318E+00-2.22178E+01 2.19422E-01-3.47679E-01 6.85272E-01 9.24391E-03 8.65996E-05 1.81284E-02 5.19920E+01-2.58730E+01-1.48793E+01



 n o d a l   p r i n t   o u t   f o r   t i m e  s t e p   49006                              ( at time 2.4500048E+01 )

 nodal point  x-rot      y-rot       z-rot       x-rot vel   y-rot vel   z-rot vel   x-rot acc   y-rot acc   z-rot acc
    22626  2.32641E-01 1.28037E-01-2.93433E-02 1.72856E-02 6.66544E-03-4.16846E-03-4.38670E-04-3.89022E-05 2.47927E-04



 n o d a l   p r i n t   o u t   f o r   t i m e  s t e p   49206                              ( at time 2.4600038E+01 )

 nodal point  x-disp     y-disp      z-disp      x-vel       y-vel       z-vel      x-accl      y-accl      z-accl      x-coor      y-coor      z-coor
    22626  4.04981E+00-3.87789E+00-2.21492E+01 2.19462E-01-3.46926E-01 6.86968E-01 3.98941E-04 7.52905E-03 1.69603E-02 5.20140E+01-2.59077E+01-1.48107E+01



 n o d a l   p r i n t   o u t   f o r   t i m e  s t e p   49206                              ( at time 2.4600038E+01 )

 nodal point  x-rot      y-rot       z-rot       x-rot vel   y-rot vel   z-rot vel   x-rot acc   y-rot acc   z-rot acc
    22626  2.34368E-01 1.28703E-01-2.97596E-02 1.72476E-02 6.66400E-03-4.14926E-03-3.79903E-04-1.44368E-05 1.92084E-04



 n o d a l   p r i n t   o u t   f o r   t i m e  s t e p   49406                              ( at time 2.4700028E+01 )

 nodal point  x-disp     y-disp      z-disp      x-vel       y-vel       z-vel      x-accl      y-accl      z-accl      x-coor      y-coor      z-coor
    22626  4.07182E+00-3.91251E+00-2.20804E+01 2.20523E-01-3.45881E-01 6.87974E-01 1.06069E-02 1.04552E-02 1.00618E-02 5.20360E+01-2.59423E+01-1.47419E+01



 n o d a l   p r i n t   o u t   f o r   t i m e  s t e p   49406                              ( at time 2.4700028E+01 )

 nodal point  x-rot      y-rot       z-rot       x-rot vel   y-rot vel   z-rot vel   x-rot acc   y-rot acc   z-rot acc
    22626  2.36091E-01 1.29370E-01-3.01742E-02 1.72179E-02 6.66890E-03-4.13594E-03-2.96268E-04 4.89650E-05 1.33138E-04



 n o d a l   p r i n t   o u t   f o r   t i m e  s t e p   49606                              ( at time 2.4800018E+01 )

 nodal point  x-disp     y-disp      z-disp      x-vel       y-vel       z-vel      x-accl      y-accl      z-accl      x-coor      y-coor      z-coor
    22626  4.09387E+00-3.94709E+00-2.20117E+01 2.20884E-01-3.45280E-01 6.88521E-01 3.61833E-03 6.00631E-03 5.46923E-03 5.20581E+01-2.59769E+01-1.46732E+01



 n o d a l   p r i n t   o u t   f o r   t i m e  s t e p   49606                              ( at time 2.4800018E+01 )

 nodal point  x-rot      y-rot       z-rot       x-rot vel   y-rot vel   z-rot vel   x-rot acc   y-rot acc   z-rot acc
    22626  2.37811E-01 1.30036E-01-3.05878E-02 1.71876E-02 6.66628E-03-4.13363E-03-3.03322E-04-2.61260E-05 2.31175E-05



 n o d a l   p r i n t   o u t   f o r   t i m e  s t e p   49806                              ( at time 2.4900008E+01 )

 nodal point  x-disp     y-disp      z-disp      x-vel       y-vel       z-vel      x-accl      y-accl      z-accl      x-coor      y-coor      z-coor
    22626  4.11595E+00-3.98153E+00-2.19428E+01 2.20749E-01-3.43832E-01 6.87885E-01-1.35452E-03 1.44793E-02-6.35337E-03 5.20801E+01-2.60113E+01-1.46043E+01



 n o d a l   p r i n t   o u t   f o r   t i m e  s t e p   49806                              ( at time 2.4900008E+01 )

 nodal point  x-rot      y-rot       z-rot       x-rot vel   y-rot vel   z-rot vel   x-rot acc   y-rot acc   z-rot acc
    22626  2.39528E-01 1.30703E-01-3.10012E-02 1.71614E-02 6.65646E-03-4.13418E-03-2.61805E-04-9.82701E-05-5.44418E-06



 n o d a l   p r i n t   o u t   f o r   t i m e  s t e p   50006                              ( at time 2.4999998E+01 )

 nodal point  x-disp     y-disp      z-disp      x-vel       y-vel       z-vel      x-accl      y-accl      z-accl      x-coor      y-coor      z-coor
    22626  4.13804E+00-4.01588E+00-2.18740E+01 2.20670E-01-3.42988E-01 6.88421E-01-7.91622E-04 8.44377E-03 5.35954E-03 5.21022E+01-2.60457E+01-1.45355E+01



 n o d a l   p r i n t   o u t   f o r   t i m e  s t e p   50006                              ( at time 2.4999998E+01 )

 nodal point  x-rot      y-rot       z-rot       x-rot vel   y-rot vel   z-rot vel   x-rot acc   y-rot acc   z-rot acc
    22626  2.41242E-01 1.31369E-01-3.14138E-02 1.71212E-02 6.66561E-03-4.12771E-03-4.02294E-04 9.15760E-05 6.46676E-05
