 LSTC 50th% Full_FE H-III Dummy (Beta Version, February 17, 2019)        
                    ls-dyna smp s R16 R16.0_619_d222963 date 03/18/2025

{BEGIN LEGEND}
 Entity #        Title
    22626                                                                                     
{END LEGEND}




 n o d a l   p r i n t   o u t   f o r   t i m e  s t e p       1                              ( at time 0.0000000E+00 )

 nodal point  x-disp     y-disp      z-disp      x-vel       y-vel       z-vel      x-accl      y-accl      z-accl      x-coor      y-coor      z-coor
    22626  0.00000E+00 0.00000E+00 0.00000E+00 0.00000E+00 0.00000E+00-3.12000E+00 0.00000E+00 0.00000E+00 0.00000E+00 4.79642E+01-2.20298E+01 7.33850E+00



 n o d a l   p r i n t   o u t   f o r   t i m e  s t e p       1                              ( at time 0.0000000E+00 )

 nodal point  x-rot      y-rot       z-rot       x-rot vel   y-rot vel   z-rot vel   x-rot acc   y-rot acc   z-rot acc
    22626  0.00000E+00 0.00000E+00 0.00000E+00 0.00000E+00 0.00000E+00 0.00000E+00 0.00000E+00 0.00000E+00 0.00000E+00



 n o d a l   p r i n t   o u t   f o r   t i m e  s t e p     201                              ( at time 9.9989993E-02 )

 nodal point  x-disp     y-disp      z-disp      x-vel       y-vel       z-vel      x-accl      y-accl      z-accl      x-coor      y-coor      z-coor
    22626  8.34229E-07-4.04471E-06-3.12016E-01 4.76691E-05-4.96481E-04-3.12074E+00 4.76739E-04-4.96531E-03-7.42748E-03 4.79642E+01-2.20298E+01 7.02648E+00



 n o d a l   p r i n t   o u t   f o r   t i m e  s t e p     201                              ( at time 9.9989993E-02 )

 nodal point  x-rot      y-rot       z-rot       x-rot vel   y-rot vel   z-rot vel   x-rot acc   y-rot acc   z-rot acc
    22626  9.60256E-09 3.04026E-08 5.26967E-08 1.30665E-06 2.72263E-06 5.21249E-06 1.30678E-05 2.72291E-05 5.21301E-05



 n o d a l   p r i n t   o u t   f o r   t i m e  s t e p     401                              ( at time 1.9997999E-01 )

 nodal point  x-disp     y-disp      z-disp      x-vel       y-vel       z-vel      x-accl      y-accl      z-accl      x-coor      y-coor      z-coor
    22626 -5.12832E-05-5.21553E-04-6.23853E-01-1.09717E-03-1.11142E-02-3.11558E+00-1.14495E-02-1.06188E-01 5.16180E-02 4.79641E+01-2.20303E+01 6.71465E+00



 n o d a l   p r i n t   o u t   f o r   t i m e  s t e p     401                              ( at time 1.9997999E-01 )

 nodal point  x-rot      y-rot       z-rot       x-rot vel   y-rot vel   z-rot vel   x-rot acc   y-rot acc   z-rot acc
    22626  4.60248E-07 1.32973E-06 2.50207E-06 2.65908E-06 1.90565E-05 3.49554E-05 1.35256E-05 1.63355E-04 2.97459E-04



 n o d a l   p r i n t   o u t   f o r   t i m e  s t e p     601                              ( at time 2.9996998E-01 )

 nodal point  x-disp     y-disp      z-disp      x-vel       y-vel       z-vel      x-accl      y-accl      z-accl      x-coor      y-coor      z-coor
    22626 -2.45862E-05-1.97633E-03-9.35238E-01 1.65983E-03-1.60457E-02-3.11415E+00 2.75727E-02-4.93195E-02 1.43232E-02 4.79642E+01-2.20318E+01 6.40326E+00



 n o d a l   p r i n t   o u t   f o r   t i m e  s t e p     601                              ( at time 2.9996998E-01 )

 nodal point  x-rot      y-rot       z-rot       x-rot vel   y-rot vel   z-rot vel   x-rot acc   y-rot acc   z-rot acc
    22626  6.75316E-07 2.41135E-06 4.82747E-06 8.31126E-06 5.39071E-06 1.46990E-05 5.65274E-05-1.36672E-04-2.02584E-04



 n o d a l   p r i n t   o u t   f o r   t i m e  s t e p     801                              ( at time 3.9995997E-01 )

 nodal point  x-disp     y-disp      z-disp      x-vel       y-vel       z-vel      x-accl      y-accl      z-accl      x-coor      y-coor      z-coor
    22626  5.94850E-05-3.57404E-03-1.24663E+00 1.92890E-04-1.73913E-02-3.11353E+00-1.46708E-02-1.34574E-02 6.16612E-03 4.79642E+01-2.20334E+01 6.09187E+00



 n o d a l   p r i n t   o u t   f o r   t i m e  s t e p     801                              ( at time 3.9995997E-01 )

 nodal point  x-rot      y-rot       z-rot       x-rot vel   y-rot vel   z-rot vel   x-rot acc   y-rot acc   z-rot acc
    22626  1.58210E-06 3.68059E-06 6.68050E-06 6.27812E-06 2.41971E-05 3.81374E-05-2.03334E-05 1.88083E-04 2.34407E-04



 n o d a l   p r i n t   o u t   f o r   t i m e  s t e p    1001                              ( at time 4.9994997E-01 )

 nodal point  x-disp     y-disp      z-disp      x-vel       y-vel       z-vel      x-accl      y-accl      z-accl      x-coor      y-coor      z-coor
    22626  7.27317E-05-5.63145E-03-1.55782E+00 8.90864E-04-2.38475E-02-3.11085E+00 6.98044E-03-6.45686E-02 2.68295E-02 4.79643E+01-2.20354E+01 5.78068E+00



 n o d a l   p r i n t   o u t   f o r   t i m e  s t e p    1001                              ( at time 4.9994997E-01 )

 nodal point  x-rot      y-rot       z-rot       x-rot vel   y-rot vel   z-rot vel   x-rot acc   y-rot acc   z-rot acc
    22626  1.49460E-06 6.64813E-06 1.18363E-05-4.85608E-06 4.38302E-05 7.20065E-05-1.11353E-04 1.96350E-04 3.38725E-04



 n o d a l   p r i n t   o u t   f o r   t i m e  s t e p    1201                              ( at time 5.9993996E-01 )

 nodal point  x-disp     y-disp      z-disp      x-vel       y-vel       z-vel      x-accl      y-accl      z-accl      x-coor      y-coor      z-coor
    22626  5.29423E-05-8.13746E-03-1.86888E+00-5.63683E-04-2.61231E-02-3.11084E+00-1.45469E-02-2.27587E-02 1.14452E-04 4.79642E+01-2.20379E+01 5.46962E+00



 n o d a l   p r i n t   o u t   f o r   t i m e  s t e p    1201                              ( at time 5.9993996E-01 )

 nodal point  x-rot      y-rot       z-rot       x-rot vel   y-rot vel   z-rot vel   x-rot acc   y-rot acc   z-rot acc
    22626  1.26544E-06 9.87455E-06 1.77361E-05-2.22925E-06 2.63505E-05 5.29934E-05 2.62709E-05-1.74814E-04-1.90150E-04



 n o d a l   p r i n t   o u t   f o r   t i m e  s t e p    1401                              ( at time 6.9992995E-01 )

 nodal point  x-disp     y-disp      z-disp      x-vel       y-vel       z-vel      x-accl      y-accl      z-accl      x-coor      y-coor      z-coor
    22626  1.96864E-05-1.10207E-02-2.17976E+00 7.13918E-04-3.22454E-02-3.10770E+00 1.27773E-02-6.12289E-02 3.14315E-02 4.79642E+01-2.20408E+01 5.15874E+00



 n o d a l   p r i n t   o u t   f o r   t i m e  s t e p    1401                              ( at time 6.9992995E-01 )

 nodal point  x-rot      y-rot       z-rot       x-rot vel   y-rot vel   z-rot vel   x-rot acc   y-rot acc   z-rot acc
    22626  1.10176E-06 1.30693E-05 2.27045E-05-2.50039E-06 3.78580E-05 5.92704E-05-2.71161E-06 1.15087E-04 6.27759E-05



 n o d a l   p r i n t   o u t   f o r   t i m e  s t e p    1601                              ( at time 7.9991994E-01 )

 nodal point  x-disp     y-disp      z-disp      x-vel       y-vel       z-vel      x-accl      y-accl      z-accl      x-coor      y-coor      z-coor
    22626  1.33055E-04-1.45710E-02-2.49038E+00 1.37288E-03-3.68168E-02-3.10600E+00 6.59028E-03-4.57186E-02 1.69485E-02 4.79643E+01-2.20444E+01 4.84812E+00



 n o d a l   p r i n t   o u t   f o r   t i m e  s t e p    1601                              ( at time 7.9991994E-01 )

 nodal point  x-rot      y-rot       z-rot       x-rot vel   y-rot vel   z-rot vel   x-rot acc   y-rot acc   z-rot acc
    22626  1.00723E-06 1.72055E-05 2.96639E-05 3.01465E-06 4.87923E-05 7.64190E-05 5.51559E-05 1.09353E-04 1.71503E-04



 n o d a l   p r i n t   o u t   f o r   t i m e  s t e p    1801                              ( at time 8.9990994E-01 )

 nodal point  x-disp     y-disp      z-disp      x-vel       y-vel       z-vel      x-accl      y-accl      z-accl      x-coor      y-coor      z-coor
    22626  2.07379E-04-1.82141E-02-2.80104E+00-5.08152E-04-3.64324E-02-3.10742E+00-1.88122E-02 3.84455E-03-1.41945E-02 4.79644E+01-2.20480E+01 4.53746E+00



 n o d a l   p r i n t   o u t   f o r   t i m e  s t e p    1801                              ( at time 8.9990994E-01 )

 nodal point  x-rot      y-rot       z-rot       x-rot vel   y-rot vel   z-rot vel   x-rot acc   y-rot acc   z-rot acc
    22626  1.02474E-06 2.13204E-05 3.66577E-05-1.89040E-06 3.80149E-05 6.83734E-05-4.90554E-05-1.07784E-04-8.04635E-05



 n o d a l   p r i n t   o u t   f o r   t i m e  s t e p    2001                              ( at time 9.9989993E-01 )

 nodal point  x-disp     y-disp      z-disp      x-vel       y-vel       z-vel      x-accl      y-accl      z-accl      x-coor      y-coor      z-coor
    22626  1.09787E-04-2.19276E-02-3.11175E+00-8.16243E-04-3.84016E-02-3.10755E+00-3.08122E-03-1.96937E-02-1.32336E-03 4.79643E+01-2.20517E+01 4.22675E+00



 n o d a l   p r i n t   o u t   f o r   t i m e  s t e p    2001                              ( at time 9.9989993E-01 )

 nodal point  x-rot      y-rot       z-rot       x-rot vel   y-rot vel   z-rot vel   x-rot acc   y-rot acc   z-rot acc
    22626  8.56814E-07 2.55332E-05 4.38512E-05-9.16767E-07 4.61530E-05 8.59319E-05 9.73729E-06 8.13888E-05 1.75603E-04



 n o d a l   p r i n t   o u t   f o r   t i m e  s t e p    2201                              ( at time 1.0998899E+00 )

 nodal point  x-disp     y-disp      z-disp      x-vel       y-vel       z-vel      x-accl      y-accl      z-accl      x-coor      y-coor      z-coor
    22626  9.19090E-05-2.58761E-02-3.42246E+00-2.14009E-04-4.02587E-02-3.10712E+00 6.02295E-03-1.85731E-02 4.34919E-03 4.79643E+01-2.20557E+01 3.91605E+00



 n o d a l   p r i n t   o u t   f o r   t i m e  s t e p    2201                              ( at time 1.0998899E+00 )

 nodal point  x-rot      y-rot       z-rot       x-rot vel   y-rot vel   z-rot vel   x-rot acc   y-rot acc   z-rot acc
    22626  9.33596E-07 3.03118E-05 5.24800E-05 5.29936E-06 4.65332E-05 7.52568E-05 6.21675E-05 3.80196E-06-1.06762E-04



 n o d a l   p r i n t   o u t   f o r   t i m e  s t e p    2401                              ( at time 1.1998799E+00 )

 nodal point  x-disp     y-disp      z-disp      x-vel       y-vel       z-vel      x-accl      y-accl      z-accl      x-coor      y-coor      z-coor
    22626  1.34359E-04-2.98901E-02-3.73320E+00 7.37913E-04-3.98036E-02-3.10850E+00 9.52017E-03 4.55101E-03-1.37820E-02 4.79643E+01-2.20597E+01 3.60531E+00



 n o d a l   p r i n t   o u t   f o r   t i m e  s t e p    2401                              ( at time 1.1998799E+00 )

 nodal point  x-rot      y-rot       z-rot       x-rot vel   y-rot vel   z-rot vel   x-rot acc   y-rot acc   z-rot acc
    22626  1.33697E-06 3.44650E-05 5.93294E-05 5.02421E-06 3.99095E-05 6.55749E-05-2.75178E-06-6.62430E-05-9.68295E-05



 n o d a l   p r i n t   o u t   f o r   t i m e  s t e p    2601                              ( at time 1.2998699E+00 )

 nodal point  x-disp     y-disp      z-disp      x-vel       y-vel       z-vel      x-accl      y-accl      z-accl      x-coor      y-coor      z-coor
    22626  1.46158E-04-3.37304E-02-4.04413E+00-4.22935E-04-3.65933E-02-3.11132E+00-1.16096E-02 3.21065E-02-2.82840E-02 4.79643E+01-2.20635E+01 3.29437E+00



 n o d a l   p r i n t   o u t   f o r   t i m e  s t e p    2601                              ( at time 1.2998699E+00 )

 nodal point  x-rot      y-rot       z-rot       x-rot vel   y-rot vel   z-rot vel   x-rot acc   y-rot acc   z-rot acc
    22626  1.63961E-06 3.85430E-05 6.61333E-05-2.49319E-06 4.53442E-05 7.97788E-05-7.51815E-05 5.43525E-05 1.42054E-04



 n o d a l   p r i n t   o u t   f o r   t i m e  s t e p    2801                              ( at time 1.3998599E+00 )

 nodal point  x-disp     y-disp      z-disp      x-vel       y-vel       z-vel      x-accl      y-accl      z-accl      x-coor      y-coor      z-coor
    22626  3.21900E-05-3.71242E-02-4.35543E+00-1.30469E-03-3.14340E-02-3.11511E+00-8.81839E-03 5.15977E-02-3.78480E-02 4.79642E+01-2.20669E+01 2.98307E+00



 n o d a l   p r i n t   o u t   f o r   t i m e  s t e p    2801                              ( at time 1.3998599E+00 )

 nodal point  x-rot      y-rot       z-rot       x-rot vel   y-rot vel   z-rot vel   x-rot acc   y-rot acc   z-rot acc
    22626  1.20539E-06 4.29474E-05 7.39877E-05-4.53978E-06 4.44858E-05 7.34733E-05-2.04680E-05-8.58500E-06-6.30616E-05



 n o d a l   p r i n t   o u t   f o r   t i m e  s t e p    3001                              ( at time 1.4998499E+00 )

 nodal point  x-disp     y-disp      z-disp      x-vel       y-vel       z-vel      x-accl      y-accl      z-accl      x-coor      y-coor      z-coor
    22626 -7.76742E-05-4.01688E-02-4.66702E+00-4.96037E-04-2.97682E-02-3.11713E+00 8.08729E-03 1.66606E-02-2.02151E-02 4.79641E+01-2.20700E+01 2.67148E+00



 n o d a l   p r i n t   o u t   f o r   t i m e  s t e p    3001                              ( at time 1.4998499E+00 )

 nodal point  x-rot      y-rot       z-rot       x-rot vel   y-rot vel   z-rot vel   x-rot acc   y-rot acc   z-rot acc
    22626  8.27862E-07 4.68495E-05 8.05181E-05-1.61466E-06 3.19269E-05 5.70940E-05 2.92542E-05-1.25601E-04-1.63810E-04



 n o d a l   p r i n t   o u t   f o r   t i m e  s t e p    3201                              ( at time 1.5998399E+00 )

 nodal point  x-disp     y-disp      z-disp      x-vel       y-vel       z-vel      x-accl      y-accl      z-accl      x-coor      y-coor      z-coor
    22626 -1.24527E-04-4.30593E-02-4.97879E+00-6.96455E-04-2.75129E-02-3.11940E+00-2.00438E-03 2.25549E-02-2.26592E-02 4.79641E+01-2.20728E+01 2.35971E+00



 n o d a l   p r i n t   o u t   f o r   t i m e  s t e p    3201                              ( at time 1.5998399E+00 )

 nodal point  x-rot      y-rot       z-rot       x-rot vel   y-rot vel   z-rot vel   x-rot acc   y-rot acc   z-rot acc
    22626  5.15834E-07 4.99088E-05 8.53921E-05-1.54010E-06 3.26162E-05 4.79972E-05 7.45621E-07 6.89364E-06-9.09770E-05



 n o d a l   p r i n t   o u t   f o r   t i m e  s t e p    3401                              ( at time 1.6998299E+00 )

 nodal point  x-disp     y-disp      z-disp      x-vel       y-vel       z-vel      x-accl      y-accl      z-accl      x-coor      y-coor      z-coor
    22626 -2.11134E-04-4.55736E-02-5.29089E+00-1.12930E-03-2.24402E-02-3.12325E+00-4.32892E-03 5.07320E-02-3.85752E-02 4.79640E+01-2.20754E+01 2.04762E+00



 n o d a l   p r i n t   o u t   f o r   t i m e  s t e p    3401                              ( at time 1.6998299E+00 )

 nodal point  x-rot      y-rot       z-rot       x-rot vel   y-rot vel   z-rot vel   x-rot acc   y-rot acc   z-rot acc
    22626  3.02041E-07 5.29898E-05 9.04270E-05-3.71251E-06 2.98625E-05 4.78264E-05-2.17262E-05-2.75403E-05-1.70769E-06



 n o d a l   p r i n t   o u t   f o r   t i m e  s t e p    3601                              ( at time 1.7998199E+00 )

 nodal point  x-disp     y-disp      z-disp      x-vel       y-vel       z-vel      x-accl      y-accl      z-accl      x-coor      y-coor      z-coor
    22626 -3.12578E-04-4.75643E-02-5.60339E+00-1.32669E-03-1.77173E-02-3.12732E+00-1.97408E-03 4.72338E-02-4.07093E-02 4.79639E+01-2.20774E+01 1.73511E+00



 n o d a l   p r i n t   o u t   f o r   t i m e  s t e p    3601                              ( at time 1.7998199E+00 )

 nodal point  x-rot      y-rot       z-rot       x-rot vel   y-rot vel   z-rot vel   x-rot acc   y-rot acc   z-rot acc
    22626  1.56068E-07 5.57791E-05 9.51863E-05-3.27906E-07 2.13737E-05 4.20883E-05 3.38494E-05-8.48965E-05-5.73869E-05



 n o d a l   p r i n t   o u t   f o r   t i m e  s t e p    3801                              ( at time 1.8998099E+00 )

 nodal point  x-disp     y-disp      z-disp      x-vel       y-vel       z-vel      x-accl      y-accl      z-accl      x-coor      y-coor      z-coor
    22626 -5.00308E-04-4.92019E-02-5.91621E+00-2.16374E-03-1.51654E-02-3.12982E+00-8.37133E-03 2.55217E-02-2.49411E-02 4.79637E+01-2.20790E+01 1.42229E+00



 n o d a l   p r i n t   o u t   f o r   t i m e  s t e p    3801                              ( at time 1.8998099E+00 )

 nodal point  x-rot      y-rot       z-rot       x-rot vel   y-rot vel   z-rot vel   x-rot acc   y-rot acc   z-rot acc
    22626 -8.72247E-08 5.76772E-05 9.86023E-05 1.56157E-06 1.54686E-05 2.75208E-05 1.88967E-05-5.90568E-05-1.45690E-04



 n o d a l   p r i n t   o u t   f o r   t i m e  s t e p    4001                              ( at time 1.9997999E+00 )

 nodal point  x-disp     y-disp      z-disp      x-vel       y-vel       z-vel      x-accl      y-accl      z-accl      x-coor      y-coor      z-coor
    22626 -6.73753E-04-5.05923E-02-6.22929E+00-1.64820E-03-1.28108E-02-3.13210E+00 5.15593E-03 2.35482E-02-2.28261E-02 4.79635E+01-2.20804E+01 1.10921E+00



 n o d a l   p r i n t   o u t   f o r   t i m e  s t e p    4001                              ( at time 1.9997999E+00 )

 nodal point  x-rot      y-rot       z-rot       x-rot vel   y-rot vel   z-rot vel   x-rot acc   y-rot acc   z-rot acc
    22626  1.18411E-07 5.90107E-05 1.00912E-04 3.36914E-06 1.33699E-05 2.02900E-05 1.80775E-05-2.09886E-05-7.23149E-05



 n o d a l   p r i n t   o u t   f o r   t i m e  s t e p    4201                              ( at time 2.0997899E+00 )

 nodal point  x-disp     y-disp      z-disp      x-vel       y-vel       z-vel      x-accl      y-accl      z-accl      x-coor      y-coor      z-coor
    22626 -8.42768E-04-5.16833E-02-6.54262E+00-1.86258E-03-9.15405E-03-3.13519E+00-2.14401E-03 3.65710E-02-3.08616E-02 4.79633E+01-2.20815E+01 7.95877E-01



 n o d a l   p r i n t   o u t   f o r   t i m e  s t e p    4201                              ( at time 2.0997899E+00 )

 nodal point  x-rot      y-rot       z-rot       x-rot vel   y-rot vel   z-rot vel   x-rot acc   y-rot acc   z-rot acc
    22626  4.03973E-07 5.96557E-05 1.02004E-04-1.38025E-06 3.21853E-06 1.46665E-06-4.74987E-05-1.01524E-04-1.88253E-04



 n o d a l   p r i n t   o u t   f o r   t i m e  s t e p    4401                              ( at time 2.1997798E+00 )

 nodal point  x-disp     y-disp      z-disp      x-vel       y-vel       z-vel      x-accl      y-accl      z-accl      x-coor      y-coor      z-coor
    22626 -1.08495E-03-5.23700E-02-6.85629E+00-2.77358E-03-4.40655E-03-3.13895E+00-9.11089E-03 4.74798E-02-3.76239E-02 4.79631E+01-2.20822E+01 4.82212E-01



 n o d a l   p r i n t   o u t   f o r   t i m e  s t e p    4401                              ( at time 2.1997798E+00 )

 nodal point  x-rot      y-rot       z-rot       x-rot vel   y-rot vel   z-rot vel   x-rot acc   y-rot acc   z-rot acc
    22626  2.26941E-07 5.96464E-05 1.01933E-04-1.23068E-06-2.13483E-06-3.03777E-06 1.49583E-06-5.35390E-05-4.50488E-05



 n o d a l   p r i n t   o u t   f o r   t i m e  s t e p    4601                              ( at time 2.2997698E+00 )

 nodal point  x-disp     y-disp      z-disp      x-vel       y-vel       z-vel      x-accl      y-accl      z-accl      x-coor      y-coor      z-coor
    22626 -1.39402E-03-5.25653E-02-7.17034E+00-3.51214E-03-8.92191E-05-3.14228E+00-7.38638E-03 4.31776E-02-3.32937E-02 4.79628E+01-2.20824E+01 1.68163E-01



 n o d a l   p r i n t   o u t   f o r   t i m e  s t e p    4601                              ( at time 2.2997698E+00 )

 nodal point  x-rot      y-rot       z-rot       x-rot vel   y-rot vel   z-rot vel   x-rot acc   y-rot acc   z-rot acc
    22626 -1.63090E-07 5.93315E-05 1.01561E-04-4.51764E-06-9.69899E-06-1.29493E-05-3.28729E-05-7.56491E-05-9.91251E-05



 n o d a l   p r i n t   o u t   f o r   t i m e  s t e p    4801                              ( at time 2.3997598E+00 )

 nodal point  x-disp     y-disp      z-disp      x-vel       y-vel       z-vel      x-accl      y-accl      z-accl      x-coor      y-coor      z-coor
    22626 -1.76272E-03-5.24783E-02-7.48464E+00-3.61589E-03 1.86281E-03-3.14440E+00-1.03758E-03 1.95222E-02-2.12452E-02 4.79624E+01-2.20823E+01-1.46135E-01



 n o d a l   p r i n t   o u t   f o r   t i m e  s t e p    4801                              ( at time 2.3997598E+00 )

 nodal point  x-rot      y-rot       z-rot       x-rot vel   y-rot vel   z-rot vel   x-rot acc   y-rot acc   z-rot acc
    22626 -7.10819E-07 5.80678E-05 9.90772E-05-5.97513E-06-1.62875E-05-3.38316E-05-1.45764E-05-6.58922E-05-2.08845E-04



 n o d a l   p r i n t   o u t   f o r   t i m e  s t e p    5001                              ( at time 2.4997498E+00 )

 nodal point  x-disp     y-disp      z-disp      x-vel       y-vel       z-vel      x-accl      y-accl      z-accl      x-coor      y-coor      z-coor
    22626 -2.15596E-03-5.21708E-02-7.79916E+00-4.23872E-03 4.96122E-03-3.14711E+00-6.22889E-03 3.09872E-02-2.70536E-02 4.79620E+01-2.20820E+01-4.60661E-01



 n o d a l   p r i n t   o u t   f o r   t i m e  s t e p    5001                              ( at time 2.4997498E+00 )

 nodal point  x-rot      y-rot       z-rot       x-rot vel   y-rot vel   z-rot vel   x-rot acc   y-rot acc   z-rot acc
    22626 -1.15938E-06 5.58326E-05 9.51076E-05-4.09814E-06-2.63630E-05-4.85980E-05 1.87718E-05-1.00765E-04-1.47678E-04



 n o d a l   p r i n t   o u t   f o r   t i m e  s t e p    5201                              ( at time 2.5997398E+00 )

 nodal point  x-disp     y-disp      z-disp      x-vel       y-vel       z-vel      x-accl      y-accl      z-accl      x-coor      y-coor      z-coor
    22626 -2.63043E-03-5.14567E-02-8.11403E+00-5.25417E-03 9.27100E-03-3.15070E+00-1.01555E-02 4.31022E-02-3.58999E-02 4.79615E+01-2.20812E+01-7.75526E-01



 n o d a l   p r i n t   o u t   f o r   t i m e  s t e p    5201                              ( at time 2.5997398E+00 )

 nodal point  x-rot      y-rot       z-rot       x-rot vel   y-rot vel   z-rot vel   x-rot acc   y-rot acc   z-rot acc
    22626 -1.52966E-06 5.27261E-05 8.96680E-05-4.79692E-06-3.57847E-05-6.23313E-05-6.98849E-06-9.42266E-05-1.37346E-04



 n o d a l   p r i n t   o u t   f o r   t i m e  s t e p    5401                              ( at time 2.6997298E+00 )

 nodal point  x-disp     y-disp      z-disp      x-vel       y-vel       z-vel      x-accl      y-accl      z-accl      x-coor      y-coor      z-coor
    22626 -3.20004E-03-5.03220E-02-8.42924E+00-6.42773E-03 1.29745E-02-3.15421E+00-1.17368E-02 3.70382E-02-3.51941E-02 4.79610E+01-2.20801E+01-1.09074E+00



 n o d a l   p r i n t   o u t   f o r   t i m e  s t e p    5401                              ( at time 2.6997298E+00 )

 nodal point  x-rot      y-rot       z-rot       x-rot vel   y-rot vel   z-rot vel   x-rot acc   y-rot acc   z-rot acc
    22626 -1.83054E-06 4.89774E-05 8.31665E-05-1.81695E-06-4.15195E-05-6.69158E-05 2.98027E-05-5.73527E-05-4.58502E-05



 n o d a l   p r i n t   o u t   f o r   t i m e  s t e p    5601                              ( at time 2.7997198E+00 )

 nodal point  x-disp     y-disp      z-disp      x-vel       y-vel       z-vel      x-accl      y-accl      z-accl      x-coor      y-coor      z-coor
    22626 -3.91392E-03-4.88976E-02-8.74475E+00-7.68331E-03 1.51500E-02-3.15635E+00-1.25570E-02 2.17579E-02-2.13859E-02 4.79603E+01-2.20787E+01-1.40625E+00



 n o d a l   p r i n t   o u t   f o r   t i m e  s t e p    5601                              ( at time 2.7997198E+00 )

 nodal point  x-rot      y-rot       z-rot       x-rot vel   y-rot vel   z-rot vel   x-rot acc   y-rot acc   z-rot acc
    22626 -1.96194E-06 4.40809E-05 7.50568E-05 3.95315E-07-5.72628E-05-9.85214E-05 2.21249E-05-1.57450E-04-3.16088E-04



 n o d a l   p r i n t   o u t   f o r   t i m e  s t e p    5801                              ( at time 2.8997098E+00 )

 nodal point  x-disp     y-disp      z-disp      x-vel       y-vel       z-vel      x-accl      y-accl      z-accl      x-coor      y-coor      z-coor
    22626 -4.68565E-03-4.73292E-02-9.06044E+00-7.81750E-03 1.61374E-02-3.15804E+00-1.34199E-03 9.87468E-03-1.68579E-02 4.79595E+01-2.20771E+01-1.72194E+00



 n o d a l   p r i n t   o u t   f o r   t i m e  s t e p    5801                              ( at time 2.8997098E+00 )

 nodal point  x-rot      y-rot       z-rot       x-rot vel   y-rot vel   z-rot vel   x-rot acc   y-rot acc   z-rot acc
    22626 -1.76346E-06 3.76394E-05 6.41499E-05 2.40830E-06-6.64616E-05-1.15238E-04 2.01319E-05-9.19973E-05-1.67188E-04



 n o d a l   p r i n t   o u t   f o r   t i m e  s t e p    6001                              ( at time 2.9996998E+00 )

 nodal point  x-disp     y-disp      z-disp      x-vel       y-vel       z-vel      x-accl      y-accl      z-accl      x-coor      y-coor      z-coor
    22626 -5.50597E-03-4.55974E-02-9.37632E+00-8.82610E-03 1.86381E-02-3.16041E+00-1.00871E-02 2.50097E-02-2.37560E-02 4.79587E+01-2.20754E+01-2.03782E+00



 n o d a l   p r i n t   o u t   f o r   t i m e  s t e p    6001                              ( at time 2.9996998E+00 )

 nodal point  x-rot      y-rot       z-rot       x-rot vel   y-rot vel   z-rot vel   x-rot acc   y-rot acc   z-rot acc
    22626 -1.53302E-06 3.07788E-05 5.25850E-05 5.13505E-07-7.10302E-05-1.21070E-04-1.89498E-05-4.56900E-05-5.83252E-05



 n o d a l   p r i n t   o u t   f o r   t i m e  s t e p    6201                              ( at time 3.0996898E+00 )

 nodal point  x-disp     y-disp      z-disp      x-vel       y-vel       z-vel      x-accl      y-accl      z-accl      x-coor      y-coor      z-coor
    22626 -6.47129E-03-4.36163E-02-9.69245E+00-1.04101E-02 2.05630E-02-3.16240E+00-1.58413E-02 1.92507E-02-1.98504E-02 4.79577E+01-2.20734E+01-2.35395E+00



 n o d a l   p r i n t   o u t   f o r   t i m e  s t e p    6201                              ( at time 3.0996898E+00 )

 nodal point  x-rot      y-rot       z-rot       x-rot vel   y-rot vel   z-rot vel   x-rot acc   y-rot acc   z-rot acc
    22626 -1.57923E-06 2.34195E-05 3.99562E-05-1.93682E-06-7.56349E-05-1.33465E-04-2.45058E-05-4.60522E-05-1.23957E-04



 n o d a l   p r i n t   o u t   f o r   t i m e  s t e p    6401                              ( at time 3.1996798E+00 )

 nodal point  x-disp     y-disp      z-disp      x-vel       y-vel       z-vel      x-accl      y-accl      z-accl      x-coor      y-coor      z-coor
    22626 -7.54245E-03-4.15857E-02-1.00087E+01-1.09362E-02 1.97550E-02-3.16298E+00-5.26204E-03-8.08084E-03-5.79414E-03 4.79566E+01-2.20714E+01-2.67020E+00



 n o d a l   p r i n t   o u t   f o r   t i m e  s t e p    6401                              ( at time 3.1996798E+00 )

 nodal point  x-rot      y-rot       z-rot       x-rot vel   y-rot vel   z-rot vel   x-rot acc   y-rot acc   z-rot acc
    22626 -1.71250E-06 1.53441E-05 2.63602E-05-1.53738E-06-8.52623E-05-1.43800E-04 3.99486E-06-9.62829E-05-1.03363E-04



 n o d a l   p r i n t   o u t   f o r   t i m e  s t e p    6601                              ( at time 3.2996698E+00 )

 nodal point  x-disp     y-disp      z-disp      x-vel       y-vel       z-vel      x-accl      y-accl      z-accl      x-coor      y-coor      z-coor
    22626 -8.64832E-03-3.97061E-02-1.03249E+01-1.11947E-02 1.78244E-02-3.16270E+00-2.58488E-03-1.93083E-02 2.81839E-03 4.79555E+01-2.20695E+01-2.98645E+00



 n o d a l   p r i n t   o u t   f o r   t i m e  s t e p    6601                              ( at time 3.2996698E+00 )

 nodal point  x-rot      y-rot       z-rot       x-rot vel   y-rot vel   z-rot vel   x-rot acc   y-rot acc   z-rot acc
    22626 -1.97842E-06 6.65136E-06 1.15981E-05-2.47189E-06-8.95561E-05-1.51576E-04-9.34605E-06-4.29428E-05-7.77656E-05



 n o d a l   p r i n t   o u t   f o r   t i m e  s t e p    6801                              ( at time 3.3996598E+00 )

 nodal point  x-disp     y-disp      z-disp      x-vel       y-vel       z-vel      x-accl      y-accl      z-accl      x-coor      y-coor      z-coor
    22626 -9.79881E-03-3.80149E-02-1.06412E+01-1.16965E-02 1.60306E-02-3.16262E+00-5.01889E-03-1.79394E-02 7.53477E-04 4.79544E+01-2.20678E+01-3.30268E+00



 n o d a l   p r i n t   o u t   f o r   t i m e  s t e p    6801                              ( at time 3.3996598E+00 )

 nodal point  x-rot      y-rot       z-rot       x-rot vel   y-rot vel   z-rot vel   x-rot acc   y-rot acc   z-rot acc
    22626 -2.02635E-06-2.24177E-06-3.69729E-06-2.48179E-06-8.79859E-05-1.53193E-04-9.89924E-08 1.57036E-05-1.61752E-05



 n o d a l   p r i n t   o u t   f o r   t i m e  s t e p    7001                              ( at time 3.4996498E+00 )

 nodal point  x-disp     y-disp      z-disp      x-vel       y-vel       z-vel      x-accl      y-accl      z-accl      x-coor      y-coor      z-coor
    22626 -1.09965E-02-3.64853E-02-1.09574E+01-1.23295E-02 1.44965E-02-3.16281E+00-6.33082E-03-1.53426E-02-1.93854E-03 4.79532E+01-2.20663E+01-3.61893E+00



 n o d a l   p r i n t   o u t   f o r   t i m e  s t e p    7001                              ( at time 3.4996498E+00 )

 nodal point  x-rot      y-rot       z-rot       x-rot vel   y-rot vel   z-rot vel   x-rot acc   y-rot acc   z-rot acc
    22626 -2.01938E-06-1.09066E-05-1.85279E-05 5.59521E-07-8.73100E-05-1.47549E-04 3.04161E-05 6.75968E-06 5.64527E-05



 n o d a l   p r i n t   o u t   f o r   t i m e  s t e p    7201                              ( at time 3.5996397E+00 )

 nodal point  x-disp     y-disp      z-disp      x-vel       y-vel       z-vel      x-accl      y-accl      z-accl      x-coor      y-coor      z-coor
    22626 -1.22511E-02-3.51426E-02-1.12737E+01-1.24108E-02 1.20882E-02-3.16261E+00-8.12968E-04-2.40854E-02 2.05299E-03 4.79519E+01-2.20649E+01-3.93517E+00



 n o d a l   p r i n t   o u t   f o r   t i m e  s t e p    7201                              ( at time 3.5996397E+00 )

 nodal point  x-rot      y-rot       z-rot       x-rot vel   y-rot vel   z-rot vel   x-rot acc   y-rot acc   z-rot acc
    22626 -2.02738E-06-1.95311E-05-3.30137E-05 2.16933E-06-8.47843E-05-1.38687E-04 1.60998E-05 2.52594E-05 8.86223E-05



 n o d a l   p r i n t   o u t   f o r   t i m e  s t e p    7401                              ( at time 3.6996297E+00 )

 nodal point  x-disp     y-disp      z-disp      x-vel       y-vel       z-vel      x-accl      y-accl      z-accl      x-coor      y-coor      z-coor
    22626 -1.34810E-02-3.40991E-02-1.15899E+01-1.21397E-02 8.70655E-03-3.16159E+00 2.71153E-03-3.38197E-02 1.01600E-02 4.79507E+01-2.20639E+01-4.25135E+00



 n o d a l   p r i n t   o u t   f o r   t i m e  s t e p    7401                              ( at time 3.6996297E+00 )

 nodal point  x-rot      y-rot       z-rot       x-rot vel   y-rot vel   z-rot vel   x-rot acc   y-rot acc   z-rot acc
    22626 -1.77286E-06-2.78214E-05-4.68083E-05 3.73906E-06-8.12345E-05-1.36412E-04 1.56989E-05 3.55023E-05 2.27547E-05



 n o d a l   p r i n t   o u t   f o r   t i m e  s t e p    7601                              ( at time 3.7996197E+00 )

 nodal point  x-disp     y-disp      z-disp      x-vel       y-vel       z-vel      x-accl      y-accl      z-accl      x-coor      y-coor      z-coor
    22626 -1.46660E-02-3.33666E-02-1.19059E+01-1.15886E-02 6.00223E-03-3.16088E+00 5.51184E-03-2.70460E-02 7.08890E-03 4.79495E+01-2.20632E+01-4.56744E+00



 n o d a l   p r i n t   o u t   f o r   t i m e  s t e p    7601                              ( at time 3.7996197E+00 )

 nodal point  x-rot      y-rot       z-rot       x-rot vel   y-rot vel   z-rot vel   x-rot acc   y-rot acc   z-rot acc
    22626 -1.30818E-06-3.56368E-05-6.00760E-05 5.23673E-06-7.26234E-05-1.22173E-04 1.49782E-05 8.61197E-05 1.42409E-04



 n o d a l   p r i n t   o u t   f o r   t i m e  s t e p    7801                              ( at time 3.8996097E+00 )

 nodal point  x-disp     y-disp      z-disp      x-vel       y-vel       z-vel      x-accl      y-accl      z-accl      x-coor      y-coor      z-coor
    22626 -1.57934E-02-3.28659E-02-1.22220E+01-1.09396E-02 4.21642E-03-3.16081E+00 6.49035E-03-1.78599E-02 7.84475E-04 4.79484E+01-2.20627E+01-4.88349E+00



 n o d a l   p r i n t   o u t   f o r   t i m e  s t e p    7801                              ( at time 3.8996097E+00 )

 nodal point  x-rot      y-rot       z-rot       x-rot vel   y-rot vel   z-rot vel   x-rot acc   y-rot acc   z-rot acc
    22626 -9.43320E-07-4.22408E-05-7.12015E-05 5.96440E-07-5.76012E-05-9.62381E-05-4.64075E-05 1.50236E-04 2.59370E-04



 n o d a l   p r i n t   o u t   f o r   t i m e  s t e p    8001                              ( at time 3.9995997E+00 )

 nodal point  x-disp     y-disp      z-disp      x-vel       y-vel       z-vel      x-accl      y-accl      z-accl      x-coor      y-coor      z-coor
    22626 -1.68610E-02-3.24957E-02-1.25381E+01-1.03845E-02 3.14356E-03-3.16114E+00 5.55158E-03-1.07297E-02-3.35966E-03 4.79473E+01-2.20623E+01-5.19956E+00



 n o d a l   p r i n t   o u t   f o r   t i m e  s t e p    8001                              ( at time 3.9995997E+00 )

 nodal point  x-rot      y-rot       z-rot       x-rot vel   y-rot vel   z-rot vel   x-rot acc   y-rot acc   z-rot acc
    22626 -8.12857E-07-4.74916E-05-7.98871E-05-7.01989E-08-4.67237E-05-7.98034E-05-6.66706E-06 1.08786E-04 1.64364E-04



 n o d a l   p r i n t   o u t   f o r   t i m e  s t e p    8201                              ( at time 4.0995897E+00 )

 nodal point  x-disp     y-disp      z-disp      x-vel       y-vel       z-vel      x-accl      y-accl      z-accl      x-coor      y-coor      z-coor
    22626 -1.78174E-02-3.22963E-02-1.28541E+01-8.60414E-03 6.33272E-04-3.16064E+00 1.78054E-02-2.51053E-02 5.05736E-03 4.79464E+01-2.20621E+01-5.51562E+00



 n o d a l   p r i n t   o u t   f o r   t i m e  s t e p    8201                              ( at time 4.0995897E+00 )

 nodal point  x-rot      y-rot       z-rot       x-rot vel   y-rot vel   z-rot vel   x-rot acc   y-rot acc   z-rot acc
    22626 -8.19694E-07-5.16214E-05-8.68591E-05-2.35891E-07-3.23347E-05-5.65584E-05-1.65709E-06 1.43904E-04 2.32474E-04



 n o d a l   p r i n t   o u t   f o r   t i m e  s t e p    8401                              ( at time 4.1995797E+00 )

 nodal point  x-disp     y-disp      z-disp      x-vel       y-vel       z-vel      x-accl      y-accl      z-accl      x-coor      y-coor      z-coor
    22626 -1.85987E-02-3.23588E-02-1.31701E+01-6.97354E-03-1.79654E-03-3.16004E+00 1.63077E-02-2.43006E-02 5.91815E-03 4.79456E+01-2.20621E+01-5.83162E+00



 n o d a l   p r i n t   o u t   f o r   t i m e  s t e p    8401                              ( at time 4.1995797E+00 )

 nodal point  x-rot      y-rot       z-rot       x-rot vel   y-rot vel   z-rot vel   x-rot acc   y-rot acc   z-rot acc
    22626 -7.99958E-07-5.40036E-05-9.08176E-05-1.05257E-07-1.40344E-05-2.30053E-05 1.30648E-06 1.83022E-04 3.35565E-04



 n o d a l   p r i n t   o u t   f o r   t i m e  s t e p    8601                              ( at time 4.2995697E+00 )

 nodal point  x-disp     y-disp      z-disp      x-vel       y-vel       z-vel      x-accl      y-accl      z-accl      x-coor      y-coor      z-coor
    22626 -1.92321E-02-3.26575E-02-1.34861E+01-5.55779E-03-3.88222E-03-3.15987E+00 1.41589E-02-2.08589E-02 1.75971E-03 4.79449E+01-2.20624E+01-6.14757E+00



 n o d a l   p r i n t   o u t   f o r   t i m e  s t e p    8601                              ( at time 4.2995697E+00 )

 nodal point  x-rot      y-rot       z-rot       x-rot vel   y-rot vel   z-rot vel   x-rot acc   y-rot acc   z-rot acc
    22626 -8.25371E-07-5.44438E-05-9.16737E-05-5.06300E-07 2.83616E-06 4.71037E-06-4.01084E-06 1.68723E-04 2.77185E-04



 n o d a l   p r i n t   o u t   f o r   t i m e  s t e p    8801                              ( at time 4.3995597E+00 )

 nodal point  x-disp     y-disp      z-disp      x-vel       y-vel       z-vel      x-accl      y-accl      z-accl      x-coor      y-coor      z-coor
    22626 -1.96982E-02-3.30862E-02-1.38021E+01-3.80285E-03-4.73603E-03-3.16048E+00 1.75512E-02-8.53894E-03-6.07313E-03 4.79445E+01-2.20629E+01-6.46355E+00



 n o d a l   p r i n t   o u t   f o r   t i m e  s t e p    8801                              ( at time 4.3995597E+00 )

 nodal point  x-rot      y-rot       z-rot       x-rot vel   y-rot vel   z-rot vel   x-rot acc   y-rot acc   z-rot acc
    22626 -7.97338E-07-5.31679E-05-8.93547E-05 7.68913E-07 2.21356E-05 4.00098E-05 1.27534E-05 1.93014E-04 3.53030E-04



 n o d a l   p r i n t   o u t   f o r   t i m e  s t e p    9001                              ( at time 4.4995497E+00 )

 nodal point  x-disp     y-disp      z-disp      x-vel       y-vel       z-vel      x-accl      y-accl      z-accl      x-coor      y-coor      z-coor
    22626 -1.99958E-02-3.36556E-02-1.41181E+01-2.04599E-03-6.99839E-03-3.16010E+00 1.75703E-02-2.26258E-02 3.76499E-03 4.79442E+01-2.20634E+01-6.77956E+00



 n o d a l   p r i n t   o u t   f o r   t i m e  s t e p    9001                              ( at time 4.4995497E+00 )

 nodal point  x-rot      y-rot       z-rot       x-rot vel   y-rot vel   z-rot vel   x-rot acc   y-rot acc   z-rot acc
    22626 -6.62195E-07-4.97081E-05-8.32492E-05 3.56499E-06 4.38777E-05 7.64942E-05 2.79634E-05 2.17442E-04 3.64879E-04



 n o d a l   p r i n t   o u t   f o r   t i m e  s t e p    9201                              ( at time 4.5995397E+00 )

 nodal point  x-disp     y-disp      z-disp      x-vel       y-vel       z-vel      x-accl      y-accl      z-accl      x-coor      y-coor      z-coor
    22626 -2.01069E-02-3.45094E-02-1.44340E+01-1.15679E-04-9.89796E-03-3.15950E+00 1.93051E-02-2.89986E-02 5.97060E-03 4.79441E+01-2.20643E+01-7.09550E+00



 n o d a l   p r i n t   o u t   f o r   t i m e  s t e p    9201                              ( at time 4.5995397E+00 )

 nodal point  x-rot      y-rot       z-rot       x-rot vel   y-rot vel   z-rot vel   x-rot acc   y-rot acc   z-rot acc
    22626 -3.55885E-07-4.44881E-05-7.41434E-05 4.12312E-06 5.99615E-05 1.02906E-04 5.58190E-06 1.60855E-04 2.64147E-04



 n o d a l   p r i n t   o u t   f o r   t i m e  s t e p    9401                              ( at time 4.6995297E+00 )

 nodal point  x-disp     y-disp      z-disp      x-vel       y-vel       z-vel      x-accl      y-accl      z-accl      x-coor      y-coor      z-coor
    22626 -2.00022E-02-3.55797E-02-1.47499E+01 2.12506E-03-1.15021E-02-3.15935E+00 2.24097E-02-1.60431E-02 1.47596E-03 4.79442E+01-2.20654E+01-7.41142E+00



 n o d a l   p r i n t   o u t   f o r   t i m e  s t e p    9401                              ( at time 4.6995297E+00 )

 nodal point  x-rot      y-rot       z-rot       x-rot vel   y-rot vel   z-rot vel   x-rot acc   y-rot acc   z-rot acc
    22626  1.93825E-08-3.73368E-05-6.17085E-05 2.69979E-06 8.47539E-05 1.45668E-04-1.42347E-05 2.47949E-04 4.27663E-04



 n o d a l   p r i n t   o u t   f o r   t i m e  s t e p    9601                              ( at time 4.7995197E+00 )

 nodal point  x-disp     y-disp      z-disp      x-vel       y-vel       z-vel      x-accl      y-accl      z-accl      x-coor      y-coor      z-coor
    22626 -1.96909E-02-3.68015E-02-1.50658E+01 3.99819E-03-1.27545E-02-3.15962E+00 1.87332E-02-1.25254E-02-2.68725E-03 4.79445E+01-2.20666E+01-7.72733E+00



 n o d a l   p r i n t   o u t   f o r   t i m e  s t e p    9601                              ( at time 4.7995197E+00 )

 nodal point  x-rot      y-rot       z-rot       x-rot vel   y-rot vel   z-rot vel   x-rot acc   y-rot acc   z-rot acc
    22626  3.21284E-07-2.76312E-05-4.50651E-05-2.84332E-07 1.09327E-04 1.87243E-04-2.98442E-05 2.45754E-04 4.15792E-04



 n o d a l   p r i n t   o u t   f o r   t i m e  s t e p    9801                              ( at time 4.8995097E+00 )

 nodal point  x-disp     y-disp      z-disp      x-vel       y-vel       z-vel      x-accl      y-accl      z-accl      x-coor      y-coor      z-coor
    22626 -1.92016E-02-3.81276E-02-1.53818E+01 5.77779E-03-1.38608E-02-3.15987E+00 1.77978E-02-1.10641E-02-2.43688E-03 4.79450E+01-2.20679E+01-8.04328E+00



 n o d a l   p r i n t   o u t   f o r   t i m e  s t e p    9801                              ( at time 4.8995097E+00 )

 nodal point  x-rot      y-rot       z-rot       x-rot vel   y-rot vel   z-rot vel   x-rot acc   y-rot acc   z-rot acc
    22626  3.48973E-07-1.57921E-05-2.47164E-05-9.40498E-07 1.26234E-04 2.16677E-04-6.56232E-06 1.69088E-04 2.94365E-04



 n o d a l   p r i n t   o u t   f o r   t i m e  s t e p   10001                              ( at time 4.9994997E+00 )

 nodal point  x-disp     y-disp      z-disp      x-vel       y-vel       z-vel      x-accl      y-accl      z-accl      x-coor      y-coor      z-coor
    22626 -1.85055E-02-3.96089E-02-1.56977E+01 8.23359E-03-1.59814E-02-3.15945E+00 2.45604E-02-2.12082E-02 4.15365E-03 4.79457E+01-2.20694E+01-8.35922E+00



 n o d a l   p r i n t   o u t   f o r   t i m e  s t e p   10001                              ( at time 4.9994997E+00 )

 nodal point  x-rot      y-rot       z-rot       x-rot vel   y-rot vel   z-rot vel   x-rot acc   y-rot acc   z-rot acc
    22626  1.68318E-07-2.21314E-06-1.38569E-06-4.95937E-06 1.46580E-04 2.53841E-04-4.01926E-05 2.03481E-04 3.71680E-04



 n o d a l   p r i n t   o u t   f o r   t i m e  s t e p   10202                              ( at time 5.0999896E+00 )

 nodal point  x-disp     y-disp      z-disp      x-vel       y-vel       z-vel      x-accl      y-accl      z-accl      x-coor      y-coor      z-coor
    22626 -1.75708E-02-4.12903E-02-1.60151E+01 1.01380E-02-1.68482E-02-3.15735E+00 1.89513E-02-8.62516E-03 2.09427E-02 4.79466E+01-2.20711E+01-8.67661E+00



 n o d a l   p r i n t   o u t   f o r   t i m e  s t e p   10202                              ( at time 5.0999896E+00 )

 nodal point  x-rot      y-rot       z-rot       x-rot vel   y-rot vel   z-rot vel   x-rot acc   y-rot acc   z-rot acc
    22626 -3.12871E-07 1.46012E-05 2.57469E-05 2.42214E-06 1.86382E-04 2.81730E-04 7.34555E-05 3.96077E-04 2.77530E-04



 n o d a l   p r i n t   o u t   f o r   t i m e  s t e p   10402                              ( at time 5.1999796E+00 )

 nodal point  x-disp     y-disp      z-disp      x-vel       y-vel       z-vel      x-accl      y-accl      z-accl      x-coor      y-coor      z-coor
    22626 -1.64602E-02-4.29758E-02-1.63307E+01 1.17899E-02-1.64854E-02-3.15373E+00 1.65210E-02 3.62766E-03 3.61573E-02 4.79477E+01-2.20728E+01-8.99218E+00



 n o d a l   p r i n t   o u t   f o r   t i m e  s t e p   10402                              ( at time 5.1999796E+00 )

 nodal point  x-rot      y-rot       z-rot       x-rot vel   y-rot vel   z-rot vel   x-rot acc   y-rot acc   z-rot acc
    22626  4.21545E-07 3.62978E-05 5.56196E-05 9.39524E-06 2.51690E-04 3.10358E-04 6.97377E-05 6.53147E-04 2.86304E-04



 n o d a l   p r i n t   o u t   f o r   t i m e  s t e p   10602                              ( at time 5.2999696E+00 )

 nodal point  x-disp     y-disp      z-disp      x-vel       y-vel       z-vel      x-accl      y-accl      z-accl      x-coor      y-coor      z-coor
    22626 -1.52210E-02-4.45339E-02-1.66456E+01 1.26903E-02-1.37779E-02-3.14529E+00 9.00436E-03 2.70779E-02 8.44039E-02 4.79490E+01-2.20743E+01-9.30711E+00



 n o d a l   p r i n t   o u t   f o r   t i m e  s t e p   10602                              ( at time 5.2999696E+00 )

 nodal point  x-rot      y-rot       z-rot       x-rot vel   y-rot vel   z-rot vel   x-rot acc   y-rot acc   z-rot acc
    22626  2.98415E-06 6.68908E-05 8.65709E-05 5.98781E-05 3.62066E-04 3.01799E-04 5.04879E-04 1.10387E-03-8.55917E-05



 n o d a l   p r i n t   o u t   f o r   t i m e  s t e p   10802                              ( at time 5.3999596E+00 )

 nodal point  x-disp     y-disp      z-disp      x-vel       y-vel       z-vel      x-accl      y-accl      z-accl      x-coor      y-coor      z-coor
    22626 -1.38703E-02-4.58354E-02-1.69594E+01 1.42903E-02-1.16042E-02-3.12987E+00 1.60019E-02 2.17392E-02 1.54249E-01 4.79503E+01-2.20756E+01-9.62094E+00



 n o d a l   p r i n t   o u t   f o r   t i m e  s t e p   10802                              ( at time 5.3999596E+00 )

 nodal point  x-rot      y-rot       z-rot       x-rot vel   y-rot vel   z-rot vel   x-rot acc   y-rot acc   z-rot acc
    22626  1.21083E-05 1.11275E-04 1.17450E-04 1.21178E-04 5.22402E-04 3.00943E-04 6.13064E-04 1.60352E-03-8.56525E-06



 n o d a l   p r i n t   o u t   f o r   t i m e  s t e p   11002                              ( at time 5.4999496E+00 )

 nodal point  x-disp     y-disp      z-disp      x-vel       y-vel       z-vel      x-accl      y-accl      z-accl      x-coor      y-coor      z-coor
    22626 -1.22894E-02-4.67925E-02-1.72716E+01 1.71102E-02-8.47759E-03-3.11167E+00 2.82016E-02 3.12695E-02 1.81982E-01 4.79519E+01-2.20766E+01-9.93306E+00



 n o d a l   p r i n t   o u t   f o r   t i m e  s t e p   11002                              ( at time 5.4999496E+00 )

 nodal point  x-rot      y-rot       z-rot       x-rot vel   y-rot vel   z-rot vel   x-rot acc   y-rot acc   z-rot acc
    22626  2.88209E-05 1.72019E-04 1.45449E-04 2.07598E-04 7.24506E-04 2.79786E-04 8.64284E-04 2.02124E-03-2.11590E-04



 n o d a l   p r i n t   o u t   f o r   t i m e  s t e p   11202                              ( at time 5.5999396E+00 )

 nodal point  x-disp     y-disp      z-disp      x-vel       y-vel       z-vel      x-accl      y-accl      z-accl      x-coor      y-coor      z-coor
    22626 -1.05218E-02-4.72947E-02-1.75815E+01 1.86407E-02-1.94574E-03-3.08947E+00 1.53061E-02 6.53251E-02 2.22038E-01 4.79537E+01-2.20771E+01-1.02430E+01



 n o d a l   p r i n t   o u t   f o r   t i m e  s t e p   11202                              ( at time 5.5999396E+00 )

 nodal point  x-rot      y-rot       z-rot       x-rot vel   y-rot vel   z-rot vel   x-rot acc   y-rot acc   z-rot acc
    22626  5.65362E-05 2.54447E-04 1.70009E-04 3.38449E-04 9.26549E-04 2.24721E-04 1.30865E-03 2.02063E-03-5.50708E-04



 n o d a l   p r i n t   o u t   f o r   t i m e  s t e p   11402                              ( at time 5.6999296E+00 )

 nodal point  x-disp     y-disp      z-disp      x-vel       y-vel       z-vel      x-accl      y-accl      z-accl      x-coor      y-coor      z-coor
    22626 -8.50803E-03-4.72244E-02-1.78891E+01 2.03876E-02 4.08167E-03-3.06165E+00 1.74708E-02 6.02799E-02 2.78230E-01 4.79557E+01-2.20770E+01-1.05506E+01



 n o d a l   p r i n t   o u t   f o r   t i m e  s t e p   11402                              ( at time 5.6999296E+00 )

 nodal point  x-rot      y-rot       z-rot       x-rot vel   y-rot vel   z-rot vel   x-rot acc   y-rot acc   z-rot acc
    22626  9.50977E-05 3.61484E-04 1.91135E-04 4.61826E-04 1.21490E-03 1.72698E-04 1.23389E-03 2.88376E-03-5.20274E-04



 n o d a l   p r i n t   o u t   f o r   t i m e  s t e p   11602                              ( at time 5.7999195E+00 )

 nodal point  x-disp     y-disp      z-disp      x-vel       y-vel       z-vel      x-accl      y-accl      z-accl      x-coor      y-coor      z-coor
    22626 -6.30791E-03-4.64601E-02-1.81938E+01 2.31660E-02 1.06272E-02-3.03358E+00 2.77870E-02 6.54622E-02 2.80692E-01 4.79579E+01-2.20763E+01-1.08553E+01



 n o d a l   p r i n t   o u t   f o r   t i m e  s t e p   11602                              ( at time 5.7999195E+00 )

 nodal point  x-rot      y-rot       z-rot       x-rot vel   y-rot vel   z-rot vel   x-rot acc   y-rot acc   z-rot acc
    22626  1.48162E-04 4.95032E-04 2.06001E-04 5.94063E-04 1.47770E-03 1.11975E-04 1.32251E-03 2.62833E-03-6.07295E-04



 n o d a l   p r i n t   o u t   f o r   t i m e  s t e p   11802                              ( at time 5.8999095E+00 )

 nodal point  x-disp     y-disp      z-disp      x-vel       y-vel       z-vel      x-accl      y-accl      z-accl      x-coor      y-coor      z-coor
    22626 -3.85888E-03-4.51646E-02-1.84954E+01 2.60234E-02 1.55903E-02-2.99822E+00 2.85766E-02 4.96360E-02 3.53661E-01 4.79603E+01-2.20750E+01-1.11569E+01



 n o d a l   p r i n t   o u t   f o r   t i m e  s t e p   11802                              ( at time 5.8999095E+00 )

 nodal point  x-rot      y-rot       z-rot       x-rot vel   y-rot vel   z-rot vel   x-rot acc   y-rot acc   z-rot acc
    22626  2.15537E-04 6.58865E-04 2.14369E-04 7.48864E-04 1.78795E-03 4.07675E-05 1.54817E-03 3.10274E-03-7.12147E-04



 n o d a l   p r i n t   o u t   f o r   t i m e  s t e p   12002                              ( at time 5.9998995E+00 )

 nodal point  x-disp     y-disp      z-disp      x-vel       y-vel       z-vel      x-accl      y-accl      z-accl      x-coor      y-coor      z-coor
    22626 -1.10713E-03-4.32333E-02-1.87935E+01 2.83078E-02 2.30447E-02-2.96354E+00 2.28470E-02 7.45513E-02 3.46843E-01 4.79631E+01-2.20730E+01-1.14550E+01



 n o d a l   p r i n t   o u t   f o r   t i m e  s t e p   12002                              ( at time 5.9998995E+00 )

 nodal point  x-rot      y-rot       z-rot       x-rot vel   y-rot vel   z-rot vel   x-rot acc   y-rot acc   z-rot acc
    22626  2.99498E-04 8.53739E-04 2.14133E-04 9.28298E-04 2.12002E-03-4.38166E-05 1.79452E-03 3.32107E-03-8.45927E-04



 n o d a l   p r i n t   o u t   f o r   t i m e  s t e p   12202                              ( at time 6.0998895E+00 )

 nodal point  x-disp     y-disp      z-disp      x-vel       y-vel       z-vel      x-accl      y-accl      z-accl      x-coor      y-coor      z-coor
    22626  1.86445E-03-4.06877E-02-1.90880E+01 3.14012E-02 2.82748E-02-2.92748E+00 3.09366E-02 5.23063E-02 3.60650E-01 4.79660E+01-2.20705E+01-1.17495E+01



 n o d a l   p r i n t   o u t   f o r   t i m e  s t e p   12202                              ( at time 6.0998895E+00 )

 nodal point  x-rot      y-rot       z-rot       x-rot vel   y-rot vel   z-rot vel   x-rot acc   y-rot acc   z-rot acc
    22626  3.99062E-04 1.08182E-03 2.06077E-04 1.06687E-03 2.44006E-03-1.20527E-04 1.38582E-03 3.20075E-03-7.67174E-04



 n o d a l   p r i n t   o u t   f o r   t i m e  s t e p   12402                              ( at time 6.1998795E+00 )

 nodal point  x-disp     y-disp      z-disp      x-vel       y-vel       z-vel      x-accl      y-accl      z-accl      x-coor      y-coor      z-coor
    22626  5.19719E-03-3.73914E-02-1.93786E+01 3.57151E-02 3.60070E-02-2.88788E+00 4.31431E-02 7.73293E-02 3.96075E-01 4.79694E+01-2.20672E+01-1.20401E+01



 n o d a l   p r i n t   o u t   f o r   t i m e  s t e p   12402                              ( at time 6.1998795E+00 )

 nodal point  x-rot      y-rot       z-rot       x-rot vel   y-rot vel   z-rot vel   x-rot acc   y-rot acc   z-rot acc
    22626  5.15806E-04 1.34310E-03 1.87377E-04 1.26642E-03 2.76800E-03-2.26298E-04 1.99575E-03 3.27970E-03-1.05782E-03



 n o d a l   p r i n t   o u t   f o r   t i m e  s t e p   12602                              ( at time 6.2998695E+00 )

 nodal point  x-disp     y-disp      z-disp      x-vel       y-vel       z-vel      x-accl      y-accl      z-accl      x-coor      y-coor      z-coor
    22626  8.89090E-03-3.34722E-02-1.96653E+01 3.94241E-02 4.29526E-02-2.84472E+00 3.70946E-02 6.94628E-02 4.31557E-01 4.79731E+01-2.20633E+01-1.23268E+01



 n o d a l   p r i n t   o u t   f o r   t i m e  s t e p   12602                              ( at time 6.2998695E+00 )

 nodal point  x-rot      y-rot       z-rot       x-rot vel   y-rot vel   z-rot vel   x-rot acc   y-rot acc   z-rot acc
    22626  6.51612E-04 1.63812E-03 1.59110E-04 1.42652E-03 3.13498E-03-3.49709E-04 1.60116E-03 3.67021E-03-1.23424E-03



 n o d a l   p r i n t   o u t   f o r   t i m e  s t e p   12802                              ( at time 6.3998595E+00 )

 nodal point  x-disp     y-disp      z-disp      x-vel       y-vel       z-vel      x-accl      y-accl      z-accl      x-coor      y-coor      z-coor
    22626  1.31084E-02-2.88964E-02-1.99476E+01 4.40912E-02 4.95674E-02-2.80200E+00 4.66755E-02 6.61557E-02 4.27337E-01 4.79773E+01-2.20587E+01-1.26091E+01



 n o d a l   p r i n t   o u t   f o r   t i m e  s t e p   12802                              ( at time 6.3998595E+00 )

 nodal point  x-rot      y-rot       z-rot       x-rot vel   y-rot vel   z-rot vel   x-rot acc   y-rot acc   z-rot acc
    22626  8.04127E-04 1.96786E-03 1.19443E-04 1.63925E-03 3.45793E-03-4.58021E-04 2.12750E-03 3.22977E-03-1.08323E-03



 n o d a l   p r i n t   o u t   f o r   t i m e  s t e p   13002                              ( at time 6.4998495E+00 )

 nodal point  x-disp     y-disp      z-disp      x-vel       y-vel       z-vel      x-accl      y-accl      z-accl      x-coor      y-coor      z-coor
    22626  1.79004E-02-2.35246E-02-2.02255E+01 5.07927E-02 5.75113E-02-2.75648E+00 6.70218E-02 7.94461E-02 4.55182E-01 4.79821E+01-2.20533E+01-1.28870E+01



 n o d a l   p r i n t   o u t   f o r   t i m e  s t e p   13002                              ( at time 6.4998495E+00 )

 nodal point  x-rot      y-rot       z-rot       x-rot vel   y-rot vel   z-rot vel   x-rot acc   y-rot acc   z-rot acc
    22626  9.77969E-04 2.33198E-03 6.79029E-05 1.84181E-03 3.83053E-03-5.64527E-04 2.02583E-03 3.72642E-03-1.06517E-03



 n o d a l   p r i n t   o u t   f o r   t i m e  s t e p   13202                              ( at time 6.5998395E+00 )

 nodal point  x-disp     y-disp      z-disp      x-vel       y-vel       z-vel      x-accl      y-accl      z-accl      x-coor      y-coor      z-coor
    22626  2.33177E-02-1.73788E-02-2.04988E+01 5.78330E-02 6.54695E-02-2.70956E+00 7.04099E-02 7.95896E-02 4.69305E-01 4.79875E+01-2.20472E+01-1.31603E+01



 n o d a l   p r i n t   o u t   f o r   t i m e  s t e p   13202                              ( at time 6.5998395E+00 )

 nodal point  x-rot      y-rot       z-rot       x-rot vel   y-rot vel   z-rot vel   x-rot acc   y-rot acc   z-rot acc
    22626  1.17126E-03 2.73110E-03 4.96134E-06 2.04941E-03 4.15043E-03-6.83964E-04 2.07618E-03 3.19924E-03-1.19449E-03



 n o d a l   p r i n t   o u t   f o r   t i m e  s t e p   13402                              ( at time 6.6998295E+00 )

 nodal point  x-disp     y-disp      z-disp      x-vel       y-vel       z-vel      x-accl      y-accl      z-accl      x-coor      y-coor      z-coor
    22626  2.94633E-02-1.04893E-02-2.07673E+01 6.54864E-02 7.28044E-02-2.66072E+00 7.65417E-02 7.33565E-02 4.88455E-01 4.79936E+01-2.20403E+01-1.34288E+01



 n o d a l   p r i n t   o u t   f o r   t i m e  s t e p   13402                              ( at time 6.6998295E+00 )

 nodal point  x-rot      y-rot       z-rot       x-rot vel   y-rot vel   z-rot vel   x-rot acc   y-rot acc   z-rot acc
    22626  1.38680E-03 3.16184E-03-6.98359E-05 2.25925E-03 4.46547E-03-8.12415E-04 2.09863E-03 3.15080E-03-1.28464E-03



 n o d a l   p r i n t   o u t   f o r   t i m e  s t e p   13602                              ( at time 6.7998195E+00 )

 nodal point  x-disp     y-disp      z-disp      x-vel       y-vel       z-vel      x-accl      y-accl      z-accl      x-coor      y-coor      z-coor
    22626  3.64444E-02-2.84164E-03-2.10308E+01 7.41810E-02 8.01196E-02-2.61133E+00 8.69548E-02 7.31599E-02 4.93853E-01 4.80006E+01-2.20326E+01-1.36923E+01



 n o d a l   p r i n t   o u t   f o r   t i m e  s t e p   13602                              ( at time 6.7998195E+00 )

 nodal point  x-rot      y-rot       z-rot       x-rot vel   y-rot vel   z-rot vel   x-rot acc   y-rot acc   z-rot acc
    22626  1.62312E-03 3.62446E-03-1.57345E-04 2.47590E-03 4.77651E-03-9.32306E-04 2.16667E-03 3.11065E-03-1.19903E-03



 n o d a l   p r i n t   o u t   f o r   t i m e  s t e p   13802                              ( at time 6.8998095E+00 )

 nodal point  x-disp     y-disp      z-disp      x-vel       y-vel       z-vel      x-accl      y-accl      z-accl      x-coor      y-coor      z-coor
    22626  4.43068E-02 5.53058E-03-2.12894E+01 8.29874E-02 8.78094E-02-2.55962E+00 8.80722E-02 7.69052E-02 5.17180E-01 4.80085E+01-2.20243E+01-1.39509E+01



 n o d a l   p r i n t   o u t   f o r   t i m e  s t e p   13802                              ( at time 6.8998095E+00 )

 nodal point  x-rot      y-rot       z-rot       x-rot vel   y-rot vel   z-rot vel   x-rot acc   y-rot acc   z-rot acc
    22626  1.88260E-03 4.11785E-03-2.56733E-04 2.71179E-03 5.08983E-03-1.06026E-03 2.35910E-03 3.13357E-03-1.27964E-03



 n o d a l   p r i n t   o u t   f o r   t i m e  s t e p   14002                              ( at time 6.9997995E+00 )

 nodal point  x-disp     y-disp      z-disp      x-vel       y-vel       z-vel      x-accl      y-accl      z-accl      x-coor      y-coor      z-coor
    22626  5.30429E-02 1.47298E-02-2.15427E+01 9.25634E-02 9.59470E-02-2.50640E+00 9.57696E-02 8.13844E-02 5.32226E-01 4.80172E+01-2.20151E+01-1.42042E+01



 n o d a l   p r i n t   o u t   f o r   t i m e  s t e p   14002                              ( at time 6.9997995E+00 )

 nodal point  x-rot      y-rot       z-rot       x-rot vel   y-rot vel   z-rot vel   x-rot acc   y-rot acc   z-rot acc
    22626  2.16515E-03 4.64144E-03-3.70145E-04 2.93850E-03 5.38991E-03-1.18994E-03 2.26733E-03 3.00103E-03-1.29700E-03



 n o d a l   p r i n t   o u t   f o r   t i m e  s t e p   14202                              ( at time 7.0997895E+00 )

 nodal point  x-disp     y-disp      z-disp      x-vel       y-vel       z-vel      x-accl      y-accl      z-accl      x-coor      y-coor      z-coor
    22626  6.27259E-02 2.47017E-02-2.17906E+01 1.02046E-01 1.02867E-01-2.45311E+00 9.48352E-02 6.92071E-02 5.32981E-01 4.80269E+01-2.20051E+01-1.44521E+01



 n o d a l   p r i n t   o u t   f o r   t i m e  s t e p   14202                              ( at time 7.0997895E+00 )

 nodal point  x-rot      y-rot       z-rot       x-rot vel   y-rot vel   z-rot vel   x-rot acc   y-rot acc   z-rot acc
    22626  2.47150E-03 5.19371E-03-4.95470E-04 3.17588E-03 5.67644E-03-1.30845E-03 2.37409E-03 2.86565E-03-1.18522E-03



 n o d a l   p r i n t   o u t   f o r   t i m e  s t e p   14402                              ( at time 7.1997794E+00 )

 nodal point  x-disp     y-disp      z-disp      x-vel       y-vel       z-vel      x-accl      y-accl      z-accl      x-coor      y-coor      z-coor
    22626  7.33878E-02 3.53840E-02-2.20330E+01 1.11389E-01 1.09980E-01-2.39647E+00 9.34409E-02 7.11387E-02 5.66444E-01 4.80376E+01-2.19944E+01-1.46945E+01



 n o d a l   p r i n t   o u t   f o r   t i m e  s t e p   14402                              ( at time 7.1997794E+00 )

 nodal point  x-rot      y-rot       z-rot       x-rot vel   y-rot vel   z-rot vel   x-rot acc   y-rot acc   z-rot acc
    22626  2.80192E-03 5.77695E-03-6.33917E-04 3.42055E-03 5.97525E-03-1.44937E-03 2.44696E-03 2.98839E-03-1.40933E-03



 n o d a l   p r i n t   o u t   f o r   t i m e  s t e p   14602                              ( at time 7.2997694E+00 )

 nodal point  x-disp     y-disp      z-disp      x-vel       y-vel       z-vel      x-accl      y-accl      z-accl      x-coor      y-coor      z-coor
    22626  8.50702E-02 4.66914E-02-2.22699E+01 1.20831E-01 1.17005E-01-2.34065E+00 9.44270E-02 7.02518E-02 5.58323E-01 4.80493E+01-2.19831E+01-1.49314E+01



 n o d a l   p r i n t   o u t   f o r   t i m e  s t e p   14602                              ( at time 7.2997694E+00 )

 nodal point  x-rot      y-rot       z-rot       x-rot vel   y-rot vel   z-rot vel   x-rot acc   y-rot acc   z-rot acc
    22626  3.15688E-03 6.38821E-03-7.83639E-04 3.68500E-03 6.25087E-03-1.55669E-03 2.64472E-03 2.75643E-03-1.07324E-03



 n o d a l   p r i n t   o u t   f o r   t i m e  s t e p   14802                              ( at time 7.3997594E+00 )

 nodal point  x-disp     y-disp      z-disp      x-vel       y-vel       z-vel      x-accl      y-accl      z-accl      x-coor      y-coor      z-coor
    22626  9.76313E-02 5.86251E-02-2.25011E+01 1.30726E-01 1.22995E-01-2.28297E+00 9.89612E-02 5.99119E-02 5.76807E-01 4.80618E+01-2.19712E+01-1.51626E+01



 n o d a l   p r i n t   o u t   f o r   t i m e  s t e p   14802                              ( at time 7.3997594E+00 )

 nodal point  x-rot      y-rot       z-rot       x-rot vel   y-rot vel   z-rot vel   x-rot acc   y-rot acc   z-rot acc
    22626  3.53739E-03 7.02783E-03-9.44926E-04 3.93290E-03 6.54277E-03-1.68113E-03 2.47922E-03 2.91934E-03-1.24453E-03



 n o d a l   p r i n t   o u t   f o r   t i m e  s t e p   15002                              ( at time 7.4997494E+00 )

 nodal point  x-disp     y-disp      z-disp      x-vel       y-vel       z-vel      x-accl      y-accl      z-accl      x-coor      y-coor      z-coor
    22626  1.11112E-01 7.10928E-02-2.27265E+01 1.39143E-01 1.25873E-01-2.22598E+00 8.41796E-02 2.87834E-02 5.69997E-01 4.80753E+01-2.19587E+01-1.53880E+01



 n o d a l   p r i n t   o u t   f o r   t i m e  s t e p   15002                              ( at time 7.4997494E+00 )

 nodal point  x-rot      y-rot       z-rot       x-rot vel   y-rot vel   z-rot vel   x-rot acc   y-rot acc   z-rot acc
    22626  3.94304E-03 7.69646E-03-1.11695E-03 4.19538E-03 6.81425E-03-1.76376E-03 2.62513E-03 2.71502E-03-8.26412E-04



 n o d a l   p r i n t   o u t   f o r   t i m e  s t e p   15202                              ( at time 7.5997394E+00 )

 nodal point  x-disp     y-disp      z-disp      x-vel       y-vel       z-vel      x-accl      y-accl      z-accl      x-coor      y-coor      z-coor
    22626  1.25405E-01 8.39603E-02-2.29458E+01 1.46998E-01 1.30939E-01-2.16146E+00 7.85594E-02 5.06585E-02 6.45281E-01 4.80896E+01-2.19458E+01-1.56073E+01



 n o d a l   p r i n t   o u t   f o r   t i m e  s t e p   15202                              ( at time 7.5997394E+00 )

 nodal point  x-rot      y-rot       z-rot       x-rot vel   y-rot vel   z-rot vel   x-rot acc   y-rot acc   z-rot acc
    22626  4.37648E-03 8.39336E-03-1.29896E-03 4.47099E-03 7.11972E-03-1.88452E-03 2.75633E-03 3.05504E-03-1.20771E-03



 n o d a l   p r i n t   o u t   f o r   t i m e  s t e p   15402                              ( at time 7.6997294E+00 )

 nodal point  x-disp     y-disp      z-disp      x-vel       y-vel       z-vel      x-accl      y-accl      z-accl      x-coor      y-coor      z-coor
    22626  1.40507E-01 9.71221E-02-2.31588E+01 1.54611E-01 1.33740E-01-2.09794E+00 7.61394E-02 2.80148E-02 6.35252E-01 4.81047E+01-2.19327E+01-1.58203E+01



 n o d a l   p r i n t   o u t   f o r   t i m e  s t e p   15402                              ( at time 7.6997294E+00 )

 nodal point  x-rot      y-rot       z-rot       x-rot vel   y-rot vel   z-rot vel   x-rot acc   y-rot acc   z-rot acc
    22626  4.83933E-03 9.11835E-03-1.49107E-03 4.78438E-03 7.39442E-03-1.97703E-03 3.13420E-03 2.74726E-03-9.25163E-04



 n o d a l   p r i n t   o u t   f o r   t i m e  s t e p   15602                              ( at time 7.7997194E+00 )

 nodal point  x-disp     y-disp      z-disp      x-vel       y-vel       z-vel      x-accl      y-accl      z-accl      x-coor      y-coor      z-coor
    22626  1.56340E-01 1.10561E-01-2.33654E+01 1.62460E-01 1.35846E-01-2.03415E+00 7.84932E-02 2.10634E-02 6.37965E-01 4.81205E+01-2.19192E+01-1.60269E+01



 n o d a l   p r i n t   o u t   f o r   t i m e  s t e p   15602                              ( at time 7.7997194E+00 )

 nodal point  x-rot      y-rot       z-rot       x-rot vel   y-rot vel   z-rot vel   x-rot acc   y-rot acc   z-rot acc
    22626  5.33145E-03 9.87091E-03-1.69216E-03 5.07214E-03 7.64912E-03-2.05894E-03 2.87794E-03 2.54730E-03-8.19270E-04



 n o d a l   p r i n t   o u t   f o r   t i m e  s t e p   15802                              ( at time 7.8997094E+00 )

 nodal point  x-disp     y-disp      z-disp      x-vel       y-vel       z-vel      x-accl      y-accl      z-accl      x-coor      y-coor      z-coor
    22626  1.72952E-01 1.24192E-01-2.35655E+01 1.70202E-01 1.36611E-01-1.96888E+00 7.74287E-02 7.64671E-03 6.52744E-01 4.81371E+01-2.19056E+01-1.62270E+01



 n o d a l   p r i n t   o u t   f o r   t i m e  s t e p   15802                              ( at time 7.8997094E+00 )

 nodal point  x-rot      y-rot       z-rot       x-rot vel   y-rot vel   z-rot vel   x-rot acc   y-rot acc   z-rot acc
    22626  5.85344E-03 1.06494E-02-1.90232E-03 5.38084E-03 7.88948E-03-2.14050E-03 3.08733E-03 2.40383E-03-8.15597E-04



 n o d a l   p r i n t   o u t   f o r   t i m e  s t e p   16002                              ( at time 7.9996994E+00 )

 nodal point  x-disp     y-disp      z-disp      x-vel       y-vel       z-vel      x-accl      y-accl      z-accl      x-coor      y-coor      z-coor
    22626  1.90316E-01 1.37940E-01-2.37589E+01 1.76531E-01 1.38502E-01-1.90002E+00 6.32936E-02 1.89147E-02 6.88663E-01 4.81545E+01-2.18918E+01-1.64204E+01



 n o d a l   p r i n t   o u t   f o r   t i m e  s t e p   16002                              ( at time 7.9996994E+00 )

 nodal point  x-rot      y-rot       z-rot       x-rot vel   y-rot vel   z-rot vel   x-rot acc   y-rot acc   z-rot acc
    22626  6.40654E-03 1.14513E-02-2.11968E-03 5.68413E-03 8.13680E-03-2.23272E-03 3.03313E-03 2.47341E-03-9.22343E-04



 n o d a l   p r i n t   o u t   f o r   t i m e  s t e p   16202                              ( at time 8.0996894E+00 )

 nodal point  x-disp     y-disp      z-disp      x-vel       y-vel       z-vel      x-accl      y-accl      z-accl      x-coor      y-coor      z-coor
    22626  2.08381E-01 1.51698E-01-2.39455E+01 1.83786E-01 1.37284E-01-1.83072E+00 7.25608E-02-1.21802E-02 6.93093E-01 4.81726E+01-2.18781E+01-1.66070E+01



 n o d a l   p r i n t   o u t   f o r   t i m e  s t e p   16202                              ( at time 8.0996894E+00 )

 nodal point  x-rot      y-rot       z-rot       x-rot vel   y-rot vel   z-rot vel   x-rot acc   y-rot acc   z-rot acc
    22626  6.99264E-03 1.22778E-02-2.34545E-03 6.02129E-03 8.36986E-03-2.30540E-03 3.37200E-03 2.33088E-03-7.26868E-04



 n o d a l   p r i n t   o u t   f o r   t i m e  s t e p   16402                              ( at time 8.1996794E+00 )

 nodal point  x-disp     y-disp      z-disp      x-vel       y-vel       z-vel      x-accl      y-accl      z-accl      x-coor      y-coor      z-coor
    22626  2.27224E-01 1.65406E-01-2.41250E+01 1.91760E-01 1.36969E-01-1.76113E+00 7.97437E-02-3.15385E-03 6.95952E-01 4.81914E+01-2.18644E+01-1.67865E+01



 n o d a l   p r i n t   o u t   f o r   t i m e  s t e p   16402                              ( at time 8.1996794E+00 )

 nodal point  x-rot      y-rot       z-rot       x-rot vel   y-rot vel   z-rot vel   x-rot acc   y-rot acc   z-rot acc
    22626  7.61083E-03 1.31244E-02-2.57768E-03 6.34069E-03 8.56236E-03-2.36470E-03 3.19431E-03 1.92514E-03-5.93073E-04



 n o d a l   p r i n t   o u t   f o r   t i m e  s t e p   16602                              ( at time 8.2996694E+00 )

 nodal point  x-disp     y-disp      z-disp      x-vel       y-vel       z-vel      x-accl      y-accl      z-accl      x-coor      y-coor      z-coor
    22626  2.46768E-01 1.79040E-01-2.42975E+01 1.99191E-01 1.35134E-01-1.69026E+00 7.43226E-02-1.83431E-02 7.08751E-01 4.82109E+01-2.18507E+01-1.69590E+01



 n o d a l   p r i n t   o u t   f o r   t i m e  s t e p   16602                              ( at time 8.2996694E+00 )

 nodal point  x-rot      y-rot       z-rot       x-rot vel   y-rot vel   z-rot vel   x-rot acc   y-rot acc   z-rot acc
    22626  8.26358E-03 1.39911E-02-2.81745E-03 6.70655E-03 8.74246E-03-2.43603E-03 3.65899E-03 1.80116E-03-7.13316E-04



 n o d a l   p r i n t   o u t   f o r   t i m e  s t e p   16802                              ( at time 8.3996594E+00 )

 nodal point  x-disp     y-disp      z-disp      x-vel       y-vel       z-vel      x-accl      y-accl      z-accl      x-coor      y-coor      z-coor
    22626  2.67007E-01 1.92398E-01-2.44628E+01 2.05394E-01 1.32166E-01-1.61637E+00 6.20379E-02-2.96922E-02 7.38996E-01 4.82312E+01-2.18374E+01-1.71243E+01



 n o d a l   p r i n t   o u t   f o r   t i m e  s t e p   16802                              ( at time 8.3996594E+00 )

 nodal point  x-rot      y-rot       z-rot       x-rot vel   y-rot vel   z-rot vel   x-rot acc   y-rot acc   z-rot acc
    22626  8.95091E-03 1.48742E-02-3.06291E-03 7.05787E-03 8.91496E-03-2.49555E-03 3.51355E-03 1.72518E-03-5.95308E-04



 n o d a l   p r i n t   o u t   f o r   t i m e  s t e p   17002                              ( at time 8.4996494E+00 )

 nodal point  x-disp     y-disp      z-disp      x-vel       y-vel       z-vel      x-accl      y-accl      z-accl      x-coor      y-coor      z-coor
    22626  2.87934E-01 2.05319E-01-2.46207E+01 2.12835E-01 1.27110E-01-1.54237E+00 7.44162E-02-5.05633E-02 7.40016E-01 4.82521E+01-2.18245E+01-1.72822E+01



 n o d a l   p r i n t   o u t   f o r   t i m e  s t e p   17002                              ( at time 8.4996494E+00 )

 nodal point  x-rot      y-rot       z-rot       x-rot vel   y-rot vel   z-rot vel   x-rot acc   y-rot acc   z-rot acc
    22626  9.67439E-03 1.57733E-02-3.31527E-03 7.41849E-03 9.04787E-03-2.58092E-03 3.60652E-03 1.32925E-03-8.53741E-04



 n o d a l   p r i n t   o u t   f o r   t i m e  s t e p   17202                              ( at time 8.5996394E+00 )

 nodal point  x-disp     y-disp      z-disp      x-vel       y-vel       z-vel      x-accl      y-accl      z-accl      x-coor      y-coor      z-coor
    22626  3.09616E-01 2.17777E-01-2.47711E+01 2.19495E-01 1.22037E-01-1.46578E+00 6.66070E-02-5.07349E-02 7.66046E-01 4.82738E+01-2.18120E+01-1.74326E+01



 n o d a l   p r i n t   o u t   f o r   t i m e  s t e p   17202                              ( at time 8.5996394E+00 )

 nodal point  x-rot      y-rot       z-rot       x-rot vel   y-rot vel   z-rot vel   x-rot acc   y-rot acc   z-rot acc
    22626  1.04358E-02 1.66846E-02-3.57444E-03 7.79916E-03 9.17431E-03-2.62154E-03 3.80707E-03 1.26452E-03-4.06319E-04



 n o d a l   p r i n t   o u t   f o r   t i m e  s t e p   17402                              ( at time 8.6996293E+00 )

 nodal point  x-disp     y-disp      z-disp      x-vel       y-vel       z-vel      x-accl      y-accl      z-accl      x-coor      y-coor      z-coor
    22626  3.31859E-01 2.29678E-01-2.49137E+01 2.25955E-01 1.15909E-01-1.38755E+00 6.46038E-02-6.12828E-02 7.82392E-01 4.82960E+01-2.18001E+01-1.75752E+01



 n o d a l   p r i n t   o u t   f o r   t i m e  s t e p   17402                              ( at time 8.6996293E+00 )

 nodal point  x-rot      y-rot       z-rot       x-rot vel   y-rot vel   z-rot vel   x-rot acc   y-rot acc   z-rot acc
    22626  1.12351E-02 1.76089E-02-3.83965E-03 8.19494E-03 9.29719E-03-2.68947E-03 3.95818E-03 1.22894E-03-6.79304E-04



 n o d a l   p r i n t   o u t   f o r   t i m e  s t e p   17602                              ( at time 8.7996193E+00 )

 nodal point  x-disp     y-disp      z-disp      x-vel       y-vel       z-vel      x-accl      y-accl      z-accl      x-coor      y-coor      z-coor
    22626  3.54827E-01 2.40827E-01-2.50486E+01 2.33572E-01 1.07684E-01-1.30994E+00 7.61812E-02-8.22557E-02 7.76169E-01 4.83190E+01-2.17890E+01-1.77101E+01



 n o d a l   p r i n t   o u t   f o r   t i m e  s t e p   17602                              ( at time 8.7996193E+00 )

 nodal point  x-rot      y-rot       z-rot       x-rot vel   y-rot vel   z-rot vel   x-rot acc   y-rot acc   z-rot acc
    22626  1.20739E-02 1.85427E-02-4.11117E-03 8.58244E-03 9.37918E-03-2.74992E-03 3.87542E-03 8.19954E-04-6.04585E-04



 n o d a l   p r i n t   o u t   f o r   t i m e  s t e p   17802                              ( at time 8.8996093E+00 )

 nodal point  x-disp     y-disp      z-disp      x-vel       y-vel       z-vel      x-accl      y-accl      z-accl      x-coor      y-coor      z-coor
    22626  3.78522E-01 2.51325E-01-2.51755E+01 2.39858E-01 1.02307E-01-1.23119E+00 6.28653E-02-5.37772E-02 7.87507E-01 4.83427E+01-2.17785E+01-1.78370E+01



 n o d a l   p r i n t   o u t   f o r   t i m e  s t e p   17802                              ( at time 8.8996093E+00 )

 nodal point  x-rot      y-rot       z-rot       x-rot vel   y-rot vel   z-rot vel   x-rot acc   y-rot acc   z-rot acc
    22626  1.29513E-02 1.94867E-02-4.38877E-03 8.97884E-03 9.48933E-03-2.82111E-03 3.96437E-03 1.10165E-03-7.11928E-04



 n o d a l   p r i n t   o u t   f o r   t i m e  s t e p   18002                              ( at time 8.9995993E+00 )

 nodal point  x-disp     y-disp      z-disp      x-vel       y-vel       z-vel      x-accl      y-accl      z-accl      x-coor      y-coor      z-coor
    22626  4.02906E-01 2.61201E-01-2.52947E+01 2.47844E-01 9.61475E-02-1.15260E+00 7.98603E-02-6.16020E-02 7.86005E-01 4.83671E+01-2.17686E+01-1.79562E+01



 n o d a l   p r i n t   o u t   f o r   t i m e  s t e p   18002                              ( at time 8.9995993E+00 )

 nodal point  x-rot      y-rot       z-rot       x-rot vel   y-rot vel   z-rot vel   x-rot acc   y-rot acc   z-rot acc
    22626  1.38701E-02 2.04406E-02-4.67199E-03 9.38680E-03 9.55914E-03-2.87922E-03 4.08005E-03 6.98171E-04-5.81220E-04



 n o d a l   p r i n t   o u t   f o r   t i m e  s t e p   18202                              ( at time 9.0995893E+00 )

 nodal point  x-disp     y-disp      z-disp      x-vel       y-vel       z-vel      x-accl      y-accl      z-accl      x-coor      y-coor      z-coor
    22626  4.28122E-01 2.70512E-01-2.54061E+01 2.55631E-01 9.09267E-02-1.07676E+00 7.78781E-02-5.22130E-02 7.58527E-01 4.83923E+01-2.17593E+01-1.80676E+01



 n o d a l   p r i n t   o u t   f o r   t i m e  s t e p   18202                              ( at time 9.0995893E+00 )

 nodal point  x-rot      y-rot       z-rot       x-rot vel   y-rot vel   z-rot vel   x-rot acc   y-rot acc   z-rot acc
    22626  1.48287E-02 2.14009E-02-4.96037E-03 9.79155E-03 9.66294E-03-2.92506E-03 4.04785E-03 1.03808E-03-4.58385E-04



 n o d a l   p r i n t   o u t   f o r   t i m e  s t e p   18402                              ( at time 9.1995793E+00 )

 nodal point  x-disp     y-disp      z-disp      x-vel       y-vel       z-vel      x-accl      y-accl      z-accl      x-coor      y-coor      z-coor
    22626  4.53945E-01 2.79281E-01-2.55101E+01 2.61746E-01 8.42518E-02-1.00377E+00 6.11564E-02-6.67566E-02 7.29964E-01 4.84181E+01-2.17505E+01-1.81716E+01



 n o d a l   p r i n t   o u t   f o r   t i m e  s t e p   18402                              ( at time 9.1995793E+00 )

 nodal point  x-rot      y-rot       z-rot       x-rot vel   y-rot vel   z-rot vel   x-rot acc   y-rot acc   z-rot acc
    22626  1.58272E-02 2.23721E-02-5.25436E-03 1.01658E-02 9.75407E-03-2.95459E-03 3.74318E-03 9.11410E-04-2.95315E-04



 n o d a l   p r i n t   o u t   f o r   t i m e  s t e p   18602                              ( at time 9.2995693E+00 )

 nodal point  x-disp     y-disp      z-disp      x-vel       y-vel       z-vel      x-accl      y-accl      z-accl      x-coor      y-coor      z-coor
    22626  4.80439E-01 2.87486E-01-2.56067E+01 2.68072E-01 8.00945E-02-9.30314E-01 6.32693E-02-4.15771E-02 7.34609E-01 4.84446E+01-2.17423E+01-1.82682E+01



 n o d a l   p r i n t   o u t   f o r   t i m e  s t e p   18602                              ( at time 9.2995693E+00 )

 nodal point  x-rot      y-rot       z-rot       x-rot vel   y-rot vel   z-rot vel   x-rot acc   y-rot acc   z-rot acc
    22626  1.68627E-02 2.33526E-02-5.55152E-03 1.05642E-02 9.85826E-03-2.99623E-03 3.98418E-03 1.04199E-03-4.16460E-04



 n o d a l   p r i n t   o u t   f o r   t i m e  s t e p   18802                              ( at time 9.3995593E+00 )

 nodal point  x-disp     y-disp      z-disp      x-vel       y-vel       z-vel      x-accl      y-accl      z-accl      x-coor      y-coor      z-coor
    22626  5.07621E-01 2.95370E-01-2.56962E+01 2.76164E-01 7.72862E-02-8.58340E-01 8.09325E-02-2.80853E-02 7.19814E-01 4.84718E+01-2.17344E+01-1.83577E+01



 n o d a l   p r i n t   o u t   f o r   t i m e  s t e p   18802                              ( at time 9.3995593E+00 )

 nodal point  x-rot      y-rot       z-rot       x-rot vel   y-rot vel   z-rot vel   x-rot acc   y-rot acc   z-rot acc
    22626  1.79410E-02 2.43409E-02-5.85454E-03 1.09725E-02 9.90239E-03-3.05364E-03 4.08320E-03 4.41333E-04-5.74204E-04



 n o d a l   p r i n t   o u t   f o r   t i m e  s t e p   19002                              ( at time 9.4995493E+00 )

 nodal point  x-disp     y-disp      z-disp      x-vel       y-vel       z-vel      x-accl      y-accl      z-accl      x-coor      y-coor      z-coor
    22626  5.35571E-01 3.02702E-01-2.57784E+01 2.82067E-01 7.04691E-02-7.87098E-01 5.90301E-02-6.81781E-02 7.12494E-01 4.84998E+01-2.17271E+01-1.84399E+01



 n o d a l   p r i n t   o u t   f o r   t i m e  s t e p   19002                              ( at time 9.4995493E+00 )

 nodal point  x-rot      y-rot       z-rot       x-rot vel   y-rot vel   z-rot vel   x-rot acc   y-rot acc   z-rot acc
    22626  1.90561E-02 2.53351E-02-6.16080E-03 1.13697E-02 9.98340E-03-3.07250E-03 3.97256E-03 8.10211E-04-1.88612E-04



 n o d a l   p r i n t   o u t   f o r   t i m e  s t e p   19202                              ( at time 9.5995393E+00 )

 nodal point  x-disp     y-disp      z-disp      x-vel       y-vel       z-vel      x-accl      y-accl      z-accl      x-coor      y-coor      z-coor
    22626  5.64164E-01 3.09711E-01-2.58537E+01 2.89113E-01 6.92661E-02-7.18301E-01 7.04675E-02-1.20314E-02 6.88033E-01 4.85283E+01-2.17201E+01-1.85152E+01



 n o d a l   p r i n t   o u t   f o r   t i m e  s t e p   19202                              ( at time 9.5995393E+00 )

 nodal point  x-rot      y-rot       z-rot       x-rot vel   y-rot vel   z-rot vel   x-rot acc   y-rot acc   z-rot acc
    22626  2.02130E-02 2.63384E-02-6.47317E-03 1.17687E-02 1.00844E-02-3.13194E-03 3.99019E-03 1.01003E-03-5.94457E-04



 n o d a l   p r i n t   o u t   f o r   t i m e  s t e p   19402                              ( at time 9.6995293E+00 )

 nodal point  x-disp     y-disp      z-disp      x-vel       y-vel       z-vel      x-accl      y-accl      z-accl      x-coor      y-coor      z-coor
    22626  5.93451E-01 3.16392E-01-2.59220E+01 2.95843E-01 6.64510E-02-6.48663E-01 6.73124E-02-2.81537E-02 6.96451E-01 4.85576E+01-2.17134E+01-1.85835E+01



 n o d a l   p r i n t   o u t   f o r   t i m e  s t e p   19402                              ( at time 9.6995293E+00 )

 nodal point  x-rot      y-rot       z-rot       x-rot vel   y-rot vel   z-rot vel   x-rot acc   y-rot acc   z-rot acc
    22626  2.14064E-02 2.73483E-02-6.78943E-03 1.21575E-02 1.01266E-02-3.19096E-03 3.88839E-03 4.21755E-04-5.90246E-04



 n o d a l   p r i n t   o u t   f o r   t i m e  s t e p   19602                              ( at time 9.7995193E+00 )

 nodal point  x-disp     y-disp      z-disp      x-vel       y-vel       z-vel      x-accl      y-accl      z-accl      x-coor      y-coor      z-coor
    22626  6.23427E-01 3.22906E-01-2.59836E+01 3.02987E-01 6.39925E-02-5.81861E-01 7.14437E-02-2.45875E-02 6.68083E-01 4.85876E+01-2.17069E+01-1.86451E+01



 n o d a l   p r i n t   o u t   f o r   t i m e  s t e p   19602                              ( at time 9.7995193E+00 )

 nodal point  x-rot      y-rot       z-rot       x-rot vel   y-rot vel   z-rot vel   x-rot acc   y-rot acc   z-rot acc
    22626  2.26419E-02 2.83634E-02-7.11009E-03 1.25403E-02 1.01911E-02-3.21633E-03 3.82823E-03 6.45584E-04-2.53769E-04



 n o d a l   p r i n t   o u t   f o r   t i m e  s t e p   19802                              ( at time 9.8995093E+00 )

 nodal point  x-disp     y-disp      z-disp      x-vel       y-vel       z-vel      x-accl      y-accl      z-accl      x-coor      y-coor      z-coor
    22626  6.54170E-01 3.29274E-01-2.60384E+01 3.11068E-01 6.18716E-02-5.18007E-01 8.08166E-02-2.12113E-02 6.38603E-01 4.86184E+01-2.17005E+01-1.86999E+01



 n o d a l   p r i n t   o u t   f o r   t i m e  s t e p   19802                              ( at time 9.8995093E+00 )

 nodal point  x-rot      y-rot       z-rot       x-rot vel   y-rot vel   z-rot vel   x-rot acc   y-rot acc   z-rot acc
    22626  2.39144E-02 2.93843E-02-7.43655E-03 1.29094E-02 1.02285E-02-3.27080E-03 3.69191E-03 3.74271E-04-5.44709E-04



 n o d a l   p r i n t   o u t   f o r   t i m e  s t e p   20003                              ( at time 9.9999992E+00 )

 nodal point  x-disp     y-disp      z-disp      x-vel       y-vel       z-vel      x-accl      y-accl      z-accl      x-coor      y-coor      z-coor
[...]
    22626  2.55116E-01 1.52940E-01-7.03245E-02 1.77812E-02 7.99541E-03-6.00037E-03-2.96374E-04 4.99235E-06 3.96826E-04



 n o d a l   p r i n t   o u t   f o r   t i m e  s t e p   45205                              ( at time 2.2599738E+01 )

 nodal point  x-disp     y-disp      z-disp      x-vel       y-vel       z-vel      x-accl      y-accl      z-accl      x-coor      y-coor      z-coor
    22626  4.68149E+00 7.80291E-01-2.05778E+01 2.76075E-01-8.42233E-02 4.43603E-01 8.75315E-03-1.97077E-02-1.53609E-02 5.26457E+01-2.12495E+01-1.32393E+01



 n o d a l   p r i n t   o u t   f o r   t i m e  s t e p   45205                              ( at time 2.2599738E+01 )

 nodal point  x-rot      y-rot       z-rot       x-rot vel   y-rot vel   z-rot vel   x-rot acc   y-rot acc   z-rot acc
    22626  2.56893E-01 1.53739E-01-7.09229E-02 1.77705E-02 8.00104E-03-5.96091E-03-1.07410E-04 5.62477E-05 3.94619E-04



 n o d a l   p r i n t   o u t   f o r   t i m e  s t e p   45405                              ( at time 2.2699728E+01 )

 nodal point  x-disp     y-disp      z-disp      x-vel       y-vel       z-vel      x-accl      y-accl      z-accl      x-coor      y-coor      z-coor
    22626  4.70919E+00 7.71787E-01-2.05335E+01 2.77727E-01-8.59461E-02 4.43457E-01 1.65224E-02-1.72299E-02-1.45511E-03 5.26734E+01-2.12580E+01-1.31950E+01



 n o d a l   p r i n t   o u t   f o r   t i m e  s t e p   45405                              ( at time 2.2699728E+01 )

 nodal point  x-rot      y-rot       z-rot       x-rot vel   y-rot vel   z-rot vel   x-rot acc   y-rot acc   z-rot acc
    22626  2.58670E-01 1.54539E-01-7.15175E-02 1.77609E-02 8.00340E-03-5.93139E-03-9.61604E-05 2.36116E-05 2.95248E-04



 n o d a l   p r i n t   o u t   f o r   t i m e  s t e p   45605                              ( at time 2.2799718E+01 )

 nodal point  x-disp     y-disp      z-disp      x-vel       y-vel       z-vel      x-accl      y-accl      z-accl      x-coor      y-coor      z-coor
    22626  4.73704E+00 7.63105E-01-2.04892E+01 2.78942E-01-8.77718E-02 4.42163E-01 1.21500E-02-1.82587E-02-1.29390E-02 5.27012E+01-2.12667E+01-1.31507E+01



 n o d a l   p r i n t   o u t   f o r   t i m e  s t e p   45605                              ( at time 2.2799718E+01 )

 nodal point  x-rot      y-rot       z-rot       x-rot vel   y-rot vel   z-rot vel   x-rot acc   y-rot acc   z-rot acc
    22626  2.60445E-01 1.55339E-01-7.21093E-02 1.77542E-02 8.00185E-03-5.90345E-03-6.63721E-05-1.54893E-05 2.79385E-04



 n o d a l   p r i n t   o u t   f o r   t i m e  s t e p   45805                              ( at time 2.2899708E+01 )

 nodal point  x-disp     y-disp      z-disp      x-vel       y-vel       z-vel      x-accl      y-accl      z-accl      x-coor      y-coor      z-coor
    22626  4.76503E+00 7.54217E-01-2.04451E+01 2.80411E-01-8.99238E-02 4.40832E-01 1.46963E-02-2.15220E-02-1.33154E-02 5.27292E+01-2.12756E+01-1.31066E+01



 n o d a l   p r i n t   o u t   f o r   t i m e  s t e p   45805                              ( at time 2.2899708E+01 )

 nodal point  x-rot      y-rot       z-rot       x-rot vel   y-rot vel   z-rot vel   x-rot acc   y-rot acc   z-rot acc
    22626  2.62220E-01 1.56140E-01-7.26975E-02 1.77459E-02 8.01052E-03-5.86428E-03-8.31577E-05 8.67530E-05 3.91748E-04



 n o d a l   p r i n t   o u t   f o r   t i m e  s t e p   46005                              ( at time 2.2999698E+01 )

 nodal point  x-disp     y-disp      z-disp      x-vel       y-vel       z-vel      x-accl      y-accl      z-accl      x-coor      y-coor      z-coor
    22626  4.79315E+00 7.45145E-01-2.04011E+01 2.81833E-01-9.17043E-02 4.39701E-01 1.42143E-02-1.78067E-02-1.13074E-02 5.27573E+01-2.12846E+01-1.30626E+01



 n o d a l   p r i n t   o u t   f o r   t i m e  s t e p   46005                              ( at time 2.2999698E+01 )

 nodal point  x-rot      y-rot       z-rot       x-rot vel   y-rot vel   z-rot vel   x-rot acc   y-rot acc   z-rot acc
    22626  2.63995E-01 1.56942E-01-7.32825E-02 1.77601E-02 8.01772E-03-5.83206E-03 1.42226E-04 7.20165E-05 3.22225E-04



 n o d a l   p r i n t   o u t   f o r   t i m e  s t e p   46205                              ( at time 2.3099688E+01 )

 nodal point  x-disp     y-disp      z-disp      x-vel       y-vel       z-vel      x-accl      y-accl      z-accl      x-coor      y-coor      z-coor
    22626  4.82139E+00 7.35900E-01-2.03572E+01 2.83187E-01-9.31458E-02 4.38677E-01 1.35467E-02-1.44174E-02-1.02454E-02 5.27856E+01-2.12939E+01-1.30187E+01



 n o d a l   p r i n t   o u t   f o r   t i m e  s t e p   46205                              ( at time 2.3099688E+01 )

 nodal point  x-rot      y-rot       z-rot       x-rot vel   y-rot vel   z-rot vel   x-rot acc   y-rot acc   z-rot acc
    22626  2.65771E-01 1.57743E-01-7.38638E-02 1.77574E-02 8.01823E-03-5.79388E-03-2.72908E-05 5.10421E-06 3.81871E-04



 n o d a l   p r i n t   o u t   f o r   t i m e  s t e p   46405                              ( at time 2.3199678E+01 )

 nodal point  x-disp     y-disp      z-disp      x-vel       y-vel       z-vel      x-accl      y-accl      z-accl      x-coor      y-coor      z-coor
    22626  4.84978E+00 7.26487E-01-2.03134E+01 2.84508E-01-9.49785E-02 4.37131E-01 1.32102E-02-1.83288E-02-1.54632E-02 5.28140E+01-2.13033E+01-1.29749E+01



 n o d a l   p r i n t   o u t   f o r   t i m e  s t e p   46405                              ( at time 2.3199678E+01 )

 nodal point  x-rot      y-rot       z-rot       x-rot vel   y-rot vel   z-rot vel   x-rot acc   y-rot acc   z-rot acc
    22626  2.67547E-01 1.58545E-01-7.44413E-02 1.77657E-02 8.02060E-03-5.76051E-03 8.34169E-05 2.37043E-05 3.33691E-04



 n o d a l   p r i n t   o u t   f o r   t i m e  s t e p   46605                              ( at time 2.3299668E+01 )

 nodal point  x-disp     y-disp      z-disp      x-vel       y-vel       z-vel      x-accl      y-accl      z-accl      x-coor      y-coor      z-coor
    22626  4.87828E+00 7.16909E-01-2.02697E+01 2.85595E-01-9.63960E-02 4.35920E-01 1.08668E-02-1.41759E-02-1.21121E-02 5.28425E+01-2.13129E+01-1.29312E+01



 n o d a l   p r i n t   o u t   f o r   t i m e  s t e p   46605                              ( at time 2.3299668E+01 )

 nodal point  x-rot      y-rot       z-rot       x-rot vel   y-rot vel   z-rot vel   x-rot acc   y-rot acc   z-rot acc
    22626  2.69324E-01 1.59347E-01-7.50156E-02 1.77772E-02 8.02845E-03-5.72460E-03 1.14994E-04 7.84726E-05 3.59148E-04



 n o d a l   p r i n t   o u t   f o r   t i m e  s t e p   46805                              ( at time 2.3399658E+01 )

 nodal point  x-disp     y-disp      z-disp      x-vel       y-vel       z-vel      x-accl      y-accl      z-accl      x-coor      y-coor      z-coor
    22626  4.90689E+00 7.07203E-01-2.02262E+01 2.86660E-01-9.78903E-02 4.34740E-01 1.06538E-02-1.49448E-02-1.17945E-02 5.28711E+01-2.13226E+01-1.28877E+01



 n o d a l   p r i n t   o u t   f o r   t i m e  s t e p   46805                              ( at time 2.3399658E+01 )

 nodal point  x-rot      y-rot       z-rot       x-rot vel   y-rot vel   z-rot vel   x-rot acc   y-rot acc   z-rot acc
    22626  2.71102E-01 1.60150E-01-7.55862E-02 1.77828E-02 8.02635E-03-5.68766E-03 5.56982E-05-2.09660E-05 3.69503E-04



 n o d a l   p r i n t   o u t   f o r   t i m e  s t e p   47005                              ( at time 2.3499648E+01 )

 nodal point  x-disp     y-disp      z-disp      x-vel       y-vel       z-vel      x-accl      y-accl      z-accl      x-coor      y-coor      z-coor
    22626  4.93561E+00 6.97339E-01-2.01828E+01 2.87792E-01-9.90935E-02 4.32953E-01 1.13235E-02-1.20327E-02-1.78726E-02 5.28998E+01-2.13325E+01-1.28443E+01



 n o d a l   p r i n t   o u t   f o r   t i m e  s t e p   47005                              ( at time 2.3499648E+01 )

 nodal point  x-rot      y-rot       z-rot       x-rot vel   y-rot vel   z-rot vel   x-rot acc   y-rot acc   z-rot acc
    22626  2.72881E-01 1.60952E-01-7.61536E-02 1.78038E-02 8.02156E-03-5.66239E-03 2.09604E-04-4.79023E-05 2.52710E-04



 n o d a l   p r i n t   o u t   f o r   t i m e  s t e p   47205                              ( at time 2.3599638E+01 )

 nodal point  x-disp     y-disp      z-disp      x-vel       y-vel       z-vel      x-accl      y-accl      z-accl      x-coor      y-coor      z-coor
    22626  4.96444E+00 6.87396E-01-2.01396E+01 2.88516E-01-9.99115E-02 4.31517E-01 7.24247E-03-8.18067E-03-1.43603E-02 5.29286E+01-2.13424E+01-1.28011E+01



 n o d a l   p r i n t   o u t   f o r   t i m e  s t e p   47205                              ( at time 2.3599638E+01 )

 nodal point  x-rot      y-rot       z-rot       x-rot vel   y-rot vel   z-rot vel   x-rot acc   y-rot acc   z-rot acc
    22626  2.74661E-01 1.61754E-01-7.67179E-02 1.78057E-02 8.02511E-03-5.62353E-03 1.94482E-05 3.54501E-05 3.88656E-04



 n o d a l   p r i n t   o u t   f o r   t i m e  s t e p   47405                              ( at time 2.3699628E+01 )

 nodal point  x-disp     y-disp      z-disp      x-vel       y-vel       z-vel      x-accl      y-accl      z-accl      x-coor      y-coor      z-coor
    22626  4.99332E+00 6.77382E-01-2.00965E+01 2.89182E-01-1.00346E-01 4.29818E-01 6.65696E-03-4.34759E-03-1.69939E-02 5.29575E+01-2.13524E+01-1.27580E+01



 n o d a l   p r i n t   o u t   f o r   t i m e  s t e p   47405                              ( at time 2.3699628E+01 )

 nodal point  x-rot      y-rot       z-rot       x-rot vel   y-rot vel   z-rot vel   x-rot acc   y-rot acc   z-rot acc
    22626  2.76443E-01 1.62556E-01-7.72787E-02 1.78306E-02 8.02674E-03-5.59189E-03 2.48835E-04 1.62996E-05 3.16418E-04



 n o d a l   p r i n t   o u t   f o r   t i m e  s t e p   47605                              ( at time 2.3799618E+01 )

 nodal point  x-disp     y-disp      z-disp      x-vel       y-vel       z-vel      x-accl      y-accl      z-accl      x-coor      y-coor      z-coor
    22626  5.02230E+00 6.67320E-01-2.00536E+01 2.90331E-01-1.01304E-01 4.28269E-01 1.14951E-02-9.57520E-03-1.54956E-02 5.29865E+01-2.13625E+01-1.27151E+01



 n o d a l   p r i n t   o u t   f o r   t i m e  s t e p   47605                              ( at time 2.3799618E+01 )

 nodal point  x-rot      y-rot       z-rot       x-rot vel   y-rot vel   z-rot vel   x-rot acc   y-rot acc   z-rot acc
    22626  2.78226E-01 1.63359E-01-7.78369E-02 1.78438E-02 8.01739E-03-5.56605E-03 1.31927E-04-9.35338E-05 2.58424E-04



 n o d a l   p r i n t   o u t   f o r   t i m e  s t e p   47805                              ( at time 2.3899608E+01 )

 nodal point  x-disp     y-disp      z-disp      x-vel       y-vel       z-vel      x-accl      y-accl      z-accl      x-coor      y-coor      z-coor
    22626  5.05136E+00 6.57180E-01-2.00109E+01 2.90929E-01-1.01317E-01 4.25962E-01 5.97383E-03-1.30695E-04-2.30712E-02 5.30155E+01-2.13726E+01-1.26724E+01



 n o d a l   p r i n t   o u t   f o r   t i m e  s t e p   47805                              ( at time 2.3899608E+01 )

 nodal point  x-rot      y-rot       z-rot       x-rot vel   y-rot vel   z-rot vel   x-rot acc   y-rot acc   z-rot acc
    22626  2.80012E-01 1.64160E-01-7.83926E-02 1.78687E-02 8.01728E-03-5.54166E-03 2.49450E-04-1.09906E-06 2.43917E-04



 n o d a l   p r i n t   o u t   f o r   t i m e  s t e p   48005                              ( at time 2.3999598E+01 )

 nodal point  x-disp     y-disp      z-disp      x-vel       y-vel       z-vel      x-accl      y-accl      z-accl      x-coor      y-coor      z-coor
    22626  5.08046E+00 6.47049E-01-1.99684E+01 2.91172E-01-1.01214E-01 4.24434E-01 2.43542E-03 1.02181E-03-1.52822E-02 5.30446E+01-2.13827E+01-1.26299E+01



 n o d a l   p r i n t   o u t   f o r   t i m e  s t e p   48005                              ( at time 2.3999598E+01 )

 nodal point  x-rot      y-rot       z-rot       x-rot vel   y-rot vel   z-rot vel   x-rot acc   y-rot acc   z-rot acc
    22626  2.81800E-01 1.64962E-01-7.89451E-02 1.78943E-02 8.01184E-03-5.50822E-03 2.55341E-04-5.43766E-05 3.34377E-04



 n o d a l   p r i n t   o u t   f o r   t i m e  s t e p   48205                              ( at time 2.4099588E+01 )

 nodal point  x-disp     y-disp      z-disp      x-vel       y-vel       z-vel      x-accl      y-accl      z-accl      x-coor      y-coor      z-coor
    22626  5.10961E+00 6.36941E-01-1.99261E+01 2.91616E-01-1.01033E-01 4.22005E-01 4.44095E-03 1.81751E-03-2.42872E-02 5.30738E+01-2.13928E+01-1.25876E+01



 n o d a l   p r i n t   o u t   f o r   t i m e  s t e p   48205                              ( at time 2.4099588E+01 )

 nodal point  x-rot      y-rot       z-rot       x-rot vel   y-rot vel   z-rot vel   x-rot acc   y-rot acc   z-rot acc
    22626  2.83590E-01 1.65762E-01-7.94948E-02 1.79212E-02 8.00100E-03-5.48847E-03 2.69251E-04-1.08434E-04 1.97612E-04



 n o d a l   p r i n t   o u t   f o r   t i m e  s t e p   48405                              ( at time 2.4199578E+01 )

 nodal point  x-disp     y-disp      z-disp      x-vel       y-vel       z-vel      x-accl      y-accl      z-accl      x-coor      y-coor      z-coor
    22626  5.13878E+00 6.26828E-01-1.98840E+01 2.92234E-01-1.00856E-01 4.20194E-01 6.18139E-03 1.77239E-03-1.81141E-02 5.31030E+01-2.14030E+01-1.25455E+01



 n o d a l   p r i n t   o u t   f o r   t i m e  s t e p   48405                              ( at time 2.4199578E+01 )

 nodal point  x-rot      y-rot       z-rot       x-rot vel   y-rot vel   z-rot vel   x-rot acc   y-rot acc   z-rot acc
    22626  2.85383E-01 1.66562E-01-8.00427E-02 1.79382E-02 7.99810E-03-5.46462E-03 1.70525E-04-2.90139E-05 2.38468E-04



 n o d a l   p r i n t   o u t   f o r   t i m e  s t e p   48605                              ( at time 2.4299568E+01 )

 nodal point  x-disp     y-disp      z-disp      x-vel       y-vel       z-vel      x-accl      y-accl      z-accl      x-coor      y-coor      z-coor
    22626  5.16799E+00 6.16792E-01-1.98421E+01 2.92036E-01-1.00064E-01 4.17821E-01-1.98651E-03 7.91339E-03-2.37344E-02 5.31322E+01-2.14130E+01-1.25036E+01



 n o d a l   p r i n t   o u t   f o r   t i m e  s t e p   48605                              ( at time 2.4299568E+01 )

 nodal point  x-rot      y-rot       z-rot       x-rot vel   y-rot vel   z-rot vel   x-rot acc   y-rot acc   z-rot acc
    22626  2.87178E-01 1.67361E-01-8.05883E-02 1.79722E-02 7.98792E-03-5.44235E-03 3.39312E-04-1.01766E-04 2.22709E-04



 n o d a l   p r i n t   o u t   f o r   t i m e  s t e p   48805                              ( at time 2.4399558E+01 )

 nodal point  x-disp     y-disp      z-disp      x-vel       y-vel       z-vel      x-accl      y-accl      z-accl      x-coor      y-coor      z-coor
    22626  5.19718E+00 6.06853E-01-1.98004E+01 2.91901E-01-9.88628E-02 4.15459E-01-1.34600E-03 1.20154E-02-2.36214E-02 5.31614E+01-2.14229E+01-1.24619E+01



 n o d a l   p r i n t   o u t   f o r   t i m e  s t e p   48805                              ( at time 2.4399558E+01 )

 nodal point  x-rot      y-rot       z-rot       x-rot vel   y-rot vel   z-rot vel   x-rot acc   y-rot acc   z-rot acc
    22626  2.88976E-01 1.68159E-01-8.11317E-02 1.79862E-02 7.98011E-03-5.42410E-03 1.39991E-04-7.80799E-05 1.82547E-04



 n o d a l   p r i n t   o u t   f o r   t i m e  s t e p   49006                              ( at time 2.4500048E+01 )

 nodal point  x-disp     y-disp      z-disp      x-vel       y-vel       z-vel      x-accl      y-accl      z-accl      x-coor      y-coor      z-coor
    22626  5.22654E+00 5.96952E-01-1.97588E+01 2.92010E-01-9.80743E-02 4.13795E-01 1.08694E-03 7.84690E-03-1.65610E-02 5.31907E+01-2.14328E+01-1.24203E+01



 n o d a l   p r i n t   o u t   f o r   t i m e  s t e p   49006                              ( at time 2.4500048E+01 )

 nodal point  x-rot      y-rot       z-rot       x-rot vel   y-rot vel   z-rot vel   x-rot acc   y-rot acc   z-rot acc
    22626  2.90785E-01 1.68961E-01-8.16755E-02 1.80166E-02 7.96962E-03-5.40476E-03 3.02617E-04-1.04431E-04 1.92463E-04



 n o d a l   p r i n t   o u t   f o r   t i m e  s t e p   49206                              ( at time 2.4600038E+01 )

 nodal point  x-disp     y-disp      z-disp      x-vel       y-vel       z-vel      x-accl      y-accl      z-accl      x-coor      y-coor      z-coor
    22626  5.25574E+00 5.87227E-01-1.97175E+01 2.91961E-01-9.64065E-02 4.11269E-01-4.94764E-04 1.66800E-02-2.52571E-02 5.32199E+01-2.14426E+01-1.23790E+01



 n o d a l   p r i n t   o u t   f o r   t i m e  s t e p   49206                              ( at time 2.4600038E+01 )

 nodal point  x-rot      y-rot       z-rot       x-rot vel   y-rot vel   z-rot vel   x-rot acc   y-rot acc   z-rot acc
    22626  2.92587E-01 1.69757E-01-8.22152E-02 1.80358E-02 7.96092E-03-5.38556E-03 1.92727E-04-8.70401E-05 1.92019E-04



 n o d a l   p r i n t   o u t   f o r   t i m e  s t e p   49406                              ( at time 2.4700028E+01 )

 nodal point  x-disp     y-disp      z-disp      x-vel       y-vel       z-vel      x-accl      y-accl      z-accl      x-coor      y-coor      z-coor
    22626  5.28491E+00 5.77686E-01-1.96765E+01 2.91628E-01-9.47650E-02 4.08851E-01-3.33137E-03 1.64168E-02-2.41816E-02 5.32491E+01-2.14521E+01-1.23380E+01



 n o d a l   p r i n t   o u t   f o r   t i m e  s t e p   49406                              ( at time 2.4700028E+01 )

 nodal point  x-rot      y-rot       z-rot       x-rot vel   y-rot vel   z-rot vel   x-rot acc   y-rot acc   z-rot acc
    22626  2.94391E-01 1.70553E-01-8.27530E-02 1.80481E-02 7.95574E-03-5.36459E-03 1.22538E-04-5.17407E-05 2.09748E-04



 n o d a l   p r i n t   o u t   f o r   t i m e  s t e p   49606                              ( at time 2.4800018E+01 )

 nodal point  x-disp     y-disp      z-disp      x-vel       y-vel       z-vel      x-accl      y-accl      z-accl      x-coor      y-coor      z-coor
    22626  5.31404E+00 5.68283E-01-1.96357E+01 2.91137E-01-9.32083E-02 4.07075E-01-4.90681E-03 1.55678E-02-1.77650E-02 5.32782E+01-2.14615E+01-1.22972E+01



 n o d a l   p r i n t   o u t   f o r   t i m e  s t e p   49606                              ( at time 2.4800018E+01 )

 nodal point  x-rot      y-rot       z-rot       x-rot vel   y-rot vel   z-rot vel   x-rot acc   y-rot acc   z-rot acc
    22626  2.96198E-01 1.71348E-01-8.32887E-02 1.80840E-02 7.94213E-03-5.35438E-03 3.59169E-04-1.36181E-04 1.02110E-04



 n o d a l   p r i n t   o u t   f o r   t i m e  s t e p   49806                              ( at time 2.4900008E+01 )

 nodal point  x-disp     y-disp      z-disp      x-vel       y-vel       z-vel      x-accl      y-accl      z-accl      x-coor      y-coor      z-coor
    22626  5.34314E+00 5.59049E-01-1.95952E+01 2.90773E-01-9.13954E-02 4.04328E-01-3.64642E-03 1.81315E-02-2.74754E-02 5.33073E+01-2.14707E+01-1.22567E+01



 n o d a l   p r i n t   o u t   f o r   t i m e  s t e p   49806                              ( at time 2.4900008E+01 )

 nodal point  x-rot      y-rot       z-rot       x-rot vel   y-rot vel   z-rot vel   x-rot acc   y-rot acc   z-rot acc
    22626  2.98007E-01 1.72141E-01-8.38232E-02 1.81034E-02 7.92824E-03-5.33693E-03 1.93718E-04-1.38838E-04 1.74503E-04



 n o d a l   p r i n t   o u t   f o r   t i m e  s t e p   50006                              ( at time 2.4999998E+01 )

 nodal point  x-disp     y-disp      z-disp      x-vel       y-vel       z-vel      x-accl      y-accl      z-accl      x-coor      y-coor      z-coor
    22626  5.37217E+00 5.50003E-01-1.95548E+01 2.89812E-01-8.95029E-02 4.01981E-01-9.60915E-03 1.89264E-02-2.34661E-02 5.33364E+01-2.14798E+01-1.22163E+01



 n o d a l   p r i n t   o u t   f o r   t i m e  s t e p   50006                              ( at time 2.4999998E+01 )

 nodal point  x-rot      y-rot       z-rot       x-rot vel   y-rot vel   z-rot vel   x-rot acc   y-rot acc   z-rot acc
    22626  2.99818E-01 1.72934E-01-8.43560E-02 1.81232E-02 7.92279E-03-5.31905E-03 1.98595E-04-5.45339E-05 1.78821E-04
