 LSTC 50th% Full_FE H-III Dummy (Beta Version, February 17, 2019)        
                    ls-dyna smp s R16 R16.0_619_d222963 date 03/18/2025

{BEGIN LEGEND}
 Entity #        Title
    22626                                                                                     
{END LEGEND}




 n o d a l   p r i n t   o u t   f o r   t i m e  s t e p       1                              ( at time 0.0000000E+00 )

 nodal point  x-disp     y-disp      z-disp      x-vel       y-vel       z-vel      x-accl      y-accl      z-accl      x-coor      y-coor      z-coor
    22626  0.00000E+00 0.00000E+00 0.00000E+00 0.00000E+00 0.00000E+00-3.12000E+00 0.00000E+00 0.00000E+00 0.00000E+00 4.79642E+01-2.20298E+01 7.33850E+00



 n o d a l   p r i n t   o u t   f o r   t i m e  s t e p       1                              ( at time 0.0000000E+00 )

 nodal point  x-rot      y-rot       z-rot       x-rot vel   y-rot vel   z-rot vel   x-rot acc   y-rot acc   z-rot acc
    22626  0.00000E+00 0.00000E+00 0.00000E+00 0.00000E+00 0.00000E+00 0.00000E+00 0.00000E+00 0.00000E+00 0.00000E+00



 n o d a l   p r i n t   o u t   f o r   t i m e  s t e p     201                              ( at time 9.9989993E-02 )

 nodal point  x-disp     y-disp      z-disp      x-vel       y-vel       z-vel      x-accl      y-accl      z-accl      x-coor      y-coor      z-coor
    22626  8.34278E-07-4.04454E-06-3.12016E-01 4.76686E-05-4.96437E-04-3.12074E+00 4.76734E-04-4.96487E-03-7.42510E-03 4.79642E+01-2.20298E+01 7.02648E+00



 n o d a l   p r i n t   o u t   f o r   t i m e  s t e p     201                              ( at time 9.9989993E-02 )

 nodal point  x-rot      y-rot       z-rot       x-rot vel   y-rot vel   z-rot vel   x-rot acc   y-rot acc   z-rot acc
    22626  9.60945E-09 3.04012E-08 5.26991E-08 1.30741E-06 2.72317E-06 5.21248E-06 1.30754E-05 2.72345E-05 5.21300E-05



 n o d a l   p r i n t   o u t   f o r   t i m e  s t e p     401                              ( at time 1.9997999E-01 )

 nodal point  x-disp     y-disp      z-disp      x-vel       y-vel       z-vel      x-accl      y-accl      z-accl      x-coor      y-coor      z-coor
    22626 -5.12789E-05-5.21552E-04-6.23853E-01-1.09684E-03-1.11140E-02-3.11558E+00-1.14463E-02-1.06186E-01 5.16109E-02 4.79641E+01-2.20303E+01 6.71465E+00



 n o d a l   p r i n t   o u t   f o r   t i m e  s t e p     401                              ( at time 1.9997999E-01 )

 nodal point  x-rot      y-rot       z-rot       x-rot vel   y-rot vel   z-rot vel   x-rot acc   y-rot acc   z-rot acc
    22626  4.60238E-07 1.32967E-06 2.50208E-06 2.66682E-06 1.90536E-05 3.49509E-05 1.35955E-05 1.63321E-04 2.97414E-04



 n o d a l   p r i n t   o u t   f o r   t i m e  s t e p     601                              ( at time 2.9996998E-01 )

 nodal point  x-disp     y-disp      z-disp      x-vel       y-vel       z-vel      x-accl      y-accl      z-accl      x-coor      y-coor      z-coor
    22626 -2.45198E-05-1.97603E-03-9.35238E-01 1.66257E-03-1.60353E-02-3.11415E+00 2.75969E-02-4.92182E-02 1.42970E-02 4.79642E+01-2.20318E+01 6.40326E+00



 n o d a l   p r i n t   o u t   f o r   t i m e  s t e p     601                              ( at time 2.9996998E-01 )

 nodal point  x-rot      y-rot       z-rot       x-rot vel   y-rot vel   z-rot vel   x-rot acc   y-rot acc   z-rot acc
    22626  6.74102E-07 2.40732E-06 4.82329E-06 8.21332E-06 5.24291E-06 1.45160E-05 5.54705E-05-1.38121E-04-2.04369E-04



 n o d a l   p r i n t   o u t   f o r   t i m e  s t e p     801                              ( at time 3.9995997E-01 )

 nodal point  x-disp     y-disp      z-disp      x-vel       y-vel       z-vel      x-accl      y-accl      z-accl      x-coor      y-coor      z-coor
    22626  6.00389E-05-3.56998E-03-1.24663E+00 2.02949E-04-1.73116E-02-3.11358E+00-1.45976E-02-1.27639E-02 5.75123E-03 4.79642E+01-2.20334E+01 6.09187E+00



 n o d a l   p r i n t   o u t   f o r   t i m e  s t e p     801                              ( at time 3.9995997E-01 )

 nodal point  x-rot      y-rot       z-rot       x-rot vel   y-rot vel   z-rot vel   x-rot acc   y-rot acc   z-rot acc
    22626  1.57275E-06 3.63709E-06 6.60140E-06 6.15767E-06 2.34156E-05 3.66212E-05-2.05585E-05 1.81745E-04 2.21074E-04



 n o d a l   p r i n t   o u t   f o r   t i m e  s t e p    1001                              ( at time 4.9994997E-01 )

 nodal point  x-disp     y-disp      z-disp      x-vel       y-vel       z-vel      x-accl      y-accl      z-accl      x-coor      y-coor      z-coor
    22626  7.07516E-05-5.61296E-03-1.55783E+00 8.11554E-04-2.36199E-02-3.11096E+00 6.08666E-03-6.30900E-02 2.62215E-02 4.79643E+01-2.20354E+01 5.78067E+00



 n o d a l   p r i n t   o u t   f o r   t i m e  s t e p    1001                              ( at time 4.9994997E-01 )

 nodal point  x-rot      y-rot       z-rot       x-rot vel   y-rot vel   z-rot vel   x-rot acc   y-rot acc   z-rot acc
    22626  1.47633E-06 6.46144E-06 1.14334E-05-4.88075E-06 4.15750E-05 6.70209E-05-1.10395E-04 1.81612E-04 3.04028E-04



 n o d a l   p r i n t   o u t   f o r   t i m e  s t e p    1201                              ( at time 5.9993996E-01 )

 nodal point  x-disp     y-disp      z-disp      x-vel       y-vel       z-vel      x-accl      y-accl      z-accl      x-coor      y-coor      z-coor
    22626  4.44377E-05-8.08911E-03-1.86890E+00-5.69266E-04-2.57691E-02-3.11102E+00-1.38096E-02-2.14934E-02-6.29488E-04 4.79642E+01-2.20379E+01 5.46960E+00



 n o d a l   p r i n t   o u t   f o r   t i m e  s t e p    1201                              ( at time 5.9993996E-01 )

 nodal point  x-rot      y-rot       z-rot       x-rot vel   y-rot vel   z-rot vel   x-rot acc   y-rot acc   z-rot acc
    22626  1.22507E-06 9.39312E-06 1.66985E-05-2.64784E-06 2.24189E-05 4.50303E-05 2.23313E-05-1.91580E-04-2.19928E-04



 n o d a l   p r i n t   o u t   f o r   t i m e  s t e p    1401                              ( at time 6.9992995E-01 )

 nodal point  x-disp     y-disp      z-disp      x-vel       y-vel       z-vel      x-accl      y-accl      z-accl      x-coor      y-coor      z-coor
    22626  1.19145E-05-1.09341E-02-2.17981E+00 7.09047E-04-3.17949E-02-3.10793E+00 1.27844E-02-6.02646E-02 3.08473E-02 4.79642E+01-2.20407E+01 5.15869E+00



 n o d a l   p r i n t   o u t   f o r   t i m e  s t e p    1401                              ( at time 6.9992995E-01 )

 nodal point  x-rot      y-rot       z-rot       x-rot vel   y-rot vel   z-rot vel   x-rot acc   y-rot acc   z-rot acc
    22626  1.00033E-06 1.20830E-05 2.07072E-05-2.99176E-06 3.15896E-05 4.75689E-05-3.43958E-06 9.17154E-05 2.53885E-05



 n o d a l   p r i n t   o u t   f o r   t i m e  s t e p    1601                              ( at time 7.9991994E-01 )

 nodal point  x-disp     y-disp      z-disp      x-vel       y-vel       z-vel      x-accl      y-accl      z-accl      x-coor      y-coor      z-coor
    22626  1.20159E-04-1.44204E-02-2.49046E+00 1.27325E-03-3.59826E-02-3.10645E+00 5.64261E-03-4.18810E-02 1.48454E-02 4.79643E+01-2.20442E+01 4.84804E+00



 n o d a l   p r i n t   o u t   f o r   t i m e  s t e p    1601                              ( at time 7.9991994E-01 )

 nodal point  x-rot      y-rot       z-rot       x-rot vel   y-rot vel   z-rot vel   x-rot acc   y-rot acc   z-rot acc
    22626  8.77649E-07 1.54769E-05 2.61716E-05 2.79293E-06 3.96849E-05 5.80030E-05 5.78527E-05 8.09617E-05 1.04352E-04



 n o d a l   p r i n t   o u t   f o r   t i m e  s t e p    1801                              ( at time 8.9990994E-01 )

 nodal point  x-disp     y-disp      z-disp      x-vel       y-vel       z-vel      x-accl      y-accl      z-accl      x-coor      y-coor      z-coor
    22626  1.82938E-04-1.79661E-02-2.80117E+00-6.32298E-04-3.53464E-02-3.10797E+00-1.90574E-02 6.36310E-03-1.51936E-02 4.79644E+01-2.20478E+01 4.53733E+00



 n o d a l   p r i n t   o u t   f o r   t i m e  s t e p    1801                              ( at time 8.9990994E-01 )

 nodal point  x-rot      y-rot       z-rot       x-rot vel   y-rot vel   z-rot vel   x-rot acc   y-rot acc   z-rot acc
    22626  8.27742E-07 1.85217E-05 3.10196E-05-2.95901E-06 2.58265E-05 4.38653E-05-5.75251E-05-1.38598E-04-1.41392E-04



 n o d a l   p r i n t   o u t   f o r   t i m e  s t e p    2001                              ( at time 9.9989993E-01 )

 nodal point  x-disp     y-disp      z-disp      x-vel       y-vel       z-vel      x-accl      y-accl      z-accl      x-coor      y-coor      z-coor
    22626  7.76700E-05-2.15597E-02-3.11194E+00-8.85426E-04-3.70303E-02-3.10834E+00-2.53153E-03-1.68416E-02-3.72447E-03 4.79643E+01-2.20513E+01 4.22656E+00



 n o d a l   p r i n t   o u t   f o r   t i m e  s t e p    2001                              ( at time 9.9989993E-01 )

 nodal point  x-rot      y-rot       z-rot       x-rot vel   y-rot vel   z-rot vel   x-rot acc   y-rot acc   z-rot acc
    22626  5.73980E-07 2.12859E-05 3.54174E-05-1.47825E-06 2.88981E-05 5.37769E-05 1.48091E-05 3.07194E-05 9.91263E-05



 n o d a l   p r i n t   o u t   f o r   t i m e  s t e p    2201                              ( at time 1.0998899E+00 )

 nodal point  x-disp     y-disp      z-disp      x-vel       y-vel       z-vel      x-accl      y-accl      z-accl      x-coor      y-coor      z-coor
    22626  5.41754E-05-2.53534E-02-3.42273E+00-2.27159E-04-3.85505E-02-3.10802E+00 6.58333E-03-1.52030E-02 3.23090E-03 4.79642E+01-2.20551E+01 3.91577E+00



 n o d a l   p r i n t   o u t   f o r   t i m e  s t e p    2201                              ( at time 1.0998899E+00 )

 nodal point  x-rot      y-rot       z-rot       x-rot vel   y-rot vel   z-rot vel   x-rot acc   y-rot acc   z-rot acc
    22626  5.81589E-07 2.41889E-05 4.04469E-05 4.52273E-06 2.55466E-05 3.48736E-05 6.00158E-05-3.35186E-05-1.89052E-04



 n o d a l   p r i n t   o u t   f o r   t i m e  s t e p    2401                              ( at time 1.1998799E+00 )

 nodal point  x-disp     y-disp      z-disp      x-vel       y-vel       z-vel      x-accl      y-accl      z-accl      x-coor      y-coor      z-coor
    22626  9.50392E-05-2.91856E-02-3.73357E+00 6.40339E-04-3.78343E-02-3.10961E+00 8.67585E-03 7.16281E-03-1.59327E-02 4.79643E+01-2.20590E+01 3.60493E+00



 n o d a l   p r i n t   o u t   f o r   t i m e  s t e p    2401                              ( at time 1.1998799E+00 )

 nodal point  x-rot      y-rot       z-rot       x-rot vel   y-rot vel   z-rot vel   x-rot acc   y-rot acc   z-rot acc
    22626  9.00772E-07 2.60384E-05 4.29742E-05 4.06459E-06 1.47751E-05 1.87143E-05-4.58186E-06-1.07726E-04-1.61609E-04



 n o d a l   p r i n t   o u t   f o r   t i m e  s t e p    2601                              ( at time 1.2998699E+00 )

 nodal point  x-disp     y-disp      z-disp      x-vel       y-vel       z-vel      x-accl      y-accl      z-accl      x-coor      y-coor      z-coor
    22626  9.15843E-05-3.28032E-02-4.04463E+00-5.86812E-04-3.40992E-02-3.11273E+00-1.22727E-02 3.73545E-02-3.12169E-02 4.79643E+01-2.20626E+01 3.29387E+00



 n o d a l   p r i n t   o u t   f o r   t i m e  s t e p    2601                              ( at time 1.2998699E+00 )

 nodal point  x-rot      y-rot       z-rot       x-rot vel   y-rot vel   z-rot vel   x-rot acc   y-rot acc   z-rot acc
    22626  1.06710E-06 2.73516E-05 4.46774E-05-3.68776E-06 1.59885E-05 2.46416E-05-7.75312E-05 1.21350E-05 5.92787E-05



 n o d a l   p r i n t   o u t   f o r   t i m e  s t e p    2801                              ( at time 1.3998599E+00 )

 nodal point  x-disp     y-disp      z-disp      x-vel       y-vel       z-vel      x-accl      y-accl      z-accl      x-coor      y-coor      z-coor
    22626 -2.70286E-05-3.59375E-02-4.35608E+00-1.23705E-03-2.88545E-02-3.11660E+00-6.50306E-03 5.24526E-02-3.86730E-02 4.79642E+01-2.20657E+01 2.98242E+00



 n o d a l   p r i n t   o u t   f o r   t i m e  s t e p    2801                              ( at time 1.3998599E+00 )

 nodal point  x-rot      y-rot       z-rot       x-rot vel   y-rot vel   z-rot vel   x-rot acc   y-rot acc   z-rot acc
    22626  5.36995E-07 2.86278E-05 4.66973E-05-5.18374E-06 1.07306E-05 1.28242E-05-1.49613E-05-5.25841E-05-1.18186E-04



 n o d a l   p r i n t   o u t   f o r   t i m e  s t e p    3001                              ( at time 1.4998499E+00 )

 nodal point  x-disp     y-disp      z-disp      x-vel       y-vel       z-vel      x-accl      y-accl      z-accl      x-coor      y-coor      z-coor
    22626 -1.22222E-04-3.87235E-02-4.66782E+00-3.86650E-04-2.71444E-02-3.11863E+00 8.50489E-03 1.71025E-02-2.02652E-02 4.79641E+01-2.20685E+01 2.67068E+00



 n o d a l   p r i n t   o u t   f o r   t i m e  s t e p    3001                              ( at time 1.4998499E+00 )

 nodal point  x-rot      y-rot       z-rot       x-rot vel   y-rot vel   z-rot vel   x-rot acc   y-rot acc   z-rot acc
    22626  8.42950E-08 2.89556E-05 4.69387E-05-2.62648E-06-4.12464E-06-6.94151E-06 2.55752E-05-1.48567E-04-1.97677E-04



 n o d a l   p r i n t   o u t   f o r   t i m e  s t e p    3201                              ( at time 1.5998399E+00 )

 nodal point  x-disp     y-disp      z-disp      x-vel       y-vel       z-vel      x-accl      y-accl      z-accl      x-coor      y-coor      z-coor
    22626 -1.65794E-04-4.13449E-02-4.97974E+00-7.31822E-04-2.47774E-02-3.12102E+00-3.45207E-03 2.36720E-02-2.39158E-02 4.79640E+01-2.20711E+01 2.35876E+00



 n o d a l   p r i n t   o u t   f o r   t i m e  s t e p    3201                              ( at time 1.5998399E+00 )

 nodal point  x-rot      y-rot       z-rot       x-rot vel   y-rot vel   z-rot vel   x-rot acc   y-rot acc   z-rot acc
    22626 -2.96604E-07 2.83999E-05 4.54253E-05-2.30609E-06-3.72947E-06-1.53257E-05 3.20414E-06 3.95206E-06-8.38502E-05



 n o d a l   p r i n t   o u t   f o r   t i m e  s t e p    3401                              ( at time 1.6998299E+00 )

 nodal point  x-disp     y-disp      z-disp      x-vel       y-vel       z-vel      x-accl      y-accl      z-accl      x-coor      y-coor      z-coor
    22626 -2.44205E-04-4.35882E-02-5.29200E+00-9.19084E-04-1.97795E-02-3.12485E+00-1.87280E-03 4.99845E-02-3.83749E-02 4.79639E+01-2.20734E+01 2.04650E+00



 n o d a l   p r i n t   o u t   f o r   t i m e  s t e p    3401                              ( at time 1.6998299E+00 )

 nodal point  x-rot      y-rot       z-rot       x-rot vel   y-rot vel   z-rot vel   x-rot acc   y-rot acc   z-rot acc
    22626 -5.59286E-07 2.77392E-05 4.41118E-05-3.96544E-06-7.31639E-06-1.46067E-05-1.65951E-05-3.58727E-05 7.19068E-06



 n o d a l   p r i n t   o u t   f o r   t i m e  s t e p    3601                              ( at time 1.7998199E+00 )

 nodal point  x-disp     y-disp      z-disp      x-vel       y-vel       z-vel      x-accl      y-accl      z-accl      x-coor      y-coor      z-coor
    22626 -3.24728E-04-4.53193E-02-5.60466E+00-1.18666E-03-1.52276E-02-3.12879E+00-2.67600E-03 4.55237E-02-3.93454E-02 4.79639E+01-2.20751E+01 1.73384E+00



 n o d a l   p r i n t   o u t   f o r   t i m e  s t e p    3601                              ( at time 1.7998199E+00 )

 nodal point  x-rot      y-rot       z-rot       x-rot vel   y-rot vel   z-rot vel   x-rot acc   y-rot acc   z-rot acc
    22626 -7.19836E-07 2.68629E-05 4.26832E-05 8.85329E-08-1.42341E-05-1.84388E-05 4.05438E-05-6.91844E-05-3.83250E-05



 n o d a l   p r i n t   o u t   f o r   t i m e  s t e p    3801                              ( at time 1.8998099E+00 )

 nodal point  x-disp     y-disp      z-disp      x-vel       y-vel       z-vel      x-accl      y-accl      z-accl      x-coor      y-coor      z-coor
    22626 -4.95485E-04-4.67283E-02-5.91762E+00-2.03269E-03-1.30938E-02-3.13108E+00-8.46118E-03 2.13396E-02-2.29644E-02 4.79637E+01-2.20765E+01 1.42088E+00



 n o d a l   p r i n t   o u t   f o r   t i m e  s t e p    3801                              ( at time 1.8998099E+00 )

 nodal point  x-rot      y-rot       z-rot       x-rot vel   y-rot vel   z-rot vel   x-rot acc   y-rot acc   z-rot acc
    22626 -9.06873E-07 2.50831E-05 4.01671E-05 2.33504E-06-2.10886E-05-3.08587E-05 2.24673E-05-6.85512E-05-1.24212E-04



 n o d a l   p r i n t   o u t   f o r   t i m e  s t e p    4001                              ( at time 1.9997999E+00 )

 nodal point  x-disp     y-disp      z-disp      x-vel       y-vel       z-vel      x-accl      y-accl      z-accl      x-coor      y-coor      z-coor
    22626 -6.56351E-04-4.79236E-02-6.23081E+00-1.46375E-03-1.09352E-02-3.13320E+00 5.69000E-03 2.15883E-02-2.11737E-02 4.79635E+01-2.20777E+01 1.10769E+00



 n o d a l   p r i n t   o u t   f o r   t i m e  s t e p    4001                              ( at time 1.9997999E+00 )

 nodal point  x-rot      y-rot       z-rot       x-rot vel   y-rot vel   z-rot vel   x-rot acc   y-rot acc   z-rot acc
    22626 -6.89603E-07 2.28794E-05 3.68301E-05 2.52118E-06-2.08656E-05-3.44595E-05 1.86161E-06 2.23003E-06-3.60114E-05



 n o d a l   p r i n t   o u t   f o r   t i m e  s t e p    4201                              ( at time 2.0997899E+00 )

 nodal point  x-disp     y-disp      z-disp      x-vel       y-vel       z-vel      x-accl      y-accl      z-accl      x-coor      y-coor      z-coor
    22626 -8.10971E-04-4.88463E-02-6.54424E+00-1.75986E-03-7.68499E-03-3.13597E+00-2.96148E-03 3.25053E-02-2.76999E-02 4.79634E+01-2.20786E+01 7.94259E-01



 n o d a l   p r i n t   o u t   f o r   t i m e  s t e p    4201                              ( at time 2.0997899E+00 )

 nodal point  x-rot      y-rot       z-rot       x-rot vel   y-rot vel   z-rot vel   x-rot acc   y-rot acc   z-rot acc
    22626 -4.65025E-07 2.02719E-05 3.27615E-05-2.14803E-06-2.79220E-05-4.59036E-05-4.66968E-05-7.05712E-05-1.14452E-04



 n o d a l   p r i n t   o u t   f o r   t i m e  s t e p    4401                              ( at time 2.1997798E+00 )

 nodal point  x-disp     y-disp      z-disp      x-vel       y-vel       z-vel      x-accl      y-accl      z-accl      x-coor      y-coor      z-coor
    22626 -1.04554E-03-4.94081E-02-6.85797E+00-2.75622E-03-3.36091E-03-3.13948E+00-9.96458E-03 4.32452E-02-3.51250E-02 4.79631E+01-2.20792E+01 4.80527E-01



 n o d a l   p r i n t   o u t   f o r   t i m e  s t e p    4401                              ( at time 2.1997798E+00 )

 nodal point  x-rot      y-rot       z-rot       x-rot vel   y-rot vel   z-rot vel   x-rot acc   y-rot acc   z-rot acc
    22626 -7.07421E-07 1.72124E-05 2.81215E-05-2.17768E-06-3.13898E-05-4.61961E-05-2.96493E-07-3.46818E-05-2.92556E-06



 n o d a l   p r i n t   o u t   f o r   t i m e  s t e p    4601                              ( at time 2.2997698E+00 )

 nodal point  x-disp     y-disp      z-disp      x-vel       y-vel       z-vel      x-accl      y-accl      z-accl      x-coor      y-coor      z-coor
    22626 -1.34679E-03-4.95210E-02-7.17206E+00-3.36722E-03 4.72252E-04-3.14246E+00-6.11057E-03 3.83354E-02-2.97695E-02 4.79628E+01-2.20793E+01 1.66439E-01



 n o d a l   p r i n t   o u t   f o r   t i m e  s t e p    4601                              ( at time 2.2997698E+00 )

 nodal point  x-rot      y-rot       z-rot       x-rot vel   y-rot vel   z-rot vel   x-rot acc   y-rot acc   z-rot acc
    22626 -1.27677E-06 1.41817E-05 2.36127E-05-6.80276E-06-3.46094E-05-5.06550E-05-4.62554E-05-3.21987E-05-4.45932E-05



 n o d a l   p r i n t   o u t   f o r   t i m e  s t e p    4801                              ( at time 2.3997598E+00 )

 nodal point  x-disp     y-disp      z-disp      x-vel       y-vel       z-vel      x-accl      y-accl      z-accl      x-coor      y-coor      z-coor
    22626 -1.69973E-03-4.94183E-02-7.48636E+00-3.48029E-03 1.67899E-03-3.14416E+00-1.13083E-03 1.20686E-02-1.69557E-02 4.79625E+01-2.20792E+01-1.47855E-01



 n o d a l   p r i n t   o u t   f o r   t i m e  s t e p    4801                              ( at time 2.3997598E+00 )

 nodal point  x-rot      y-rot       z-rot       x-rot vel   y-rot vel   z-rot vel   x-rot acc   y-rot acc   z-rot acc
    22626 -2.03454E-06 1.07032E-05 1.79361E-05-8.25743E-06-3.52490E-05-5.94725E-05-1.45481E-05-6.39640E-06-8.81838E-05



 n o d a l   p r i n t   o u t   f o r   t i m e  s t e p    5001                              ( at time 2.4997498E+00 )

 nodal point  x-disp     y-disp      z-disp      x-vel       y-vel       z-vel      x-accl      y-accl      z-accl      x-coor      y-coor      z-coor
    22626 -2.08143E-03-4.91443E-02-7.80085E+00-4.20736E-03 4.41746E-03-3.14669E+00-7.27137E-03 2.73874E-02-2.53321E-02 4.79621E+01-2.20789E+01-4.62346E-01



 n o d a l   p r i n t   o u t   f o r   t i m e  s t e p    5001                              ( at time 2.4997498E+00 )

 nodal point  x-rot      y-rot       z-rot       x-rot vel   y-rot vel   z-rot vel   x-rot acc   y-rot acc   z-rot acc
    22626 -2.75760E-06 6.77859E-06 1.15889E-05-7.28000E-06-4.14458E-05-6.94033E-05 9.77526E-06-6.19746E-05-9.93173E-05



 n o d a l   p r i n t   o u t   f o r   t i m e  s t e p    5201                              ( at time 2.5997398E+00 )

 nodal point  x-disp     y-disp      z-disp      x-vel       y-vel       z-vel      x-accl      y-accl      z-accl      x-coor      y-coor      z-coor
    22626 -2.54357E-03-4.85034E-02-8.11565E+00-5.08234E-03 8.25153E-03-3.14997E+00-8.75070E-03 3.83446E-02-3.27978E-02 4.79616E+01-2.20783E+01-7.77153E-01



 n o d a l   p r i n t   o u t   f o r   t i m e  s t e p    5201                              ( at time 2.5997398E+00 )

 nodal point  x-rot      y-rot       z-rot       x-rot vel   y-rot vel   z-rot vel   x-rot acc   y-rot acc   z-rot acc
    22626 -3.53536E-06 2.34683E-06 4.41473E-06-8.28583E-06-4.62415E-05-7.40559E-05-1.00593E-05-4.79622E-05-4.65309E-05



 n o d a l   p r i n t   o u t   f o r   t i m e  s t e p    5401                              ( at time 2.6997298E+00 )

 nodal point  x-disp     y-disp      z-disp      x-vel       y-vel       z-vel      x-accl      y-accl      z-accl      x-coor      y-coor      z-coor
    22626 -3.09351E-03-4.75025E-02-8.43078E+00-6.22765E-03 1.13435E-02-3.15310E+00-1.14542E-02 3.09225E-02-3.13504E-02 4.79611E+01-2.20773E+01-1.09228E+00



 n o d a l   p r i n t   o u t   f o r   t i m e  s t e p    5401                              ( at time 2.6997298E+00 )

 nodal point  x-rot      y-rot       z-rot       x-rot vel   y-rot vel   z-rot vel   x-rot acc   y-rot acc   z-rot acc
    22626 -4.24426E-06-2.13163E-06-2.67617E-06-6.43100E-06-4.48215E-05-6.83485E-05 1.85501E-05 1.42015E-05 5.70795E-05



 n o d a l   p r i n t   o u t   f o r   t i m e  s t e p    5601                              ( at time 2.7997198E+00 )

 nodal point  x-disp     y-disp      z-disp      x-vel       y-vel       z-vel      x-accl      y-accl      z-accl      x-coor      y-coor      z-coor
    22626 -3.78188E-03-4.62725E-02-8.74616E+00-7.33616E-03 1.29729E-02-3.15497E+00-1.10862E-02 1.62958E-02-1.87225E-02 4.79604E+01-2.20761E+01-1.40766E+00



 n o d a l   p r i n t   o u t   f o r   t i m e  s t e p    5601                              ( at time 2.7997198E+00 )

 nodal point  x-rot      y-rot       z-rot       x-rot vel   y-rot vel   z-rot vel   x-rot acc   y-rot acc   z-rot acc
    22626 -4.92538E-06-7.13765E-06-1.05546E-05-5.25195E-06-5.62070E-05-9.25797E-05 1.17917E-05-1.13866E-04-2.42337E-04



 n o d a l   p r i n t   o u t   f o r   t i m e  s t e p    5801                              ( at time 2.8997098E+00 )

 nodal point  x-disp     y-disp      z-disp      x-vel       y-vel       z-vel      x-accl      y-accl      z-accl      x-coor      y-coor      z-coor
    22626 -4.50991E-03-4.49440E-02-9.06170E+00-7.29415E-03 1.35747E-02-3.15640E+00 4.20148E-04 6.01822E-03-1.42279E-02 4.79597E+01-2.20747E+01-1.72320E+00



 n o d a l   p r i n t   o u t   f o r   t i m e  s t e p    5801                              ( at time 2.8997098E+00 )

 nodal point  x-rot      y-rot       z-rot       x-rot vel   y-rot vel   z-rot vel   x-rot acc   y-rot acc   z-rot acc
    22626 -5.31509E-06-1.31450E-05-2.03132E-05-4.24959E-06-5.80514E-05-9.71653E-05 1.00246E-05-1.84456E-05-4.58598E-05



 n o d a l   p r i n t   o u t   f o r   t i m e  s t e p    6001                              ( at time 2.9996998E+00 )

 nodal point  x-disp     y-disp      z-disp      x-vel       y-vel       z-vel      x-accl      y-accl      z-accl      x-coor      y-coor      z-coor
    22626 -5.27618E-03-4.34785E-02-9.37741E+00-8.27816E-03 1.59075E-02-3.15864E+00-9.84104E-03 2.33303E-02-2.24159E-02 4.79589E+01-2.20733E+01-2.03891E+00



 n o d a l   p r i n t   o u t   f o r   t i m e  s t e p    6001                              ( at time 2.9996998E+00 )

 nodal point  x-rot      y-rot       z-rot       x-rot vel   y-rot vel   z-rot vel   x-rot acc   y-rot acc   z-rot acc
    22626 -5.75249E-06-1.88961E-05-2.96905E-05-6.42922E-06-5.68690E-05-9.39896E-05-2.17985E-05 1.18249E-05 3.17596E-05



 n o d a l   p r i n t   o u t   f o r   t i m e  s t e p    6201                              ( at time 3.0996898E+00 )

 nodal point  x-disp     y-disp      z-disp      x-vel       y-vel       z-vel      x-accl      y-accl      z-accl      x-coor      y-coor      z-coor
    22626 -6.17899E-03-4.17927E-02-9.69336E+00-9.66390E-03 1.74245E-02-3.16053E+00-1.38588E-02 1.51722E-02-1.89514E-02 4.79580E+01-2.20716E+01-2.35486E+00



 n o d a l   p r i n t   o u t   f o r   t i m e  s t e p    6201                              ( at time 3.0996898E+00 )

 nodal point  x-rot      y-rot       z-rot       x-rot vel   y-rot vel   z-rot vel   x-rot acc   y-rot acc   z-rot acc
    22626 -6.52745E-06-2.46921E-05-3.93449E-05-9.58703E-06-5.86243E-05-9.96975E-05-3.15812E-05-1.75545E-05-5.70847E-05



 n o d a l   p r i n t   o u t   f o r   t i m e  s t e p    6401                              ( at time 3.1996798E+00 )

 nodal point  x-disp     y-disp      z-disp      x-vel       y-vel       z-vel      x-accl      y-accl      z-accl      x-coor      y-coor      z-coor
    22626 -7.15520E-03-4.00894E-02-1.00094E+01-9.82583E-03 1.63160E-02-3.16094E+00-1.61948E-03-1.10867E-02-4.02013E-03 4.79570E+01-2.20699E+01-2.67091E+00



 n o d a l   p r i n t   o u t   f o r   t i m e  s t e p    6401                              ( at time 3.1996798E+00 )

 nodal point  x-rot      y-rot       z-rot       x-rot vel   y-rot vel   z-rot vel   x-rot acc   y-rot acc   z-rot acc
    22626 -7.44529E-06-3.07613E-05-4.93366E-05-9.25858E-06-6.02915E-05-1.02045E-04 3.28481E-06-1.66743E-05-2.34759E-05



 n o d a l   p r i n t   o u t   f o r   t i m e  s t e p    6601                              ( at time 3.2996698E+00 )

 nodal point  x-disp     y-disp      z-disp      x-vel       y-vel       z-vel      x-accl      y-accl      z-accl      x-coor      y-coor      z-coor
    22626 -8.14360E-03-3.85552E-02-1.03255E+01-9.94900E-03 1.43304E-02-3.16064E+00-1.23185E-03-1.98575E-02 2.96146E-03 4.79560E+01-2.20683E+01-2.98695E+00



 n o d a l   p r i n t   o u t   f o r   t i m e  s t e p    6601                              ( at time 3.2996698E+00 )

 nodal point  x-rot      y-rot       z-rot       x-rot vel   y-rot vel   z-rot vel   x-rot acc   y-rot acc   z-rot acc
    22626 -8.39753E-06-3.67788E-05-5.97551E-05-9.15552E-06-5.90924E-05-1.04145E-04 1.03073E-06 1.19922E-05-2.09987E-05



 n o d a l   p r i n t   o u t   f o r   t i m e  s t e p    6801                              ( at time 3.3996598E+00 )

 nodal point  x-disp     y-disp      z-disp      x-vel       y-vel       z-vel      x-accl      y-accl      z-accl      x-coor      y-coor      z-coor
    22626 -9.15715E-03-3.72010E-02-1.06415E+01-1.03172E-02 1.27510E-02-3.16070E+00-3.68277E-03-1.57954E-02-5.93721E-04 4.79550E+01-2.20670E+01-3.30299E+00



 n o d a l   p r i n t   o u t   f o r   t i m e  s t e p    6801                              ( at time 3.3996598E+00 )

 nodal point  x-rot      y-rot       z-rot       x-rot vel   y-rot vel   z-rot vel   x-rot acc   y-rot acc   z-rot acc
    22626 -9.13380E-06-4.27626E-05-7.02558E-05-9.77704E-06-5.76846E-05-1.02586E-04-6.21585E-06 1.40799E-05 1.55849E-05



 n o d a l   p r i n t   o u t   f o r   t i m e  s t e p    7001                              ( at time 3.4996498E+00 )

 nodal point  x-disp     y-disp      z-disp      x-vel       y-vel       z-vel      x-accl      y-accl      z-accl      x-coor      y-coor      z-coor
    22626 -1.02104E-02-3.59861E-02-1.09576E+01-1.08121E-02 1.13952E-02-3.16104E+00-4.94870E-03-1.35593E-02-3.37635E-03 4.79540E+01-2.20658E+01-3.61905E+00



 n o d a l   p r i n t   o u t   f o r   t i m e  s t e p    7001                              ( at time 3.4996498E+00 )

 nodal point  x-rot      y-rot       z-rot       x-rot vel   y-rot vel   z-rot vel   x-rot acc   y-rot acc   z-rot acc
    22626 -9.95394E-06-4.84484E-05-8.00983E-05-7.96474E-06-5.64948E-05-9.61223E-05 1.81249E-05 1.18994E-05 6.46451E-05



 n o d a l   p r i n t   o u t   f o r   t i m e  s t e p    7201                              ( at time 3.5996397E+00 )

 nodal point  x-disp     y-disp      z-disp      x-vel       y-vel       z-vel      x-accl      y-accl      z-accl      x-coor      y-coor      z-coor
    22626 -1.13027E-02-3.49426E-02-1.12736E+01-1.07362E-02 9.17625E-03-3.16087E+00 7.58695E-04-2.21921E-02 1.63572E-03 4.79529E+01-2.20647E+01-3.93512E+00



 n o d a l   p r i n t   o u t   f o r   t i m e  s t e p    7201                              ( at time 3.5996397E+00 )

 nodal point  x-rot      y-rot       z-rot       x-rot vel   y-rot vel   z-rot vel   x-rot acc   y-rot acc   z-rot acc
    22626 -1.07210E-05-5.39879E-05-8.96331E-05-4.76822E-06-5.22617E-05-8.91127E-05 3.19684E-05 4.23351E-05 7.01028E-05



 n o d a l   p r i n t   o u t   f o r   t i m e  s t e p    7401                              ( at time 3.6996297E+00 )

 nodal point  x-disp     y-disp      z-disp      x-vel       y-vel       z-vel      x-accl      y-accl      z-accl      x-coor      y-coor      z-coor
    22626 -1.23575E-02-3.41691E-02-1.15896E+01-1.03407E-02 6.23507E-03-3.16012E+00 3.95576E-03-2.94148E-02 7.56577E-03 4.79518E+01-2.20640E+01-4.25114E+00



 n o d a l   p r i n t   o u t   f o r   t i m e  s t e p    7401                              ( at time 3.6996297E+00 )

 nodal point  x-rot      y-rot       z-rot       x-rot vel   y-rot vel   z-rot vel   x-rot acc   y-rot acc   z-rot acc
    22626 -1.11477E-05-5.91040E-05-9.87137E-05-4.09318E-06-5.02367E-05-8.98811E-05 6.75105E-06 2.02515E-05-7.68402E-06



 n o d a l   p r i n t   o u t   f o r   t i m e  s t e p    7601                              ( at time 3.7996197E+00 )

 nodal point  x-disp     y-disp      z-disp      x-vel       y-vel       z-vel      x-accl      y-accl      z-accl      x-coor      y-coor      z-coor
    22626 -1.33616E-02-3.36728E-02-1.19056E+01-9.80578E-03 3.79787E-03-3.15961E+00 5.34943E-03-2.43744E-02 5.04783E-03 4.79508E+01-2.20635E+01-4.56709E+00



 n o d a l   p r i n t   o u t   f o r   t i m e  s t e p    7601                              ( at time 3.7996197E+00 )

 nodal point  x-rot      y-rot       z-rot       x-rot vel   y-rot vel   z-rot vel   x-rot acc   y-rot acc   z-rot acc
    22626 -1.14739E-05-6.39516E-05-1.07238E-04-2.40088E-06-4.21889E-05-7.42215E-05 1.69247E-05 8.04862E-05 1.56612E-04



 n o d a l   p r i n t   o u t   f o r   t i m e  s t e p    7801                              ( at time 3.8996097E+00 )

 nodal point  x-disp     y-disp      z-disp      x-vel       y-vel       z-vel      x-accl      y-accl      z-accl      x-coor      y-coor      z-coor
    22626 -1.43182E-02-3.33575E-02-1.22215E+01-9.21352E-03 2.76291E-03-3.15994E+00 5.92310E-03-1.03507E-02-3.28573E-03 4.79499E+01-2.20631E+01-4.88304E+00



 n o d a l   p r i n t   o u t   f o r   t i m e  s t e p    7801                              ( at time 3.8996097E+00 )

 nodal point  x-rot      y-rot       z-rot       x-rot vel   y-rot vel   z-rot vel   x-rot acc   y-rot acc   z-rot acc
    22626 -1.18486E-05-6.76569E-05-1.13814E-04-6.94384E-06-2.96153E-05-5.37202E-05-4.54340E-05 1.25749E-04 2.05033E-04



 n o d a l   p r i n t   o u t   f o r   t i m e  s t e p    8001                              ( at time 3.9995997E+00 )

 nodal point  x-disp     y-disp      z-disp      x-vel       y-vel       z-vel      x-accl      y-accl      z-accl      x-coor      y-coor      z-coor
    22626 -1.52113E-02-3.31123E-02-1.25375E+01-8.59748E-03 2.00144E-03-3.16051E+00 6.16102E-03-7.61541E-03-5.70832E-03 4.79490E+01-2.20629E+01-5.19903E+00



 n o d a l   p r i n t   o u t   f o r   t i m e  s t e p    8001                              ( at time 3.9995997E+00 )

 nodal point  x-rot      y-rot       z-rot       x-rot vel   y-rot vel   z-rot vel   x-rot acc   y-rot acc   z-rot acc
    22626 -1.23853E-05-7.02848E-05-1.18592E-04-6.42420E-06-2.28799E-05-4.18153E-05 5.19683E-06 6.73607E-05 1.19061E-04



 n o d a l   p r i n t   o u t   f o r   t i m e  s t e p    8201                              ( at time 4.0995897E+00 )

 nodal point  x-disp     y-disp      z-disp      x-vel       y-vel       z-vel      x-accl      y-accl      z-accl      x-coor      y-coor      z-coor
    22626 -1.59934E-02-3.30147E-02-1.28535E+01-6.97992E-03-2.40051E-04-3.16011E+00 1.61772E-02-2.24172E-02 3.96529E-03 4.79482E+01-2.20628E+01-5.51504E+00



 n o d a l   p r i n t   o u t   f o r   t i m e  s t e p    8201                              ( at time 4.0995897E+00 )

 nodal point  x-rot      y-rot       z-rot       x-rot vel   y-rot vel   z-rot vel   x-rot acc   y-rot acc   z-rot acc
    22626 -1.30338E-05-7.20665E-05-1.21839E-04-7.23166E-06-8.30326E-06-1.82459E-05-8.07531E-06 1.45781E-04 2.35717E-04



 n o d a l   p r i n t   o u t   f o r   t i m e  s t e p    8401                              ( at time 4.1995797E+00 )

 nodal point  x-disp     y-disp      z-disp      x-vel       y-vel       z-vel      x-accl      y-accl      z-accl      x-coor      y-coor      z-coor
    22626 -1.66200E-02-3.31392E-02-1.31695E+01-5.44356E-03-2.14431E-03-3.15979E+00 1.53652E-02-1.90445E-02 3.28097E-03 4.79476E+01-2.20629E+01-5.83100E+00



 n o d a l   p r i n t   o u t   f o r   t i m e  s t e p    8401                              ( at time 4.1995797E+00 )

 nodal point  x-rot      y-rot       z-rot       x-rot vel   y-rot vel   z-rot vel   x-rot acc   y-rot acc   z-rot acc
    22626 -1.37183E-05-7.22761E-05-1.22383E-04-6.52566E-06 5.43946E-06 8.87256E-06 7.06069E-06 1.37441E-04 2.71212E-04



 n o d a l   p r i n t   o u t   f o r   t i m e  s t e p    8601                              ( at time 4.2995697E+00 )

 nodal point  x-disp     y-disp      z-disp      x-vel       y-vel       z-vel      x-accl      y-accl      z-accl      x-coor      y-coor      z-coor
    22626 -1.71040E-02-3.34288E-02-1.34855E+01-4.11391E-03-3.38945E-03-3.16010E+00 1.32979E-02-1.24528E-02-3.12598E-03 4.79471E+01-2.20632E+01-6.14695E+00



 n o d a l   p r i n t   o u t   f o r   t i m e  s t e p    8601                              ( at time 4.2995697E+00 )

 nodal point  x-rot      y-rot       z-rot       x-rot vel   y-rot vel   z-rot vel   x-rot acc   y-rot acc   z-rot acc
    22626 -1.42797E-05-7.10250E-05-1.20500E-04-4.88243E-06 1.76655E-05 3.00943E-05 1.64340E-05 1.22273E-04 2.12238E-04



 n o d a l   p r i n t   o u t   f o r   t i m e  s t e p    8801                              ( at time 4.3995597E+00 )

 nodal point  x-disp     y-disp      z-disp      x-vel       y-vel       z-vel      x-accl      y-accl      z-accl      x-coor      y-coor      z-coor
    22626 -1.74362E-02-3.37934E-02-1.38015E+01-2.61508E-03-4.02405E-03-3.16082E+00 1.49898E-02-6.34662E-03-7.23197E-03 4.79467E+01-2.20636E+01-6.46296E+00



 n o d a l   p r i n t   o u t   f o r   t i m e  s t e p    8801                              ( at time 4.3995597E+00 )

 nodal point  x-rot      y-rot       z-rot       x-rot vel   y-rot vel   z-rot vel   x-rot acc   y-rot acc   z-rot acc
    22626 -1.48430E-05-6.83354E-05-1.15808E-04-5.52284E-06 3.49652E-05 6.09692E-05-6.40475E-06 1.73014E-04 3.08781E-04



 n o d a l   p r i n t   o u t   f o r   t i m e  s t e p    9001                              ( at time 4.4995497E+00 )

 nodal point  x-disp     y-disp      z-disp      x-vel       y-vel       z-vel      x-accl      y-accl      z-accl      x-coor      y-coor      z-coor
    22626 -1.76236E-02-3.42793E-02-1.41175E+01-1.05773E-03-5.89643E-03-3.16059E+00 1.55749E-02-1.87256E-02 2.27235E-03 4.79466E+01-2.20641E+01-6.77901E+00



 n o d a l   p r i n t   o u t   f o r   t i m e  s t e p    9001                              ( at time 4.4995497E+00 )

 nodal point  x-rot      y-rot       z-rot       x-rot vel   y-rot vel   z-rot vel   x-rot acc   y-rot acc   z-rot acc
    22626 -1.52573E-05-6.39208E-05-1.07912E-04-3.45877E-07 4.94241E-05 9.08895E-05 5.17746E-05 1.44604E-04 2.99232E-04



 n o d a l   p r i n t   o u t   f o r   t i m e  s t e p    9201                              ( at time 4.5995397E+00 )

 nodal point  x-disp     y-disp      z-disp      x-vel       y-vel       z-vel      x-accl      y-accl      z-accl      x-coor      y-coor      z-coor
    22626 -1.76331E-02-3.49908E-02-1.44335E+01 7.91975E-04-8.18176E-03-3.16030E+00 1.84990E-02-2.28556E-02 2.98292E-03 4.79465E+01-2.20648E+01-7.09502E+00



 n o d a l   p r i n t   o u t   f o r   t i m e  s t e p    9201                              ( at time 4.5995397E+00 )

 nodal point  x-rot      y-rot       z-rot       x-rot vel   y-rot vel   z-rot vel   x-rot acc   y-rot acc   z-rot acc
    22626 -1.53630E-05-5.83127E-05-9.75784E-05-6.37847E-07 6.11817E-05 1.12459E-04-2.92000E-06 1.17588E-04 2.15719E-04



 n o d a l   p r i n t   o u t   f o r   t i m e  s t e p    9401                              ( at time 4.6995297E+00 )

 nodal point  x-disp     y-disp      z-disp      x-vel       y-vel       z-vel      x-accl      y-accl      z-accl      x-coor      y-coor      z-coor
    22626 -1.74536E-02-3.58737E-02-1.47495E+01 2.63963E-03-9.39428E-03-3.16047E+00 1.84784E-02-1.21263E-02-1.74778E-03 4.79467E+01-2.20657E+01-7.41102E+00



 n o d a l   p r i n t   o u t   f o r   t i m e  s t e p    9401                              ( at time 4.6995297E+00 )

 nodal point  x-rot      y-rot       z-rot       x-rot vel   y-rot vel   z-rot vel   x-rot acc   y-rot acc   z-rot acc
    22626 -1.55369E-05-5.11934E-05-8.44974E-05-2.17672E-06 8.16324E-05 1.47993E-04-1.53903E-05 2.04527E-04 3.55370E-04



 n o d a l   p r i n t   o u t   f o r   t i m e  s t e p    9601                              ( at time 4.7995197E+00 )

 nodal point  x-disp     y-disp      z-disp      x-vel       y-vel       z-vel      x-accl      y-accl      z-accl      x-coor      y-coor      z-coor
    22626 -1.71077E-02-3.68468E-02-1.50656E+01 4.17056E-03-9.93568E-03-3.16105E+00 1.53108E-02-5.41459E-03-5.76554E-03 4.79471E+01-2.20666E+01-7.72706E+00



 n o d a l   p r i n t   o u t   f o r   t i m e  s t e p    9601                              ( at time 4.7995197E+00 )

 nodal point  x-rot      y-rot       z-rot       x-rot vel   y-rot vel   z-rot vel   x-rot acc   y-rot acc   z-rot acc
    22626 -1.56648E-05-4.20793E-05-6.80222E-05-4.44701E-06 9.81550E-05 1.80798E-04-2.27052E-05 1.65243E-04 3.28081E-04



 n o d a l   p r i n t   o u t   f o r   t i m e  s t e p    9801                              ( at time 4.8995097E+00 )

 nodal point  x-disp     y-disp      z-disp      x-vel       y-vel       z-vel      x-accl      y-accl      z-accl      x-coor      y-coor      z-coor
    22626 -1.66112E-02-3.78775E-02-1.53817E+01 5.73691E-03-1.08227E-02-3.16147E+00 1.56651E-02-8.87147E-03-4.18467E-03 4.79476E+01-2.20677E+01-8.04316E+00



 n o d a l   p r i n t   o u t   f o r   t i m e  s t e p    9801                              ( at time 4.8995097E+00 )

 nodal point  x-rot      y-rot       z-rot       x-rot vel   y-rot vel   z-rot vel   x-rot acc   y-rot acc   z-rot acc
    22626 -1.60146E-05-3.16831E-05-4.87039E-05-5.58910E-06 1.08066E-04 2.02086E-04-1.14221E-05 9.91223E-05 2.12909E-04



 n o d a l   p r i n t   o u t   f o r   t i m e  s t e p   10001                              ( at time 4.9994997E+00 )

 nodal point  x-disp     y-disp      z-disp      x-vel       y-vel       z-vel      x-accl      y-accl      z-accl      x-coor      y-coor      z-coor
    22626 -1.59375E-02-3.90419E-02-1.56978E+01 7.65234E-03-1.24122E-02-3.16146E+00 1.91562E-02-1.58961E-02 6.91480E-05 4.79482E+01-2.20688E+01-8.35928E+00



 n o d a l   p r i n t   o u t   f o r   t i m e  s t e p   10001                              ( at time 4.9994997E+00 )

 nodal point  x-rot      y-rot       z-rot       x-rot vel   y-rot vel   z-rot vel   x-rot acc   y-rot acc   z-rot acc
    22626 -1.64718E-05-2.00866E-05-2.71537E-05-3.29603E-06 1.23067E-04 2.27053E-04 2.29329E-05 1.50021E-04 2.49694E-04



 n o d a l   p r i n t   o u t   f o r   t i m e  s t e p   10202                              ( at time 5.0999896E+00 )

 nodal point  x-disp     y-disp      z-disp      x-vel       y-vel       z-vel      x-accl      y-accl      z-accl      x-coor      y-coor      z-coor
    22626 -1.50814E-02-4.03329E-02-1.60155E+01 9.32826E-03-1.30738E-02-3.16194E+00 1.66776E-02-6.58407E-03-4.78073E-03 4.79491E+01-2.20701E+01-8.67699E+00



 n o d a l   p r i n t   o u t   f o r   t i m e  s t e p   10202                              ( at time 5.0999896E+00 )

 nodal point  x-rot      y-rot       z-rot       x-rot vel   y-rot vel   z-rot vel   x-rot acc   y-rot acc   z-rot acc
    22626 -1.67217E-05-6.76539E-06-2.88924E-06-2.68958E-06 1.37208E-04 2.53740E-04 6.03490E-06 1.40720E-04 2.65568E-04



 n o d a l   p r i n t   o u t   f o r   t i m e  s t e p   10402                              ( at time 5.1999796E+00 )

 nodal point  x-disp     y-disp      z-disp      x-vel       y-vel       z-vel      x-accl      y-accl      z-accl      x-coor      y-coor      z-coor
    22626 -1.40829E-02-4.16203E-02-1.63317E+01 1.05157E-02-1.25004E-02-3.16334E+00 1.18760E-02 5.73434E-03-1.40394E-02 4.79501E+01-2.20714E+01-8.99322E+00



 n o d a l   p r i n t   o u t   f o r   t i m e  s t e p   10402                              ( at time 5.1999796E+00 )

 nodal point  x-rot      y-rot       z-rot       x-rot vel   y-rot vel   z-rot vel   x-rot acc   y-rot acc   z-rot acc
    22626 -1.70468E-05 7.46477E-06 2.35246E-05-3.90428E-06 1.45024E-04 2.71979E-04-1.21481E-05 7.81697E-05 1.82405E-04



 n o d a l   p r i n t   o u t   f o r   t i m e  s t e p   10602                              ( at time 5.2999696E+00 )

 nodal point  x-disp     y-disp      z-disp      x-vel       y-vel       z-vel      x-accl      y-accl      z-accl      x-coor      y-coor      z-coor
    22626 -1.29916E-02-4.28268E-02-1.66481E+01 1.12768E-02-1.17877E-02-3.16484E+00 7.61121E-03 7.12835E-03-1.49623E-02 4.79512E+01-2.20726E+01-9.30960E+00



 n o d a l   p r i n t   o u t   f o r   t i m e  s t e p   10602                              ( at time 5.2999696E+00 )

 nodal point  x-rot      y-rot       z-rot       x-rot vel   y-rot vel   z-rot vel   x-rot acc   y-rot acc   z-rot acc
    22626 -1.73089E-05 2.26143E-05 5.13952E-05-1.77894E-06 1.54944E-04 2.83582E-04 2.12555E-05 9.92052E-05 1.16046E-04



 n o d a l   p r i n t   o u t   f o r   t i m e  s t e p   10802                              ( at time 5.3999596E+00 )

 nodal point  x-disp     y-disp      z-disp      x-vel       y-vel       z-vel      x-accl      y-accl      z-accl      x-coor      y-coor      z-coor
    22626 -1.18216E-02-4.39638E-02-1.69646E+01 1.21843E-02-1.09757E-02-3.16623E+00 9.07556E-03 8.12050E-03-1.39394E-02 4.79524E+01-2.20738E+01-9.62611E+00



 n o d a l   p r i n t   o u t   f o r   t i m e  s t e p   10802                              ( at time 5.3999596E+00 )

 nodal point  x-rot      y-rot       z-rot       x-rot vel   y-rot vel   z-rot vel   x-rot acc   y-rot acc   z-rot acc
    22626 -1.73349E-05 3.83574E-05 8.05211E-05 1.51848E-06 1.58445E-04 2.91678E-04 3.29775E-05 3.50178E-05 8.09672E-05



 n o d a l   p r i n t   o u t   f o r   t i m e  s t e p   11002                              ( at time 5.4999496E+00 )

 nodal point  x-disp     y-disp      z-disp      x-vel       y-vel       z-vel      x-accl      y-accl      z-accl      x-coor      y-coor      z-coor
    22626 -1.05386E-02-4.50067E-02-1.72813E+01 1.33588E-02-9.68440E-03-3.16802E+00 1.17470E-02 1.29145E-02-1.78665E-02 4.79536E+01-2.20748E+01-9.94280E+00



 n o d a l   p r i n t   o u t   f o r   t i m e  s t e p   11002                              ( at time 5.4999496E+00 )

 nodal point  x-rot      y-rot       z-rot       x-rot vel   y-rot vel   z-rot vel   x-rot acc   y-rot acc   z-rot acc
    22626 -1.71790E-05 5.44888E-05 1.10274E-04 2.84390E-06 1.63708E-04 2.98267E-04 1.32555E-05 5.26373E-05 6.58913E-05



 n o d a l   p r i n t   o u t   f o r   t i m e  s t e p   11202                              ( at time 5.5999396E+00 )

 nodal point  x-disp     y-disp      z-disp      x-vel       y-vel       z-vel      x-accl      y-accl      z-accl      x-coor      y-coor      z-coor
    22626 -9.17685E-03-4.58823E-02-1.75982E+01 1.38250E-02-7.71208E-03-3.16988E+00 4.66172E-03 1.97252E-02-1.86200E-02 4.79550E+01-2.20757E+01-1.02597E+01



 n o d a l   p r i n t   o u t   f o r   t i m e  s t e p   11202                              ( at time 5.5999396E+00 )

 nodal point  x-rot      y-rot       z-rot       x-rot vel   y-rot vel   z-rot vel   x-rot acc   y-rot acc   z-rot acc
    22626 -1.69560E-05 7.10685E-05 1.40821E-04-5.30884E-07 1.69011E-04 3.09423E-04-3.37513E-05 5.30304E-05 1.11576E-04



 n o d a l   p r i n t   o u t   f o r   t i m e  s t e p   11402                              ( at time 5.6999296E+00 )

 nodal point  x-disp     y-disp      z-disp      x-vel       y-vel       z-vel      x-accl      y-accl      z-accl      x-coor      y-coor      z-coor
    22626 -7.76972E-03-4.65322E-02-1.79153E+01 1.41717E-02-5.26224E-03-3.17260E+00 3.46748E-03 2.45008E-02-2.71704E-02 4.79564E+01-2.20763E+01-1.05768E+01



 n o d a l   p r i n t   o u t   f o r   t i m e  s t e p   11402                              ( at time 5.6999296E+00 )

 nodal point  x-rot      y-rot       z-rot       x-rot vel   y-rot vel   z-rot vel   x-rot acc   y-rot acc   z-rot acc
    22626 -1.67785E-05 8.80320E-05 1.72005E-04 1.13331E-06 1.68804E-04 3.11002E-04 1.66435E-05-2.06672E-06 1.57889E-05



 n o d a l   p r i n t   o u t   f o r   t i m e  s t e p   11602                              ( at time 5.7999195E+00 )

 nodal point  x-disp     y-disp      z-disp      x-vel       y-vel       z-vel      x-accl      y-accl      z-accl      x-coor      y-coor      z-coor
    22626 -6.33670E-03-4.69649E-02-1.82326E+01 1.45782E-02-3.67407E-03-3.17433E+00 4.06557E-03 1.58833E-02-1.72704E-02 4.79578E+01-2.20768E+01-1.08941E+01



 n o d a l   p r i n t   o u t   f o r   t i m e  s t e p   11602                              ( at time 5.7999195E+00 )

 nodal point  x-rot      y-rot       z-rot       x-rot vel   y-rot vel   z-rot vel   x-rot acc   y-rot acc   z-rot acc
    22626 -1.67602E-05 1.05213E-04 2.03211E-04-6.66171E-07 1.70580E-04 3.12588E-04-1.79966E-05 1.77624E-05 1.58667E-05



 n o d a l   p r i n t   o u t   f o r   t i m e  s t e p   11802                              ( at time 5.8999095E+00 )

 nodal point  x-disp     y-disp      z-disp      x-vel       y-vel       z-vel      x-accl      y-accl      z-accl      x-coor      y-coor      z-coor
    22626 -4.85692E-03-4.73088E-02-1.85500E+01 1.50970E-02-3.06743E-03-3.17562E+00 5.18869E-03 6.06702E-03-1.29451E-02 4.79593E+01-2.20771E+01-1.12115E+01



 n o d a l   p r i n t   o u t   f o r   t i m e  s t e p   11802                              ( at time 5.8999095E+00 )

 nodal point  x-rot      y-rot       z-rot       x-rot vel   y-rot vel   z-rot vel   x-rot acc   y-rot acc   z-rot acc
    22626 -1.67138E-05 1.22221E-04 2.34467E-04 1.20317E-06 1.70720E-04 3.12427E-04 1.86953E-05 1.39538E-06-1.61513E-06



 n o d a l   p r i n t   o u t   f o r   t i m e  s t e p   12002                              ( at time 5.9998995E+00 )

 nodal point  x-disp     y-disp      z-disp      x-vel       y-vel       z-vel      x-accl      y-accl      z-accl      x-coor      y-coor      z-coor
    22626 -3.34976E-03-4.75669E-02-1.88676E+01 1.49758E-02-2.01052E-03-3.17731E+00-1.21229E-03 1.05701E-02-1.68698E-02 4.79608E+01-2.20774E+01-1.15291E+01



 n o d a l   p r i n t   o u t   f o r   t i m e  s t e p   12002                              ( at time 5.9998995E+00 )

 nodal point  x-rot      y-rot       z-rot       x-rot vel   y-rot vel   z-rot vel   x-rot acc   y-rot acc   z-rot acc
    22626 -1.65546E-05 1.39238E-04 2.65245E-04 1.64893E-06 1.67787E-04 3.03814E-04 4.45810E-06-2.93284E-05-8.61380E-05



 n o d a l   p r i n t   o u t   f o r   t i m e  s t e p   12202                              ( at time 6.0998895E+00 )

 nodal point  x-disp     y-disp      z-disp      x-vel       y-vel       z-vel      x-accl      y-accl      z-accl      x-coor      y-coor      z-coor
    22626 -1.86904E-03-4.77163E-02-1.91854E+01 1.43834E-02-1.03968E-03-3.17873E+00-5.92425E-03 9.70937E-03-1.42159E-02 4.79623E+01-2.20775E+01-1.18469E+01



 n o d a l   p r i n t   o u t   f o r   t i m e  s t e p   12202                              ( at time 6.0998895E+00 )

 nodal point  x-rot      y-rot       z-rot       x-rot vel   y-rot vel   z-rot vel   x-rot acc   y-rot acc   z-rot acc
    22626 -1.64402E-05 1.55840E-04 2.95169E-04 1.93605E-06 1.64045E-04 2.97194E-04 2.87151E-06-3.74262E-05-6.62059E-05



 n o d a l   p r i n t   o u t   f o r   t i m e  s t e p   12402                              ( at time 6.1998795E+00 )

 nodal point  x-disp     y-disp      z-disp      x-vel       y-vel       z-vel      x-accl      y-accl      z-accl      x-coor      y-coor      z-coor
    22626 -4.47398E-04-4.77856E-02-1.95033E+01 1.41878E-02-2.62677E-04-3.18025E+00-1.95610E-03 7.77083E-03-1.52317E-02 4.79637E+01-2.20776E+01-1.21648E+01



 n o d a l   p r i n t   o u t   f o r   t i m e  s t e p   12402                              ( at time 6.1998795E+00 )

 nodal point  x-rot      y-rot       z-rot       x-rot vel   y-rot vel   z-rot vel   x-rot acc   y-rot acc   z-rot acc
    22626 -1.62761E-05 1.71687E-04 3.24215E-04 2.63360E-06 1.56746E-04 2.81935E-04 6.97617E-06-7.29976E-05-1.52609E-04



 n o d a l   p r i n t   o u t   f o r   t i m e  s t e p   12602                              ( at time 6.2998695E+00 )

 nodal point  x-disp     y-disp      z-disp      x-vel       y-vel       z-vel      x-accl      y-accl      z-accl      x-coor      y-coor      z-coor
    22626  9.43408E-04-4.78104E-02-1.98214E+01 1.36965E-02-1.96884E-04-3.18138E+00-4.91419E-03 6.57988E-04-1.13093E-02 4.79651E+01-2.20776E+01-1.24829E+01



 n o d a l   p r i n t   o u t   f o r   t i m e  s t e p   12602                              ( at time 6.2998695E+00 )

 nodal point  x-rot      y-rot       z-rot       x-rot vel   y-rot vel   z-rot vel   x-rot acc   y-rot acc   z-rot acc
    22626 -1.60813E-05 1.86855E-04 3.51643E-04 3.73117E-06 1.44621E-04 2.67210E-04 1.09768E-05-1.21259E-04-1.47261E-04



 n o d a l   p r i n t   o u t   f o r   t i m e  s t e p   12802                              ( at time 6.3998595E+00 )

 nodal point  x-disp     y-disp      z-disp      x-vel       y-vel       z-vel      x-accl      y-accl      z-accl      x-coor      y-coor      z-coor
    22626  2.30428E-03-4.77972E-02-2.01396E+01 1.33355E-02 4.34232E-04-3.18274E+00-3.61020E-03 6.31180E-03-1.35745E-02 4.79665E+01-2.20776E+01-1.28011E+01



 n o d a l   p r i n t   o u t   f o r   t i m e  s t e p   12802                              ( at time 6.3998595E+00 )

 nodal point  x-rot      y-rot       z-rot       x-rot vel   y-rot vel   z-rot vel   x-rot acc   y-rot acc   z-rot acc
    22626 -1.57936E-05 2.01034E-04 3.77440E-04 2.89601E-06 1.39760E-04 2.52754E-04-8.35251E-06-4.86149E-05-1.44570E-04



 n o d a l   p r i n t   o u t   f o r   t i m e  s t e p   13002                              ( at time 6.4998495E+00 )

 nodal point  x-disp     y-disp      z-disp      x-vel       y-vel       z-vel      x-accl      y-accl      z-accl      x-coor      y-coor      z-coor
    22626  3.60853E-03-4.76760E-02-2.04579E+01 1.28128E-02 2.07388E-03-3.18465E+00-5.22768E-03 1.63982E-02-1.91231E-02 4.79678E+01-2.20775E+01-1.31194E+01



 n o d a l   p r i n t   o u t   f o r   t i m e  s t e p   13002                              ( at time 6.4998495E+00 )

 nodal point  x-rot      y-rot       z-rot       x-rot vel   y-rot vel   z-rot vel   x-rot acc   y-rot acc   z-rot acc
    22626 -1.55669E-05 2.14552E-04 4.01932E-04 1.06394E-06 1.33105E-04 2.37517E-04-1.83225E-05-6.65577E-05-1.52385E-04



 n o d a l   p r i n t   o u t   f o r   t i m e  s t e p   13202                              ( at time 6.5998395E+00 )

 nodal point  x-disp     y-disp      z-disp      x-vel       y-vel       z-vel      x-accl      y-accl      z-accl      x-coor      y-coor      z-coor
    22626  4.84056E-03-4.74058E-02-2.07764E+01 1.21353E-02 3.05729E-03-3.18616E+00-6.77540E-03 9.83501E-03-1.51100E-02 4.79690E+01-2.20772E+01-1.34379E+01



 n o d a l   p r i n t   o u t   f o r   t i m e  s t e p   13202                              ( at time 6.5998395E+00 )

 nodal point  x-rot      y-rot       z-rot       x-rot vel   y-rot vel   z-rot vel   x-rot acc   y-rot acc   z-rot acc
    22626 -1.56642E-05 2.27330E-04 4.24932E-04-8.16111E-06 1.22694E-04 2.27111E-04-9.22594E-05-1.04125E-04-1.04072E-04



 n o d a l   p r i n t   o u t   f o r   t i m e  s t e p   13402                              ( at time 6.6998295E+00 )

 nodal point  x-disp     y-disp      z-disp      x-vel       y-vel       z-vel      x-accl      y-accl      z-accl      x-coor      y-coor      z-coor
    22626  5.99819E-03-4.70468E-02-2.10949E+01 1.12074E-02 4.53575E-03-3.18436E+00-9.27994E-03 1.47861E-02 1.80620E-02 4.79702E+01-2.20768E+01-1.37564E+01



 n o d a l   p r i n t   o u t   f o r   t i m e  s t e p   13402                              ( at time 6.6998295E+00 )

 nodal point  x-rot      y-rot       z-rot       x-rot vel   y-rot vel   z-rot vel   x-rot acc   y-rot acc   z-rot acc
    22626 -1.57907E-05 2.39504E-04 4.46134E-04 1.76131E-05 1.27350E-04 2.01699E-04 2.57768E-04 4.65701E-05-2.54152E-04



 n o d a l   p r i n t   o u t   f o r   t i m e  s t e p   13602                              ( at time 6.7998195E+00 )

 nodal point  x-disp     y-disp      z-disp      x-vel       y-vel       z-vel      x-accl      y-accl      z-accl      x-coor      y-coor      z-coor
    22626  7.04970E-03-4.64536E-02-2.14132E+01 9.99502E-03 7.30243E-03-3.18047E+00-1.21250E-02 2.76696E-02 3.88256E-02 4.79712E+01-2.20762E+01-1.40747E+01



 n o d a l   p r i n t   o u t   f o r   t i m e  s t e p   13602                              ( at time 6.7998195E+00 )

 nodal point  x-rot      y-rot       z-rot       x-rot vel   y-rot vel   z-rot vel   x-rot acc   y-rot acc   z-rot acc
    22626 -1.02243E-05 2.53348E-04 4.64656E-04 8.82867E-05 1.53476E-04 1.73205E-04 7.06808E-04 2.61287E-04-2.84967E-04



 n o d a l   p r i n t   o u t   f o r   t i m e  s t e p   13802                              ( at time 6.8998095E+00 )

 nodal point  x-disp     y-disp      z-disp      x-vel       y-vel       z-vel      x-accl      y-accl      z-accl      x-coor      y-coor      z-coor
    22626  8.01658E-03-4.56304E-02-2.17309E+01 9.24569E-03 8.98688E-03-3.17346E+00-7.49399E-03 1.68462E-02 7.01117E-02 4.79722E+01-2.20754E+01-1.43924E+01



 n o d a l   p r i n t   o u t   f o r   t i m e  s t e p   13802                              ( at time 6.8998095E+00 )

 nodal point  x-rot      y-rot       z-rot       x-rot vel   y-rot vel   z-rot vel   x-rot acc   y-rot acc   z-rot acc
    22626  1.21388E-06 2.70308E-04 4.80447E-04 1.43686E-04 1.86214E-04 1.43027E-04 5.54044E-04 3.27414E-04-3.01811E-04



 n o d a l   p r i n t   o u t   f o r   t i m e  s t e p   14002                              ( at time 6.9997995E+00 )

 nodal point  x-disp     y-disp      z-disp      x-vel       y-vel       z-vel      x-accl      y-accl      z-accl      x-coor      y-coor      z-coor
    22626  8.86950E-03-4.46079E-02-2.20477E+01 7.82228E-03 1.16483E-02-3.16405E+00-1.42356E-02 2.66170E-02 9.41276E-02 4.79730E+01-2.20744E+01-1.47092E+01



 n o d a l   p r i n t   o u t   f o r   t i m e  s t e p   14002                              ( at time 6.9997995E+00 )

 nodal point  x-rot      y-rot       z-rot       x-rot vel   y-rot vel   z-rot vel   x-rot acc   y-rot acc   z-rot acc
    22626  1.94706E-05 2.90921E-04 4.93416E-04 2.24368E-04 2.35031E-04 1.15046E-04 8.06905E-04 4.88213E-04-2.79837E-04



 n o d a l   p r i n t   o u t   f o r   t i m e  s t e p   14202                              ( at time 7.0997895E+00 )

 nodal point  x-disp     y-disp      z-disp      x-vel       y-vel       z-vel      x-accl      y-accl      z-accl      x-coor      y-coor      z-coor
    22626  9.59277E-03-4.33351E-02-2.23635E+01 6.66465E-03 1.35983E-02-3.15052E+00-1.15774E-02 1.95021E-02 1.35289E-01 4.79738E+01-2.20731E+01-1.50250E+01



 n o d a l   p r i n t   o u t   f o r   t i m e  s t e p   14202                              ( at time 7.0997895E+00 )

 nodal point  x-rot      y-rot       z-rot       x-rot vel   y-rot vel   z-rot vel   x-rot acc   y-rot acc   z-rot acc
    22626  4.61318E-05 3.17924E-04 5.03165E-04 3.18866E-04 3.13058E-04 8.40378E-05 9.45075E-04 7.80347E-04-3.10111E-04



 n o d a l   p r i n t   o u t   f o r   t i m e  s t e p   14402                              ( at time 7.1997794E+00 )

 nodal point  x-disp     y-disp      z-disp      x-vel       y-vel       z-vel      x-accl      y-accl      z-accl      x-coor      y-coor      z-coor
    22626  1.01635E-02-4.18570E-02-2.26776E+01 4.60659E-03 1.55636E-02-3.13313E+00-2.05827E-02 1.96548E-02 1.73973E-01 4.79743E+01-2.20716E+01-1.53391E+01



 n o d a l   p r i n t   o u t   f o r   t i m e  s t e p   14402                              ( at time 7.1997794E+00 )

 nodal point  x-rot      y-rot       z-rot       x-rot vel   y-rot vel   z-rot vel   x-rot acc   y-rot acc   z-rot acc
    22626  8.38465E-05 3.55068E-04 5.10220E-04 4.34147E-04 4.28649E-04 6.43392E-05 1.15293E-03 1.15603E-03-1.97006E-04



 n o d a l   p r i n t   o u t   f o r   t i m e  s t e p   14602                              ( at time 7.2997694E+00 )

 nodal point  x-disp     y-disp      z-disp      x-vel       y-vel       z-vel      x-accl      y-accl      z-accl      x-coor      y-coor      z-coor
    22626  1.05147E-02-4.02456E-02-2.29899E+01 2.13739E-03 1.65571E-02-3.11171E+00-2.46945E-02 9.93609E-03 2.14253E-01 4.79747E+01-2.20700E+01-1.56514E+01



 n o d a l   p r i n t   o u t   f o r   t i m e  s t e p   14602                              ( at time 7.2997694E+00 )

 nodal point  x-rot      y-rot       z-rot       x-rot vel   y-rot vel   z-rot vel   x-rot acc   y-rot acc   z-rot acc
    22626  1.33260E-04 4.05405E-04 5.15604E-04 5.56837E-04 5.85539E-04 4.19766E-05 1.22702E-03 1.56906E-03-2.23649E-04



 n o d a l   p r i n t   o u t   f o r   t i m e  s t e p   14802                              ( at time 7.3997594E+00 )

 nodal point  x-disp     y-disp      z-disp      x-vel       y-vel       z-vel      x-accl      y-accl      z-accl      x-coor      y-coor      z-coor
    22626  1.05505E-02-3.85262E-02-2.32998E+01-1.43221E-03 1.80706E-02-3.08658E+00-3.56996E-02 1.51367E-02 2.51321E-01 4.79747E+01-2.20683E+01-1.59613E+01



 n o d a l   p r i n t   o u t   f o r   t i m e  s t e p   14802                              ( at time 7.3997594E+00 )

 nodal point  x-rot      y-rot       z-rot       x-rot vel   y-rot vel   z-rot vel   x-rot acc   y-rot acc   z-rot acc
    22626  1.96083E-04 4.72866E-04 5.18672E-04 6.98447E-04 7.73319E-04 2.67811E-05 1.41624E-03 1.87798E-03-1.51971E-04



 n o d a l   p r i n t   o u t   f o r   t i m e  s t e p   15002                              ( at time 7.4997494E+00 )

 nodal point  x-disp     y-disp      z-disp      x-vel       y-vel       z-vel      x-accl      y-accl      z-accl      x-coor      y-coor      z-coor
    22626  1.02028E-02-3.66257E-02-2.36069E+01-5.17589E-03 1.90536E-02-3.05638E+00-3.74404E-02 9.83111E-03 3.01991E-01 4.79744E+01-2.20664E+01-1.62684E+01



 n o d a l   p r i n t   o u t   f o r   t i m e  s t e p   15002                              ( at time 7.4997494E+00 )

 nodal point  x-rot      y-rot       z-rot       x-rot vel   y-rot vel   z-rot vel   x-rot acc   y-rot acc   z-rot acc
    22626  2.74745E-04 5.60869E-04 5.20547E-04 8.78984E-04 9.92524E-04 2.52224E-05 1.80554E-03 2.19227E-03-1.55878E-05



 n o d a l   p r i n t   o u t   f o r   t i m e  s t e p   15202                              ( at time 7.5997394E+00 )

 nodal point  x-disp     y-disp      z-disp      x-vel       y-vel       z-vel      x-accl      y-accl      z-accl      x-coor      y-coor      z-coor
    22626  9.44157E-03-3.46787E-02-2.39108E+01-1.01429E-02 2.02898E-02-3.02112E+00-4.96753E-02 1.23632E-02 3.52614E-01 4.79736E+01-2.20645E+01-1.65723E+01



 n o d a l   p r i n t   o u t   f o r   t i m e  s t e p   15202                              ( at time 7.5997394E+00 )

 nodal point  x-rot      y-rot       z-rot       x-rot vel   y-rot vel   z-rot vel   x-rot acc   y-rot acc   z-rot acc
    22626  3.72399E-04 6.72673E-04 5.21875E-04 1.07867E-03 1.25992E-03 4.85704E-06 1.99704E-03 2.67421E-03-2.03675E-04



 n o d a l   p r i n t   o u t   f o r   t i m e  s t e p   15402                              ( at time 7.6997294E+00 )

 nodal point  x-disp     y-disp      z-disp      x-vel       y-vel       z-vel      x-accl      y-accl      z-accl      x-coor      y-coor      z-coor
    22626  8.18700E-03-3.26439E-02-2.42110E+01-1.51488E-02 2.00318E-02-2.98337E+00-5.00641E-02-2.58049E-03 3.77564E-01 4.79724E+01-2.20624E+01-1.68725E+01



 n o d a l   p r i n t   o u t   f o r   t i m e  s t e p   15402                              ( at time 7.6997294E+00 )

 nodal point  x-rot      y-rot       z-rot       x-rot vel   y-rot vel   z-rot vel   x-rot acc   y-rot acc   z-rot acc
    22626  4.90724E-04 8.12550E-04 5.22380E-04 1.28503E-03 1.53890E-03 1.16255E-05 2.06384E-03 2.79009E-03 6.76913E-05



 n o d a l   p r i n t   o u t   f o r   t i m e  s t e p   15602                              ( at time 7.7997194E+00 )

 nodal point  x-disp     y-disp      z-disp      x-vel       y-vel       z-vel      x-accl      y-accl      z-accl      x-coor      y-coor      z-coor
    22626  6.47907E-03-3.05911E-02-2.45072E+01-1.88642E-02 2.13977E-02-2.94052E+00-3.71576E-02 1.36603E-02 4.28563E-01 4.79707E+01-2.20604E+01-1.71687E+01



 n o d a l   p r i n t   o u t   f o r   t i m e  s t e p   15602                              ( at time 7.7997194E+00 )

 nodal point  x-rot      y-rot       z-rot       x-rot vel   y-rot vel   z-rot vel   x-rot acc   y-rot acc   z-rot acc
    22626  6.30415E-04 9.80630E-04 5.23634E-04 1.51073E-03 1.82694E-03 1.22835E-05 2.25722E-03 2.88071E-03 6.58044E-06



 n o d a l   p r i n t   o u t   f o r   t i m e  s t e p   15802                              ( at time 7.8997094E+00 )

 nodal point  x-disp     y-disp      z-disp      x-vel       y-vel       z-vel      x-accl      y-accl      z-accl      x-coor      y-coor      z-coor
    22626  4.34779E-03-2.84031E-02-2.47989E+01-2.34162E-02 2.23486E-02-2.89464E+00-4.55242E-02 9.50969E-03 4.58840E-01 4.79685E+01-2.20582E+01-1.74604E+01



 n o d a l   p r i n t   o u t   f o r   t i m e  s t e p   15802                              ( at time 7.8997094E+00 )

 nodal point  x-rot      y-rot       z-rot       x-rot vel   y-rot vel   z-rot vel   x-rot acc   y-rot acc   z-rot acc
    22626  7.94104E-04 1.17982E-03 5.25873E-04 1.76002E-03 2.15614E-03 2.58028E-05 2.49320E-03 3.29236E-03 1.35207E-04



 n o d a l   p r i n t   o u t   f o r   t i m e  s t e p   16002                              ( at time 7.9996994E+00 )

 nodal point  x-disp     y-disp      z-disp      x-vel       y-vel       z-vel      x-accl      y-accl      z-accl      x-coor      y-coor      z-coor
    22626  1.83151E-03-2.61481E-02-2.50859E+01-2.70080E-02 2.31297E-02-2.84494E+00-3.59216E-02 7.81200E-03 4.97048E-01 4.79660E+01-2.20559E+01-1.77474E+01



 n o d a l   p r i n t   o u t   f o r   t i m e  s t e p   16002                              ( at time 7.9996994E+00 )

 nodal point  x-rot      y-rot       z-rot       x-rot vel   y-rot vel   z-rot vel   x-rot acc   y-rot acc   z-rot acc
    22626  9.84415E-04 1.41142E-03 5.29296E-04 2.05082E-03 2.47691E-03 3.64139E-05 2.90820E-03 3.20793E-03 1.06121E-04



 n o d a l   p r i n t   o u t   f o r   t i m e  s t e p   16202                              ( at time 8.0996894E+00 )

 nodal point  x-disp     y-disp      z-disp      x-vel       y-vel       z-vel      x-accl      y-accl      z-accl      x-coor      y-coor      z-coor
    22626 -1.02395E-03-2.37580E-02-2.53678E+01-2.96632E-02 2.39572E-02-2.79309E+00-2.65547E-02 8.27528E-03 5.18556E-01 4.79632E+01-2.20535E+01-1.80293E+01



 n o d a l   p r i n t   o u t   f o r   t i m e  s t e p   16202                              ( at time 8.0996894E+00 )

 nodal point  x-rot      y-rot       z-rot       x-rot vel   y-rot vel   z-rot vel   x-rot acc   y-rot acc   z-rot acc
    22626  1.20488E-03 1.67543E-03 5.34390E-04 2.34708E-03 2.79566E-03 6.26384E-05 2.96298E-03 3.18787E-03 2.62272E-04



 n o d a l   p r i n t   o u t   f o r   t i m e  s t e p   16402                              ( at time 8.1996794E+00 )

 nodal point  x-disp     y-disp      z-disp      x-vel       y-vel       z-vel      x-accl      y-accl      z-accl      x-coor      y-coor      z-coor
    22626 -4.02340E-03-2.13386E-02-2.56443E+01-3.00473E-02 2.45491E-02-2.73825E+00-3.84118E-03 5.91982E-03 5.48387E-01 4.79602E+01-2.20511E+01-1.83058E+01



 n o d a l   p r i n t   o u t   f o r   t i m e  s t e p   16402                              ( at time 8.1996794E+00 )

 nodal point  x-rot      y-rot       z-rot       x-rot vel   y-rot vel   z-rot vel   x-rot acc   y-rot acc   z-rot acc
    22626  1.45412E-03 1.97103E-03 5.41673E-04 2.64774E-03 3.11409E-03 8.17578E-05 3.00683E-03 3.18459E-03 1.91214E-04



 n o d a l   p r i n t   o u t   f o r   t i m e  s t e p   16602                              ( at time 8.2996694E+00 )

 nodal point  x-disp     y-disp      z-disp      x-vel       y-vel       z-vel      x-accl      y-accl      z-accl      x-coor      y-coor      z-coor
    22626 -7.09670E-03-1.87762E-02-2.59153E+01-3.09391E-02 2.67725E-02-2.68200E+00-8.91960E-03 2.22363E-02 5.62577E-01 4.79571E+01-2.20486E+01-1.85768E+01



 n o d a l   p r i n t   o u t   f o r   t i m e  s t e p   16602                              ( at time 8.2996694E+00 )

 nodal point  x-rot      y-rot       z-rot       x-rot vel   y-rot vel   z-rot vel   x-rot acc   y-rot acc   z-rot acc
    22626  1.73525E-03 2.29804E-03 5.51064E-04 2.97714E-03 3.43076E-03 1.08196E-04 3.29437E-03 3.16705E-03 2.64411E-04



 n o d a l   p r i n t   o u t   f o r   t i m e  s t e p   16802                              ( at time 8.3996594E+00 )

 nodal point  x-disp     y-disp      z-disp      x-vel       y-vel       z-vel      x-accl      y-accl      z-accl      x-coor      y-coor      z-coor
    22626 -1.02183E-02-1.61224E-02-2.61806E+01-3.04754E-02 2.67750E-02-2.62456E+00 4.63797E-03 2.50365E-05 5.74530E-01 4.79540E+01-2.20459E+01-1.88421E+01



 n o d a l   p r i n t   o u t   f o r   t i m e  s t e p   16802                              ( at time 8.3996594E+00 )

 nodal point  x-rot      y-rot       z-rot       x-rot vel   y-rot vel   z-rot vel   x-rot acc   y-rot acc   z-rot acc
    22626  2.04887E-03 2.65725E-03 5.62935E-04 3.30224E-03 3.75455E-03 1.25527E-04 3.25135E-03 3.23818E-03 1.73326E-04



 n o d a l   p r i n t   o u t   f o r   t i m e  s t e p   17002                              ( at time 8.4996494E+00 )

 nodal point  x-disp     y-disp      z-disp      x-vel       y-vel       z-vel      x-accl      y-accl      z-accl      x-coor      y-coor      z-coor
    22626 -1.32271E-02-1.34420E-02-2.64401E+01-2.87759E-02 2.68330E-02-2.56544E+00 1.69963E-02 5.79714E-04 5.91223E-01 4.79510E+01-2.20432E+01-1.91016E+01



 n o d a l   p r i n t   o u t   f o r   t i m e  s t e p   17002                              ( at time 8.4996494E+00 )

 nodal point  x-rot      y-rot       z-rot       x-rot vel   y-rot vel   z-rot vel   x-rot acc   y-rot acc   z-rot acc
    22626  2.39443E-03 3.04861E-03 5.76809E-04 3.61735E-03 4.05246E-03 1.56866E-04 3.15143E-03 2.97944E-03 3.13423E-04



 n o d a l   p r i n t   o u t   f o r   t i m e  s t e p   17202                              ( at time 8.5996394E+00 )

 nodal point  x-disp     y-disp      z-disp      x-vel       y-vel       z-vel      x-accl      y-accl      z-accl      x-coor      y-coor      z-coor
    22626 -1.59176E-02-1.07526E-02-2.66935E+01-2.49443E-02 2.70016E-02-2.50368E+00 3.83205E-02 1.68691E-03 6.17657E-01 4.79483E+01-2.20405E+01-1.93550E+01



 n o d a l   p r i n t   o u t   f o r   t i m e  s t e p   17202                              ( at time 8.5996394E+00 )

 nodal point  x-rot      y-rot       z-rot       x-rot vel   y-rot vel   z-rot vel   x-rot acc   y-rot acc   z-rot acc
    22626  2.77300E-03 3.46891E-03 5.93964E-04 3.95737E-03 4.34443E-03 1.76339E-04 3.40048E-03 2.92001E-03 1.94744E-04



 n o d a l   p r i n t   o u t   f o r   t i m e  s t e p   17402                              ( at time 8.6996293E+00 )

 nodal point  x-disp     y-disp      z-disp      x-vel       y-vel       z-vel      x-accl      y-accl      z-accl      x-coor      y-coor      z-coor
    22626 -1.82511E-02-8.06311E-03-2.69406E+01-2.16656E-02 2.69668E-02-2.43890E+00 3.27900E-02-3.47825E-04 6.47902E-01 4.79459E+01-2.20379E+01-1.96021E+01



 n o d a l   p r i n t   o u t   f o r   t i m e  s t e p   17402                              ( at time 8.6996293E+00 )

 nodal point  x-rot      y-rot       z-rot       x-rot vel   y-rot vel   z-rot vel   x-rot acc   y-rot acc   z-rot acc
    22626  3.18488E-03 3.91974E-03 6.13399E-04 4.28036E-03 4.64886E-03 2.06565E-04 3.23019E-03 3.04459E-03 3.02295E-04



 n o d a l   p r i n t   o u t   f o r   t i m e  s t e p   17602                              ( at time 8.7996193E+00 )

 nodal point  x-disp     y-disp      z-disp      x-vel       y-vel       z-vel      x-accl      y-accl      z-accl      x-coor      y-coor      z-coor
    22626 -2.01376E-02-5.43647E-03-2.71812E+01-1.61753E-02 2.55722E-02-2.37213E+00 5.49085E-02-1.39480E-02 6.67744E-01 4.79440E+01-2.20352E+01-1.98427E+01



 n o d a l   p r i n t   o u t   f o r   t i m e  s t e p   17602                              ( at time 8.7996193E+00 )

 nodal point  x-rot      y-rot       z-rot       x-rot vel   y-rot vel   z-rot vel   x-rot acc   y-rot acc   z-rot acc
    22626  3.62934E-03 4.39773E-03 6.35340E-04 4.61048E-03 4.91607E-03 2.32939E-04 3.30153E-03 2.67234E-03 2.63760E-04



 n o d a l   p r i n t   o u t   f o r   t i m e  s t e p   17802                              ( at time 8.8996093E+00 )

 nodal point  x-disp     y-disp      z-disp      x-vel       y-vel       z-vel      x-accl      y-accl      z-accl      x-coor      y-coor      z-coor
    22626 -2.14521E-02-2.95000E-03-2.74149E+01-9.45099E-03 2.49417E-02-2.30298E+00 6.72495E-02-6.30500E-03 6.91591E-01 4.79427E+01-2.20327E+01-2.00764E+01



 n o d a l   p r i n t   o u t   f o r   t i m e  s t e p   17802                              ( at time 8.8996093E+00 )

 nodal point  x-rot      y-rot       z-rot       x-rot vel   y-rot vel   z-rot vel   x-rot acc   y-rot acc   z-rot acc
    22626  4.10824E-03 4.90277E-03 6.59394E-04 4.96062E-03 5.16823E-03 2.44527E-04 3.50175E-03 2.52191E-03 1.15899E-04



 n o d a l   p r i n t   o u t   f o r   t i m e  s t e p   18002                              ( at time 8.9995993E+00 )

 nodal point  x-disp     y-disp      z-disp      x-vel       y-vel       z-vel      x-accl      y-accl      z-accl      x-coor      y-coor      z-coor
    22626 -2.20855E-02-5.99270E-04-2.76416E+01-4.25839E-03 2.16633E-02-2.23109E+00 5.19313E-02-3.27882E-02 7.18905E-01 4.79421E+01-2.20304E+01-2.03031E+01



 n o d a l   p r i n t   o u t   f o r   t i m e  s t e p   18002                              ( at time 8.9995993E+00 )

 nodal point  x-rot      y-rot       z-rot       x-rot vel   y-rot vel   z-rot vel   x-rot acc   y-rot acc   z-rot acc
    22626  4.62098E-03 5.43180E-03 6.85687E-04 5.28703E-03 5.40268E-03 2.82187E-04 3.26448E-03 2.34469E-03 3.76638E-04



 n o d a l   p r i n t   o u t   f o r   t i m e  s t e p   18202                              ( at time 9.0995893E+00 )

 nodal point  x-disp     y-disp      z-disp      x-vel       y-vel       z-vel      x-accl      y-accl      z-accl      x-coor      y-coor      z-coor
    22626 -2.20782E-02 1.59124E-03-2.78610E+01 4.73113E-03 2.11769E-02-2.15813E+00 8.99043E-02-4.86399E-03 7.29708E-01 4.79421E+01-2.20282E+01-2.05225E+01



 n o d a l   p r i n t   o u t   f o r   t i m e  s t e p   18202                              ( at time 9.0995893E+00 )

 nodal point  x-rot      y-rot       z-rot       x-rot vel   y-rot vel   z-rot vel   x-rot acc   y-rot acc   z-rot acc
    22626  5.16606E-03 5.98302E-03 7.12890E-04 5.61748E-03 5.62538E-03 2.78069E-04 3.30486E-03 2.22725E-03-4.11925E-05



 n o d a l   p r i n t   o u t   f o r   t i m e  s t e p   18402                              ( at time 9.1995793E+00 )

 nodal point  x-disp     y-disp      z-disp      x-vel       y-vel       z-vel      x-accl      y-accl      z-accl      x-coor      y-coor      z-coor
    22626 -2.13331E-02 3.58623E-03-2.80731E+01 1.11642E-02 1.86798E-02-2.08342E+00 6.43375E-02-2.49741E-02 7.47203E-01 4.79428E+01-2.20262E+01-2.07346E+01



 n o d a l   p r i n t   o u t   f o r   t i m e  s t e p   18402                              ( at time 9.1995793E+00 )

 nodal point  x-rot      y-rot       z-rot       x-rot vel   y-rot vel   z-rot vel   x-rot acc   y-rot acc   z-rot acc
    22626  5.74353E-03 6.55477E-03 7.40256E-04 5.94139E-03 5.81143E-03 2.72691E-04 3.23935E-03 1.86064E-03-5.37844E-05



 n o d a l   p r i n t   o u t   f o r   t i m e  s t e p   18602                              ( at time 9.2995693E+00 )

 nodal point  x-disp     y-disp      z-disp      x-vel       y-vel       z-vel      x-accl      y-accl      z-accl      x-coor      y-coor      z-coor
    22626 -1.97018E-02 5.45604E-03-2.82776E+01 2.17125E-02 1.68312E-02-2.00722E+00 1.05493E-01-1.84874E-02 7.62022E-01 4.79445E+01-2.20243E+01-2.09391E+01



 n o d a l   p r i n t   o u t   f o r   t i m e  s t e p   18602                              ( at time 9.2995693E+00 )

 nodal point  x-rot      y-rot       z-rot       x-rot vel   y-rot vel   z-rot vel   x-rot acc   y-rot acc   z-rot acc
    22626  6.35359E-03 7.14471E-03 7.65016E-04 6.25690E-03 5.99088E-03 2.58486E-04 3.15550E-03 1.79469E-03-1.42066E-04



 n o d a l   p r i n t   o u t   f o r   t i m e  s t e p   18802                              ( at time 9.3995593E+00 )

 nodal point  x-disp     y-disp      z-disp      x-vel       y-vel       z-vel      x-accl      y-accl      z-accl      x-coor      y-coor      z-coor
    22626 -1.72602E-02 7.03430E-03-2.84742E+01 3.04157E-02 1.56898E-02-1.92817E+00 8.70405E-02-1.14146E-02 7.90627E-01 4.79469E+01-2.20228E+01-2.11357E+01



 n o d a l   p r i n t   o u t   f o r   t i m e  s t e p   18802                              ( at time 9.3995593E+00 )

 nodal point  x-rot      y-rot       z-rot       x-rot vel   y-rot vel   z-rot vel   x-rot acc   y-rot acc   z-rot acc
    22626  6.99359E-03 7.75127E-03 7.89560E-04 6.54949E-03 6.13725E-03 2.34149E-04 2.92617E-03 1.46392E-03-2.43392E-04



 n o d a l   p r i n t   o u t   f o r   t i m e  s t e p   19002                              ( at time 9.4995493E+00 )

 nodal point  x-disp     y-disp      z-disp      x-vel       y-vel       z-vel      x-accl      y-accl      z-accl      x-coor      y-coor      z-coor
    22626 -1.37821E-02 8.39489E-03-2.86631E+01 3.91441E-02 1.13869E-02-1.84782E+00 8.72932E-02-4.30339E-02 8.03572E-01 4.79504E+01-2.20214E+01-2.13246E+01



 n o d a l   p r i n t   o u t   f o r   t i m e  s t e p   19002                              ( at time 9.4995493E+00 )

 nodal point  x-rot      y-rot       z-rot       x-rot vel   y-rot vel   z-rot vel   x-rot acc   y-rot acc   z-rot acc
    22626  7.66320E-03 8.37132E-03 8.12018E-04 6.83831E-03 6.27164E-03 2.18484E-04 2.88848E-03 1.34396E-03-1.56661E-04



 n o d a l   p r i n t   o u t   f o r   t i m e  s t e p   19202                              ( at time 9.5995393E+00 )

 nodal point  x-disp     y-disp      z-disp      x-vel       y-vel       z-vel      x-accl      y-accl      z-accl      x-coor      y-coor      z-coor
    22626 -9.25466E-03 9.51226E-03-2.88438E+01 5.01900E-02 9.76125E-03-1.76788E+00 1.10469E-01-1.62580E-02 7.99412E-01 4.79549E+01-2.20203E+01-2.15053E+01



 n o d a l   p r i n t   o u t   f o r   t i m e  s t e p   19202                              ( at time 9.5995393E+00 )

 nodal point  x-rot      y-rot       z-rot       x-rot vel   y-rot vel   z-rot vel   x-rot acc   y-rot acc   z-rot acc
    22626  8.36018E-03 9.00368E-03 8.30815E-04 7.10026E-03 6.38322E-03 1.77493E-04 2.61974E-03 1.11598E-03-4.09947E-04



 n o d a l   p r i n t   o u t   f o r   t i m e  s t e p   19402                              ( at time 9.6995293E+00 )

 nodal point  x-disp     y-disp      z-disp      x-vel       y-vel       z-vel      x-accl      y-accl      z-accl      x-coor      y-coor      z-coor
    22626 -3.56383E-03 1.02716E-02-2.90164E+01 6.23537E-02 4.59331E-03-1.68500E+00 1.21649E-01-5.16846E-02 8.28880E-01 4.79606E+01-2.20195E+01-2.16779E+01



 n o d a l   p r i n t   o u t   f o r   t i m e  s t e p   19402                              ( at time 9.6995293E+00 )

 nodal point  x-rot      y-rot       z-rot       x-rot vel   y-rot vel   z-rot vel   x-rot acc   y-rot acc   z-rot acc
    22626  9.08403E-03 9.64649E-03 8.46061E-04 7.34224E-03 6.46893E-03 1.35213E-04 2.42008E-03 8.57122E-04-4.22843E-04



 n o d a l   p r i n t   o u t   f o r   t i m e  s t e p   19602                              ( at time 9.7995193E+00 )

 nodal point  x-disp     y-disp      z-disp      x-vel       y-vel       z-vel      x-accl      y-accl      z-accl      x-coor      y-coor      z-coor
    22626  3.28104E-03 1.05104E-02-2.91808E+01 7.53214E-02 9.33324E-04-1.60234E+00 1.29690E-01-3.66036E-02 8.26709E-01 4.79675E+01-2.20193E+01-2.18423E+01



 n o d a l   p r i n t   o u t   f o r   t i m e  s t e p   19602                              ( at time 9.7995193E+00 )

 nodal point  x-rot      y-rot       z-rot       x-rot vel   y-rot vel   z-rot vel   x-rot acc   y-rot acc   z-rot acc
    22626  9.82958E-03 1.02960E-02 8.56230E-04 7.57243E-03 6.54106E-03 7.40148E-05 2.30207E-03 7.21359E-04-6.12048E-04



 n o d a l   p r i n t   o u t   f o r   t i m e  s t e p   19802                              ( at time 9.8995093E+00 )

 nodal point  x-disp     y-disp      z-disp      x-vel       y-vel       z-vel      x-accl      y-accl      z-accl      x-coor      y-coor      z-coor
    22626  1.13776E-02 1.02616E-02-2.93368E+01 8.50885E-02-5.88027E-03-1.51775E+00 9.76815E-02-6.81429E-02 8.46049E-01 4.79756E+01-2.20195E+01-2.19983E+01



 n o d a l   p r i n t   o u t   f o r   t i m e  s t e p   19802                              ( at time 9.8995093E+00 )

 nodal point  x-rot      y-rot       z-rot       x-rot vel   y-rot vel   z-rot vel   x-rot acc   y-rot acc   z-rot acc
    22626  1.05980E-02 1.09552E-02 8.62679E-04 7.79425E-03 6.63906E-03 5.92023E-05 2.21849E-03 9.80102E-04-1.48140E-04



 n o d a l   p r i n t   o u t   f o r   t i m e  s t e p   20003                              ( at time 9.9999992E+00 )

 nodal point  x-disp     y-disp      z-disp      x-vel       y-vel       z-vel      x-accl      y-accl      z-accl      x-coor      y-coor      z-coor
[...]
    22626  1.97080E-01 1.17074E-01-2.06658E-02 1.84133E-02 6.74332E-03-4.34514E-03-3.04067E-04-2.35167E-04-1.19849E-04



 n o d a l   p r i n t   o u t   f o r   t i m e  s t e p   45205                              ( at time 2.2599738E+01 )

 nodal point  x-disp     y-disp      z-disp      x-vel       y-vel       z-vel      x-accl      y-accl      z-accl      x-coor      y-coor      z-coor
    22626  3.32544E+00-2.60194E+00-2.44590E+01 1.74834E-01-2.89744E-01 6.06490E-01 4.33067E-03 1.00035E-02 2.36098E-02 5.12896E+01-2.46317E+01-1.71205E+01



 n o d a l   p r i n t   o u t   f o r   t i m e  s t e p   45205                              ( at time 2.2599738E+01 )

 nodal point  x-rot      y-rot       z-rot       x-rot vel   y-rot vel   z-rot vel   x-rot acc   y-rot acc   z-rot acc
    22626  1.98918E-01 1.17749E-01-2.11022E-02 1.83513E-02 6.74353E-03-4.38127E-03-6.20467E-04 2.12827E-06-3.61321E-04



 n o d a l   p r i n t   o u t   f o r   t i m e  s t e p   45405                              ( at time 2.2699728E+01 )

 nodal point  x-disp     y-disp      z-disp      x-vel       y-vel       z-vel      x-accl      y-accl      z-accl      x-coor      y-coor      z-coor
    22626  3.34299E+00-2.63094E+00-2.43983E+01 1.75605E-01-2.89673E-01 6.07861E-01 7.71101E-03 7.12950E-04 1.37165E-02 5.13072E+01-2.46607E+01-1.70598E+01



 n o d a l   p r i n t   o u t   f o r   t i m e  s t e p   45405                              ( at time 2.2699728E+01 )

 nodal point  x-rot      y-rot       z-rot       x-rot vel   y-rot vel   z-rot vel   x-rot acc   y-rot acc   z-rot acc
    22626  2.00750E-01 1.18422E-01-2.15405E-02 1.82915E-02 6.72459E-03-4.40571E-03-5.97249E-04-1.89429E-04-2.44471E-04



 n o d a l   p r i n t   o u t   f o r   t i m e  s t e p   45605                              ( at time 2.2799718E+01 )

 nodal point  x-disp     y-disp      z-disp      x-vel       y-vel       z-vel      x-accl      y-accl      z-accl      x-coor      y-coor      z-coor
    22626  3.36062E+00-2.65999E+00-2.43374E+01 1.76702E-01-2.90398E-01 6.10586E-01 1.09671E-02-7.24829E-03 2.72478E-02 5.13248E+01-2.46898E+01-1.69989E+01



 n o d a l   p r i n t   o u t   f o r   t i m e  s t e p   45605                              ( at time 2.2799718E+01 )

 nodal point  x-rot      y-rot       z-rot       x-rot vel   y-rot vel   z-rot vel   x-rot acc   y-rot acc   z-rot acc
    22626  2.02576E-01 1.19095E-01-2.19803E-02 1.82418E-02 6.72527E-03-4.40327E-03-4.97446E-04 6.81325E-06 2.44308E-05



 n o d a l   p r i n t   o u t   f o r   t i m e  s t e p   45805                              ( at time 2.2899708E+01 )

 nodal point  x-disp     y-disp      z-disp      x-vel       y-vel       z-vel      x-accl      y-accl      z-accl      x-coor      y-coor      z-coor
    22626  3.37833E+00-2.68900E+00-2.42763E+01 1.77455E-01-2.90035E-01 6.11005E-01 7.52815E-03 3.63360E-03 4.19604E-03 5.13425E+01-2.47188E+01-1.69378E+01



 n o d a l   p r i n t   o u t   f o r   t i m e  s t e p   45805                              ( at time 2.2899708E+01 )

 nodal point  x-rot      y-rot       z-rot       x-rot vel   y-rot vel   z-rot vel   x-rot acc   y-rot acc   z-rot acc
    22626  2.04399E-01 1.19766E-01-2.24206E-02 1.82043E-02 6.69650E-03-4.40824E-03-3.75569E-04-2.87694E-04-4.97102E-05



 n o d a l   p r i n t   o u t   f o r   t i m e  s t e p   46005                              ( at time 2.2999698E+01 )

 nodal point  x-disp     y-disp      z-disp      x-vel       y-vel       z-vel      x-accl      y-accl      z-accl      x-coor      y-coor      z-coor
    22626  3.39621E+00-2.71799E+00-2.42151E+01 1.78475E-01-2.89817E-01 6.12812E-01 1.02003E-02 2.17160E-03 1.80738E-02 5.13604E+01-2.47478E+01-1.68766E+01



 n o d a l   p r i n t   o u t   f o r   t i m e  s t e p   46005                              ( at time 2.2999698E+01 )

 nodal point  x-rot      y-rot       z-rot       x-rot vel   y-rot vel   z-rot vel   x-rot acc   y-rot acc   z-rot acc
    22626  2.06216E-01 1.20437E-01-2.28612E-02 1.81412E-02 6.69304E-03-4.42676E-03-6.30451E-04-3.46344E-05-1.85173E-04



 n o d a l   p r i n t   o u t   f o r   t i m e  s t e p   46205                              ( at time 2.3099688E+01 )

 nodal point  x-disp     y-disp      z-disp      x-vel       y-vel       z-vel      x-accl      y-accl      z-accl      x-coor      y-coor      z-coor
    22626  3.41415E+00-2.74703E+00-2.41538E+01 1.80021E-01-2.90004E-01 6.14887E-01 1.54626E-02-1.86315E-03 2.07459E-02 5.13783E+01-2.47768E+01-1.68153E+01



 n o d a l   p r i n t   o u t   f o r   t i m e  s t e p   46205                              ( at time 2.3099688E+01 )

 nodal point  x-rot      y-rot       z-rot       x-rot vel   y-rot vel   z-rot vel   x-rot acc   y-rot acc   z-rot acc
    22626  2.08027E-01 1.21106E-01-2.33023E-02 1.81022E-02 6.69309E-03-4.41784E-03-3.90621E-04 5.54198E-07 8.91514E-05



 n o d a l   p r i n t   o u t   f o r   t i m e  s t e p   46405                              ( at time 2.3199678E+01 )

 nodal point  x-disp     y-disp      z-disp      x-vel       y-vel       z-vel      x-accl      y-accl      z-accl      x-coor      y-coor      z-coor
    22626  3.43220E+00-2.77614E+00-2.40923E+01 1.81874E-01-2.91294E-01 6.15442E-01 1.85365E-02-1.29062E-02 5.55208E-03 5.13964E+01-2.48059E+01-1.67538E+01



 n o d a l   p r i n t   o u t   f o r   t i m e  s t e p   46405                              ( at time 2.3199678E+01 )

 nodal point  x-rot      y-rot       z-rot       x-rot vel   y-rot vel   z-rot vel   x-rot acc   y-rot acc   z-rot acc
    22626  2.09835E-01 1.21774E-01-2.37424E-02 1.80514E-02 6.69028E-03-4.39689E-03-5.07170E-04-2.81192E-05 2.09553E-04



 n o d a l   p r i n t   o u t   f o r   t i m e  s t e p   46605                              ( at time 2.3299668E+01 )

 nodal point  x-disp     y-disp      z-disp      x-vel       y-vel       z-vel      x-accl      y-accl      z-accl      x-coor      y-coor      z-coor
    22626  3.45041E+00-2.80522E+00-2.40306E+01 1.82668E-01-2.91192E-01 6.15882E-01 7.93739E-03 1.02472E-03 4.39871E-03 5.14146E+01-2.48350E+01-1.66921E+01



 n o d a l   p r i n t   o u t   f o r   t i m e  s t e p   46605                              ( at time 2.3299668E+01 )

 nodal point  x-rot      y-rot       z-rot       x-rot vel   y-rot vel   z-rot vel   x-rot acc   y-rot acc   z-rot acc
    22626  2.11638E-01 1.22443E-01-2.41817E-02 1.80001E-02 6.65942E-03-4.39826E-03-5.13160E-04-3.08656E-04-1.37292E-05



 n o d a l   p r i n t   o u t   f o r   t i m e  s t e p   46805                              ( at time 2.3399658E+01 )

 nodal point  x-disp     y-disp      z-disp      x-vel       y-vel       z-vel      x-accl      y-accl      z-accl      x-coor      y-coor      z-coor
    22626  3.46869E+00-2.83436E+00-2.39689E+01 1.83612E-01-2.90631E-01 6.19315E-01 9.44105E-03 5.60603E-03 3.43396E-02 5.14329E+01-2.48641E+01-1.66304E+01



 n o d a l   p r i n t   o u t   f o r   t i m e  s t e p   46805                              ( at time 2.3399658E+01 )

 nodal point  x-rot      y-rot       z-rot       x-rot vel   y-rot vel   z-rot vel   x-rot acc   y-rot acc   z-rot acc
    22626  2.13435E-01 1.23110E-01-2.46197E-02 1.79440E-02 6.67867E-03-4.38393E-03-5.61285E-04 1.92466E-04 1.43367E-04



 n o d a l   p r i n t   o u t   f o r   t i m e  s t e p   47005                              ( at time 2.3499648E+01 )

 nodal point  x-disp     y-disp      z-disp      x-vel       y-vel       z-vel      x-accl      y-accl      z-accl      x-coor      y-coor      z-coor
    22626  3.48711E+00-2.86344E+00-2.39070E+01 1.84767E-01-2.90969E-01 6.20054E-01 1.15481E-02-3.38198E-03 7.39106E-03 5.14513E+01-2.48932E+01-1.65685E+01



 n o d a l   p r i n t   o u t   f o r   t i m e  s t e p   47005                              ( at time 2.3499648E+01 )

 nodal point  x-rot      y-rot       z-rot       x-rot vel   y-rot vel   z-rot vel   x-rot acc   y-rot acc   z-rot acc
    22626  2.15227E-01 1.23777E-01-2.50557E-02 1.78985E-02 6.67066E-03-4.35925E-03-4.55030E-04-8.01150E-05 2.46758E-04



 n o d a l   p r i n t   o u t   f o r   t i m e  s t e p   47205                              ( at time 2.3599638E+01 )

 nodal point  x-disp     y-disp      z-disp      x-vel       y-vel       z-vel      x-accl      y-accl      z-accl      x-coor      y-coor      z-coor
    22626  3.50564E+00-2.89252E+00-2.38449E+01 1.85810E-01-2.90790E-01 6.21005E-01 1.04305E-02 1.79311E-03 9.50799E-03 5.14698E+01-2.49223E+01-1.65064E+01



 n o d a l   p r i n t   o u t   f o r   t i m e  s t e p   47205                              ( at time 2.3599638E+01 )

 nodal point  x-rot      y-rot       z-rot       x-rot vel   y-rot vel   z-rot vel   x-rot acc   y-rot acc   z-rot acc
    22626  2.17014E-01 1.24444E-01-2.54906E-02 1.78411E-02 6.66868E-03-4.33634E-03-5.73777E-04-1.97742E-05 2.29187E-04



 n o d a l   p r i n t   o u t   f o r   t i m e  s t e p   47405                              ( at time 2.3699628E+01 )

 nodal point  x-disp     y-disp      z-disp      x-vel       y-vel       z-vel      x-accl      y-accl      z-accl      x-coor      y-coor      z-coor
    22626  3.52430E+00-2.92156E+00-2.37827E+01 1.87221E-01-2.90265E-01 6.22570E-01 1.41160E-02 5.24807E-03 1.56459E-02 5.14885E+01-2.49513E+01-1.64442E+01



 n o d a l   p r i n t   o u t   f o r   t i m e  s t e p   47405                              ( at time 2.3699628E+01 )

 nodal point  x-rot      y-rot       z-rot       x-rot vel   y-rot vel   z-rot vel   x-rot acc   y-rot acc   z-rot acc
    22626  2.18795E-01 1.25111E-01-2.59235E-02 1.77813E-02 6.68868E-03-4.31084E-03-5.98485E-04 2.00015E-04 2.55001E-04



 n o d a l   p r i n t   o u t   f o r   t i m e  s t e p   47605                              ( at time 2.3799618E+01 )

 nodal point  x-disp     y-disp      z-disp      x-vel       y-vel       z-vel      x-accl      y-accl      z-accl      x-coor      y-coor      z-coor
    22626  3.54306E+00-2.95058E+00-2.37204E+01 1.88351E-01-2.89131E-01 6.23584E-01 1.13039E-02 1.13440E-02 1.01500E-02 5.15072E+01-2.49804E+01-1.63819E+01



 n o d a l   p r i n t   o u t   f o r   t i m e  s t e p   47605                              ( at time 2.3799618E+01 )

 nodal point  x-rot      y-rot       z-rot       x-rot vel   y-rot vel   z-rot vel   x-rot acc   y-rot acc   z-rot acc
    22626  2.20571E-01 1.25779E-01-2.63541E-02 1.77360E-02 6.67328E-03-4.31229E-03-4.52915E-04-1.53974E-04-1.45023E-05



 n o d a l   p r i n t   o u t   f o r   t i m e  s t e p   47805                              ( at time 2.3899608E+01 )

 nodal point  x-disp     y-disp      z-disp      x-vel       y-vel       z-vel      x-accl      y-accl      z-accl      x-coor      y-coor      z-coor
    22626  3.56195E+00-2.97948E+00-2.36579E+01 1.89248E-01-2.88582E-01 6.25127E-01 8.96596E-03 5.48681E-03 1.54259E-02 5.15261E+01-2.50093E+01-1.63194E+01



 n o d a l   p r i n t   o u t   f o r   t i m e  s t e p   47805                              ( at time 2.3899608E+01 )

 nodal point  x-rot      y-rot       z-rot       x-rot vel   y-rot vel   z-rot vel   x-rot acc   y-rot acc   z-rot acc
    22626  2.22342E-01 1.26447E-01-2.67830E-02 1.76959E-02 6.67935E-03-4.27618E-03-4.01604E-04 6.06579E-05 3.61144E-04



 n o d a l   p r i n t   o u t   f o r   t i m e  s t e p   48005                              ( at time 2.3999598E+01 )

 nodal point  x-disp     y-disp      z-disp      x-vel       y-vel       z-vel      x-accl      y-accl      z-accl      x-coor      y-coor      z-coor
    22626  3.58099E+00-3.00824E+00-2.35954E+01 1.91019E-01-2.86792E-01 6.26161E-01 1.77165E-02 1.79054E-02 1.03420E-02 5.15452E+01-2.50380E+01-1.62569E+01



 n o d a l   p r i n t   o u t   f o r   t i m e  s t e p   48005                              ( at time 2.3999598E+01 )

 nodal point  x-rot      y-rot       z-rot       x-rot vel   y-rot vel   z-rot vel   x-rot acc   y-rot acc   z-rot acc
    22626  2.24110E-01 1.27115E-01-2.72098E-02 1.76570E-02 6.68595E-03-4.27068E-03-3.88274E-04 6.60148E-05 5.50240E-05



 n o d a l   p r i n t   o u t   f o r   t i m e  s t e p   48205                              ( at time 2.4099588E+01 )

 nodal point  x-disp     y-disp      z-disp      x-vel       y-vel       z-vel      x-accl      y-accl      z-accl      x-coor      y-coor      z-coor
    22626  3.60015E+00-3.03692E+00-2.35327E+01 1.92682E-01-2.86107E-01 6.26815E-01 1.66318E-02 6.85039E-03 6.54221E-03 5.15643E+01-2.50667E+01-1.61942E+01



 n o d a l   p r i n t   o u t   f o r   t i m e  s t e p   48205                              ( at time 2.4099588E+01 )

 nodal point  x-rot      y-rot       z-rot       x-rot vel   y-rot vel   z-rot vel   x-rot acc   y-rot acc   z-rot acc
    22626  2.25873E-01 1.27784E-01-2.76361E-02 1.76082E-02 6.69088E-03-4.25926E-03-4.88263E-04 4.93413E-05 1.14163E-04



 n o d a l   p r i n t   o u t   f o r   t i m e  s t e p   48405                              ( at time 2.4199578E+01 )

 nodal point  x-disp     y-disp      z-disp      x-vel       y-vel       z-vel      x-accl      y-accl      z-accl      x-coor      y-coor      z-coor
    22626  3.61946E+00-3.06545E+00-2.34700E+01 1.94130E-01-2.84501E-01 6.27518E-01 1.44790E-02 1.60628E-02 7.03293E-03 5.15836E+01-2.50952E+01-1.61315E+01



 n o d a l   p r i n t   o u t   f o r   t i m e  s t e p   48405                              ( at time 2.4199578E+01 )

 nodal point  x-rot      y-rot       z-rot       x-rot vel   y-rot vel   z-rot vel   x-rot acc   y-rot acc   z-rot acc
    22626  2.27632E-01 1.28453E-01-2.80605E-02 1.75813E-02 6.68995E-03-4.23154E-03-2.69052E-04-9.31891E-06 2.77267E-04



 n o d a l   p r i n t   o u t   f o r   t i m e  s t e p   48605                              ( at time 2.4299568E+01 )

 nodal point  x-disp     y-disp      z-disp      x-vel       y-vel       z-vel      x-accl      y-accl      z-accl      x-coor      y-coor      z-coor
    22626  3.63887E+00-3.09385E+00-2.34072E+01 1.94689E-01-2.83383E-01 6.28488E-01 5.59426E-03 1.11843E-02 9.69499E-03 5.16031E+01-2.51236E+01-1.60687E+01



 n o d a l   p r i n t   o u t   f o r   t i m e  s t e p   48605                              ( at time 2.4299568E+01 )

 nodal point  x-rot      y-rot       z-rot       x-rot vel   y-rot vel   z-rot vel   x-rot acc   y-rot acc   z-rot acc
    22626  2.29388E-01 1.29121E-01-2.84828E-02 1.75346E-02 6.68559E-03-4.21688E-03-4.66673E-04-4.35713E-05 1.46622E-04



 n o d a l   p r i n t   o u t   f o r   t i m e  s t e p   48805                              ( at time 2.4399558E+01 )

 nodal point  x-disp     y-disp      z-disp      x-vel       y-vel       z-vel      x-accl      y-accl      z-accl      x-coor      y-coor      z-coor
    22626  3.65839E+00-3.12210E+00-2.33443E+01 1.95719E-01-2.82293E-01 6.29781E-01 1.02926E-02 1.08988E-02 1.29366E-02 5.16226E+01-2.51519E+01-1.60058E+01



 n o d a l   p r i n t   o u t   f o r   t i m e  s t e p   48805                              ( at time 2.4399558E+01 )

 nodal point  x-rot      y-rot       z-rot       x-rot vel   y-rot vel   z-rot vel   x-rot acc   y-rot acc   z-rot acc
    22626  2.31139E-01 1.29790E-01-2.89042E-02 1.75109E-02 6.69616E-03-4.19412E-03-2.37695E-04 1.05715E-04 2.27576E-04



 n o d a l   p r i n t   o u t   f o r   t i m e  s t e p   49006                              ( at time 2.4500048E+01 )

 nodal point  x-disp     y-disp      z-disp      x-vel       y-vel       z-vel      x-accl      y-accl      z-accl      x-coor      y-coor      z-coor
    22626  3.67810E+00-3.15037E+00-2.32809E+01 1.96497E-01-2.80861E-01 6.31284E-01 7.74829E-03 1.42489E-02 1.49568E-02 5.16423E+01-2.51802E+01-1.59424E+01



 n o d a l   p r i n t   o u t   f o r   t i m e  s t e p   49006                              ( at time 2.4500048E+01 )

 nodal point  x-rot      y-rot       z-rot       x-rot vel   y-rot vel   z-rot vel   x-rot acc   y-rot acc   z-rot acc
    22626  2.32896E-01 1.30463E-01-2.93258E-02 1.74661E-02 6.69356E-03-4.18358E-03-4.45120E-04-2.59456E-05 1.04922E-04



 n o d a l   p r i n t   o u t   f o r   t i m e  s t e p   49206                              ( at time 2.4600038E+01 )

 nodal point  x-disp     y-disp      z-disp      x-vel       y-vel       z-vel      x-accl      y-accl      z-accl      x-coor      y-coor      z-coor
    22626  3.69775E+00-3.17841E+00-2.32178E+01 1.96369E-01-2.79885E-01 6.31242E-01-1.27864E-03 9.75937E-03-4.26808E-04 5.16619E+01-2.52082E+01-1.58793E+01



 n o d a l   p r i n t   o u t   f o r   t i m e  s t e p   49206                              ( at time 2.4600038E+01 )

 nodal point  x-rot      y-rot       z-rot       x-rot vel   y-rot vel   z-rot vel   x-rot acc   y-rot acc   z-rot acc
    22626  2.34641E-01 1.31132E-01-2.97437E-02 1.74376E-02 6.70260E-03-4.16590E-03-2.85532E-04 9.04816E-05 1.76763E-04



 n o d a l   p r i n t   o u t   f o r   t i m e  s t e p   49406                              ( at time 2.4700028E+01 )

 nodal point  x-disp     y-disp      z-disp      x-vel       y-vel       z-vel      x-accl      y-accl      z-accl      x-coor      y-coor      z-coor
    22626  3.71745E+00-3.20629E+00-2.31546E+01 1.97009E-01-2.78417E-01 6.32549E-01 6.39852E-03 1.46843E-02 1.30763E-02 5.16816E+01-2.52361E+01-1.58161E+01



 n o d a l   p r i n t   o u t   f o r   t i m e  s t e p   49406                              ( at time 2.4700028E+01 )

 nodal point  x-rot      y-rot       z-rot       x-rot vel   y-rot vel   z-rot vel   x-rot acc   y-rot acc   z-rot acc
    22626  2.36383E-01 1.31802E-01-3.01595E-02 1.74049E-02 6.70241E-03-4.14277E-03-3.27173E-04-1.95599E-06 2.31320E-04



 n o d a l   p r i n t   o u t   f o r   t i m e  s t e p   49606                              ( at time 2.4800018E+01 )

 nodal point  x-disp     y-disp      z-disp      x-vel       y-vel       z-vel      x-accl      y-accl      z-accl      x-coor      y-coor      z-coor
    22626  3.73715E+00-3.23412E+00-2.30914E+01 1.96872E-01-2.77937E-01 6.33091E-01-1.36731E-03 4.79474E-03 5.41856E-03 5.17013E+01-2.52639E+01-1.57529E+01



 n o d a l   p r i n t   o u t   f o r   t i m e  s t e p   49606                              ( at time 2.4800018E+01 )

 nodal point  x-rot      y-rot       z-rot       x-rot vel   y-rot vel   z-rot vel   x-rot acc   y-rot acc   z-rot acc
    22626  2.38123E-01 1.32473E-01-3.05740E-02 1.73812E-02 6.71962E-03-4.13270E-03-2.36466E-04 1.72092E-04 1.00708E-04



 n o d a l   p r i n t   o u t   f o r   t i m e  s t e p   49806                              ( at time 2.4900008E+01 )

 nodal point  x-disp     y-disp      z-disp      x-vel       y-vel       z-vel      x-accl      y-accl      z-accl      x-coor      y-coor      z-coor
    22626  3.75681E+00-3.26184E+00-2.30281E+01 1.96668E-01-2.76907E-01 6.32739E-01-2.04452E-03 1.03062E-02-3.52302E-03 5.17210E+01-2.52916E+01-1.56896E+01



 n o d a l   p r i n t   o u t   f o r   t i m e  s t e p   49806                              ( at time 2.4900008E+01 )

 nodal point  x-rot      y-rot       z-rot       x-rot vel   y-rot vel   z-rot vel   x-rot acc   y-rot acc   z-rot acc
    22626  2.39860E-01 1.33144E-01-3.09873E-02 1.73636E-02 6.71114E-03-4.11607E-03-1.75984E-04-8.47784E-05 1.66362E-04



 n o d a l   p r i n t   o u t   f o r   t i m e  s t e p   50006                              ( at time 2.4999998E+01 )

 nodal point  x-disp     y-disp      z-disp      x-vel       y-vel       z-vel      x-accl      y-accl      z-accl      x-coor      y-coor      z-coor
    22626  3.77645E+00-3.28945E+00-2.29648E+01 1.96473E-01-2.76003E-01 6.32659E-01-1.95193E-03 9.03630E-03-7.91622E-04 5.17406E+01-2.53192E+01-1.56263E+01



 n o d a l   p r i n t   o u t   f o r   t i m e  s t e p   50006                              ( at time 2.4999998E+01 )

 nodal point  x-rot      y-rot       z-rot       x-rot vel   y-rot vel   z-rot vel   x-rot acc   y-rot acc   z-rot acc
    22626  2.41595E-01 1.33816E-01-3.13992E-02 1.73582E-02 6.71666E-03-4.11627E-03-5.40217E-05 5.52558E-05-2.03513E-06
