 LSTC 50th% Full_FE H-III Dummy (Beta Version, February 17, 2019)        
                    ls-dyna smp s R16 R16.0_619_d222963 date 03/18/2025

{BEGIN LEGEND}
 Entity #        Title
    46679                                                                                     
{END LEGEND}




 n o d a l   p r i n t   o u t   f o r   t i m e  s t e p       1                              ( at time 0.0000000E+00 )

 nodal point  x-disp     y-disp      z-disp      x-vel       y-vel       z-vel      x-accl      y-accl      z-accl      x-coor      y-coor      z-coor
    46679  2.45032E-03 2.51238E-05-1.73017E-03 4.90113E+00 5.02527E-02-3.46068E+00 0.00000E+00 0.00000E+00 0.00000E+00 9.09230E+00-4.73538E+02-4.82926E+02



 n o d a l   p r i n t   o u t   f o r   t i m e  s t e p       1                              ( at time 0.0000000E+00 )

 nodal point  x-rot      y-rot       z-rot       x-rot vel   y-rot vel   z-rot vel   x-rot acc   y-rot acc   z-rot acc
    46679  0.00000E+00 0.00000E+00 0.00000E+00 0.00000E+00 0.00000E+00 0.00000E+00 0.00000E+00 0.00000E+00 0.00000E+00



 n o d a l   p r i n t   o u t   f o r   t i m e  s t e p     201                              ( at time 9.9989993E-02 )

 nodal point  x-disp     y-disp      z-disp      x-vel       y-vel       z-vel      x-accl      y-accl      z-accl      x-coor      y-coor      z-coor
    46679  4.92515E-01 5.04989E-03-3.47765E-01 4.90115E+00 5.02524E-02-3.46069E+00 2.19367E-04-2.86876E-06-1.09684E-04 9.09230E+00-4.73538E+02-4.83525E+02



 n o d a l   p r i n t   o u t   f o r   t i m e  s t e p     201                              ( at time 9.9989993E-02 )

 nodal point  x-rot      y-rot       z-rot       x-rot vel   y-rot vel   z-rot vel   x-rot acc   y-rot acc   z-rot acc
    46679  9.50746E-11 4.96021E-10 2.70853E-11 3.35187E-09 1.60257E-08 2.26564E-09 3.35221E-08 1.60273E-07 2.26587E-08



 n o d a l   p r i n t   o u t   f o r   t i m e  s t e p     401                              ( at time 1.9997999E-01 )

 nodal point  x-disp     y-disp      z-disp      x-vel       y-vel       z-vel      x-accl      y-accl      z-accl      x-coor      y-coor      z-coor
    46679  9.82584E-01 1.00746E-02-6.93803E-01 4.90117E+00 5.02526E-02-3.46070E+00 1.85985E-04 1.75106E-06-9.29925E-05 9.09230E+00-4.73538E+02-4.84126E+02



 n o d a l   p r i n t   o u t   f o r   t i m e  s t e p     401                              ( at time 1.9997999E-01 )

 nodal point  x-rot      y-rot       z-rot       x-rot vel   y-rot vel   z-rot vel   x-rot acc   y-rot acc   z-rot acc
    46679  3.66530E-10 2.47504E-09 1.46823E-10 6.42450E-09 3.51533E-08 3.46078E-09 3.07293E-08 1.91296E-07 1.19526E-08



 n o d a l   p r i n t   o u t   f o r   t i m e  s t e p     601                              ( at time 2.9996998E-01 )

 nodal point  x-disp     y-disp      z-disp      x-vel       y-vel       z-vel      x-accl      y-accl      z-accl      x-coor      y-coor      z-coor
    46679  1.47265E+00 1.50993E-02-1.03984E+00 4.90119E+00 5.02524E-02-3.46071E+00 1.76447E-04-1.63929E-06-8.82237E-05 9.09230E+00-4.73538E+02-4.84726E+02



 n o d a l   p r i n t   o u t   f o r   t i m e  s t e p     601                              ( at time 2.9996998E-01 )

 nodal point  x-rot      y-rot       z-rot       x-rot vel   y-rot vel   z-rot vel   x-rot acc   y-rot acc   z-rot acc
    46679  6.62164E-10 6.14406E-09 5.33871E-10 1.59636E-09 4.11834E-08 2.81572E-09-4.82862E-08 6.03066E-08-6.45123E-09



 n o d a l   p r i n t   o u t   f o r   t i m e  s t e p     801                              ( at time 3.9995997E-01 )

 nodal point  x-disp     y-disp      z-disp      x-vel       y-vel       z-vel      x-accl      y-accl      z-accl      x-coor      y-coor      z-coor
    46679  1.96272E+00 2.01240E-02-1.38588E+00 4.90121E+00 5.02523E-02-3.46072E+00 1.90754E-04-1.22947E-06-9.53770E-05 9.09230E+00-4.73538E+02-4.85326E+02



 n o d a l   p r i n t   o u t   f o r   t i m e  s t e p     801                              ( at time 3.9995997E-01 )

 nodal point  x-rot      y-rot       z-rot       x-rot vel   y-rot vel   z-rot vel   x-rot acc   y-rot acc   z-rot acc
    46679  1.49607E-09 1.16160E-08 1.10556E-09 6.36973E-09 6.73730E-08 5.02861E-09 4.77385E-08 2.61923E-07 2.21311E-08



 n o d a l   p r i n t   o u t   f o r   t i m e  s t e p    1001                              ( at time 4.9994997E-01 )

 nodal point  x-disp     y-disp      z-disp      x-vel       y-vel       z-vel      x-accl      y-accl      z-accl      x-coor      y-coor      z-coor
    46679  2.45281E+00 2.51486E-02-1.73193E+00 4.90123E+00 5.02521E-02-3.46073E+00 1.90754E-04-2.42168E-06-9.77614E-05 9.09230E+00-4.73538E+02-4.85926E+02



 n o d a l   p r i n t   o u t   f o r   t i m e  s t e p    1001                              ( at time 4.9994997E-01 )

 nodal point  x-rot      y-rot       z-rot       x-rot vel   y-rot vel   z-rot vel   x-rot acc   y-rot acc   z-rot acc
    46679  2.70189E-09 1.91101E-08 1.76555E-09 1.40686E-08 7.98367E-08 7.80053E-09 7.69962E-08 1.24649E-07 2.77220E-08



 n o d a l   p r i n t   o u t   f o r   t i m e  s t e p    1201                              ( at time 5.9993996E-01 )

 nodal point  x-disp     y-disp      z-disp      x-vel       y-vel       z-vel      x-accl      y-accl      z-accl      x-coor      y-coor      z-coor
    46679  2.94291E+00 3.01733E-02-2.07797E+00 4.90125E+00 5.02518E-02-3.46074E+00 1.76447E-04-2.38442E-06-8.82237E-05 9.09230E+00-4.73538E+02-4.86527E+02



 n o d a l   p r i n t   o u t   f o r   t i m e  s t e p    1201                              ( at time 5.9993996E-01 )

 nodal point  x-rot      y-rot       z-rot       x-rot vel   y-rot vel   z-rot vel   x-rot acc   y-rot acc   z-rot acc
    46679  4.11801E-09 2.88893E-08 2.75443E-09 1.84156E-08 1.00101E-07 1.14906E-08 4.34743E-08 2.02661E-07 3.69040E-08



 n o d a l   p r i n t   o u t   f o r   t i m e  s t e p    1401                              ( at time 6.9992995E-01 )

 nodal point  x-disp     y-disp      z-disp      x-vel       y-vel       z-vel      x-accl      y-accl      z-accl      x-coor      y-coor      z-coor
    46679  3.43300E+00 3.51980E-02-2.42401E+00 4.90126E+00 5.02520E-02-3.46075E+00 1.81216E-04 1.56478E-06-9.06081E-05 9.09230E+00-4.73538E+02-4.87127E+02



 n o d a l   p r i n t   o u t   f o r   t i m e  s t e p    1401                              ( at time 6.9992995E-01 )

 nodal point  x-rot      y-rot       z-rot       x-rot vel   y-rot vel   z-rot vel   x-rot acc   y-rot acc   z-rot acc
    46679  5.71943E-09 4.09120E-08 3.91983E-09 1.73669E-08 1.17845E-07 7.39218E-09-1.04875E-08 1.77465E-07-4.09879E-08



 n o d a l   p r i n t   o u t   f o r   t i m e  s t e p    1601                              ( at time 7.9991994E-01 )

 nodal point  x-disp     y-disp      z-disp      x-vel       y-vel       z-vel      x-accl      y-accl      z-accl      x-coor      y-coor      z-coor
    46679  3.92309E+00 4.02226E-02-2.77005E+00 4.90128E+00 5.02518E-02-3.46076E+00 1.90754E-04-2.16088E-06-9.53770E-05 9.09230E+00-4.73538E+02-4.87728E+02



 n o d a l   p r i n t   o u t   f o r   t i m e  s t e p    1601                              ( at time 7.9991994E-01 )

 nodal point  x-rot      y-rot       z-rot       x-rot vel   y-rot vel   z-rot vel   x-rot acc   y-rot acc   z-rot acc
    46679  7.50938E-09 5.51233E-08 5.08469E-09 1.72688E-08 1.36043E-07 1.16483E-08-9.81304E-10 1.81998E-07 4.25651E-08



 n o d a l   p r i n t   o u t   f o r   t i m e  s t e p    1801                              ( at time 8.9990994E-01 )

 nodal point  x-disp     y-disp      z-disp      x-vel       y-vel       z-vel      x-accl      y-accl      z-accl      x-coor      y-coor      z-coor
    46679  4.41319E+00 4.52473E-02-3.11609E+00 4.90130E+00 5.02518E-02-3.46077E+00 1.85985E-04 1.49027E-07-9.29926E-05 9.09230E+00-4.73538E+02-4.88329E+02



 n o d a l   p r i n t   o u t   f o r   t i m e  s t e p    1801                              ( at time 8.9990994E-01 )

 nodal point  x-rot      y-rot       z-rot       x-rot vel   y-rot vel   z-rot vel   x-rot acc   y-rot acc   z-rot acc
    46679  9.67137E-09 7.13996E-08 6.61813E-09 1.97881E-08 1.76682E-07 1.67604E-08 2.51952E-08 4.06427E-07 5.11266E-08



 n o d a l   p r i n t   o u t   f o r   t i m e  s t e p    2001                              ( at time 9.9989993E-01 )

 nodal point  x-disp     y-disp      z-disp      x-vel       y-vel       z-vel      x-accl      y-accl      z-accl      x-coor      y-coor      z-coor
    46679  4.90328E+00 5.02720E-02-3.46213E+00 4.90132E+00 5.02515E-02-3.46078E+00 1.90754E-04-2.30991E-06-9.53770E-05 9.09230E+00-4.73538E+02-4.88930E+02



 n o d a l   p r i n t   o u t   f o r   t i m e  s t e p    2001                              ( at time 9.9989993E-01 )

 nodal point  x-rot      y-rot       z-rot       x-rot vel   y-rot vel   z-rot vel   x-rot acc   y-rot acc   z-rot acc
    46679  1.18678E-08 8.96195E-08 8.23249E-09 1.98877E-08 2.02560E-07 2.27936E-08 9.95943E-10 2.58805E-07 6.03382E-08



 n o d a l   p r i n t   o u t   f o r   t i m e  s t e p    2201                              ( at time 1.0998899E+00 )

 nodal point  x-disp     y-disp      z-disp      x-vel       y-vel       z-vel      x-accl      y-accl      z-accl      x-coor      y-coor      z-coor
    46679  5.39337E+00 5.52967E-02-3.80817E+00 4.90134E+00 5.02515E-02-3.46079E+00 1.81216E-04-2.98053E-07-9.06082E-05 9.09230E+00-4.73538E+02-4.89531E+02



 n o d a l   p r i n t   o u t   f o r   t i m e  s t e p    2201                              ( at time 1.0998899E+00 )

 nodal point  x-rot      y-rot       z-rot       x-rot vel   y-rot vel   z-rot vel   x-rot acc   y-rot acc   z-rot acc
    46679  1.41996E-08 1.10487E-07 1.01339E-08 2.60331E-08 2.24435E-07 2.29658E-08 6.14603E-08 2.18774E-07 1.72169E-09



 n o d a l   p r i n t   o u t   f o r   t i m e  s t e p    2401                              ( at time 1.1998799E+00 )

 nodal point  x-disp     y-disp      z-disp      x-vel       y-vel       z-vel      x-accl      y-accl      z-accl      x-coor      y-coor      z-coor
    46679  5.88347E+00 6.03213E-02-4.15423E+00 4.90136E+00 5.02516E-02-3.46080E+00 2.05060E-04 1.04319E-06-1.02530E-04 9.09230E+00-4.73538E+02-4.90132E+02



 n o d a l   p r i n t   o u t   f o r   t i m e  s t e p    2401                              ( at time 1.1998799E+00 )

 nodal point  x-rot      y-rot       z-rot       x-rot vel   y-rot vel   z-rot vel   x-rot acc   y-rot acc   z-rot acc
    46679  1.68797E-08 1.33662E-07 1.21044E-08 3.07416E-08 2.41404E-07 2.04071E-08 4.70894E-08 1.69706E-07-2.55898E-08



 n o d a l   p r i n t   o u t   f o r   t i m e  s t e p    2601                              ( at time 1.2998699E+00 )

 nodal point  x-disp     y-disp      z-disp      x-vel       y-vel       z-vel      x-accl      y-accl      z-accl      x-coor      y-coor      z-coor
    46679  6.37356E+00 6.53460E-02-4.50032E+00 4.90138E+00 5.02513E-02-3.46081E+00 1.85985E-04-3.57664E-06-9.53770E-05 9.09230E+00-4.73538E+02-4.90733E+02



 n o d a l   p r i n t   o u t   f o r   t i m e  s t e p    2601                              ( at time 1.2998699E+00 )

 nodal point  x-rot      y-rot       z-rot       x-rot vel   y-rot vel   z-rot vel   x-rot acc   y-rot acc   z-rot acc
    46679  1.98988E-08 1.59072E-07 1.43504E-08 2.96925E-08 2.65673E-07 2.70154E-08-1.04918E-08 2.42716E-07 6.60898E-08



 n o d a l   p r i n t   o u t   f o r   t i m e  s t e p    2801                              ( at time 1.3998599E+00 )

 nodal point  x-disp     y-disp      z-disp      x-vel       y-vel       z-vel      x-accl      y-accl      z-accl      x-coor      y-coor      z-coor
    46679  6.86365E+00 7.03707E-02-4.84641E+00 4.90140E+00 5.02512E-02-3.46082E+00 1.90754E-04-2.60796E-07-9.53770E-05 9.09230E+00-4.73538E+02-4.91334E+02



 n o d a l   p r i n t   o u t   f o r   t i m e  s t e p    2801                              ( at time 1.3998599E+00 )

 nodal point  x-rot      y-rot       z-rot       x-rot vel   y-rot vel   z-rot vel   x-rot acc   y-rot acc   z-rot acc
    46679  2.30531E-08 1.86636E-07 1.67931E-08 3.53981E-08 2.90059E-07 2.35775E-08 5.70618E-08 2.43884E-07-3.43822E-08



 n o d a l   p r i n t   o u t   f o r   t i m e  s t e p    3001                              ( at time 1.4998499E+00 )

 nodal point  x-disp     y-disp      z-disp      x-vel       y-vel       z-vel      x-accl      y-accl      z-accl      x-coor      y-coor      z-coor
    46679  7.35375E+00 7.53953E-02-5.19250E+00 4.90142E+00 5.02515E-02-3.46083E+00 2.00292E-04 2.27265E-06-1.00146E-04 9.09230E+00-4.73538E+02-4.91936E+02



 n o d a l   p r i n t   o u t   f o r   t i m e  s t e p    3001                              ( at time 1.4998499E+00 )

 nodal point  x-rot      y-rot       z-rot       x-rot vel   y-rot vel   z-rot vel   x-rot acc   y-rot acc   z-rot acc
    46679  2.64533E-08 2.16512E-07 1.93795E-08 3.66664E-08 3.12545E-07 2.82779E-08 1.26843E-08 2.24877E-07 4.70085E-08



 n o d a l   p r i n t   o u t   f o r   t i m e  s t e p    3201                              ( at time 1.5998399E+00 )

 nodal point  x-disp     y-disp      z-disp      x-vel       y-vel       z-vel      x-accl      y-accl      z-accl      x-coor      y-coor      z-coor
    46679  7.84384E+00 8.04200E-02-5.53859E+00 4.90144E+00 5.02514E-02-3.46083E+00 1.90754E-04-4.47080E-07-9.53770E-05 9.09230E+00-4.73538E+02-4.92537E+02



 n o d a l   p r i n t   o u t   f o r   t i m e  s t e p    3201                              ( at time 1.5998399E+00 )

 nodal point  x-rot      y-rot       z-rot       x-rot vel   y-rot vel   z-rot vel   x-rot acc   y-rot acc   z-rot acc
    46679  3.01704E-08 2.48465E-07 2.23000E-08 3.93207E-08 3.36348E-07 3.09852E-08 2.65462E-08 2.38062E-07 2.70763E-08



 n o d a l   p r i n t   o u t   f o r   t i m e  s t e p    3401                              ( at time 1.6998299E+00 )

 nodal point  x-disp     y-disp      z-disp      x-vel       y-vel       z-vel      x-accl      y-accl      z-accl      x-coor      y-coor      z-coor
    46679  8.33400E+00 8.54447E-02-5.88467E+00 4.90146E+00 5.02510E-02-3.46084E+00 1.95523E-04-3.80018E-06-9.77614E-05 9.09230E+00-4.73538E+02-4.93139E+02



 n o d a l   p r i n t   o u t   f o r   t i m e  s t e p    3401                              ( at time 1.6998299E+00 )

 nodal point  x-rot      y-rot       z-rot       x-rot vel   y-rot vel   z-rot vel   x-rot acc   y-rot acc   z-rot acc
    46679  3.40981E-08 2.82676E-07 2.52365E-08 3.90030E-08 3.48387E-07 3.14128E-08-3.17747E-09 1.20400E-07 4.27573E-09



 n o d a l   p r i n t   o u t   f o r   t i m e  s t e p    3601                              ( at time 1.7998199E+00 )

 nodal point  x-disp     y-disp      z-disp      x-vel       y-vel       z-vel      x-accl      y-accl      z-accl      x-coor      y-coor      z-coor
    46679  8.82419E+00 9.04694E-02-6.23076E+00 4.90148E+00 5.02511E-02-3.46085E+00 2.00292E-04 1.11770E-06-1.00146E-04 9.09230E+00-4.73538E+02-4.93740E+02



 n o d a l   p r i n t   o u t   f o r   t i m e  s t e p    3601                              ( at time 1.7998199E+00 )

 nodal point  x-rot      y-rot       z-rot       x-rot vel   y-rot vel   z-rot vel   x-rot acc   y-rot acc   z-rot acc
    46679  3.80472E-08 3.19000E-07 2.85659E-08 4.19519E-08 3.69154E-07 3.22432E-08 2.94916E-08 2.07689E-07 8.30477E-09



 n o d a l   p r i n t   o u t   f o r   t i m e  s t e p    3801                              ( at time 1.8998099E+00 )

 nodal point  x-disp     y-disp      z-disp      x-vel       y-vel       z-vel      x-accl      y-accl      z-accl      x-coor      y-coor      z-coor
    46679  9.31437E+00 9.54940E-02-6.57685E+00 4.90150E+00 5.02511E-02-3.46086E+00 1.95523E-04-2.23540E-07-9.77614E-05 9.09230E+00-4.73538E+02-4.94342E+02



 n o d a l   p r i n t   o u t   f o r   t i m e  s t e p    3801                              ( at time 1.8998099E+00 )

 nodal point  x-rot      y-rot       z-rot       x-rot vel   y-rot vel   z-rot vel   x-rot acc   y-rot acc   z-rot acc
    46679  4.25903E-08 3.57280E-07 3.17040E-08 4.26574E-08 3.97293E-07 3.12942E-08 7.05544E-09 2.81418E-07-9.49018E-09



 n o d a l   p r i n t   o u t   f o r   t i m e  s t e p    4001                              ( at time 1.9997999E+00 )

 nodal point  x-disp     y-disp      z-disp      x-vel       y-vel       z-vel      x-accl      y-accl      z-accl      x-coor      y-coor      z-coor
    46679  9.80456E+00 1.00519E-01-6.92294E+00 4.90152E+00 5.02507E-02-3.46087E+00 1.95523E-04-3.83743E-06-9.77614E-05 9.09230E+00-4.73538E+02-4.94944E+02



 n o d a l   p r i n t   o u t   f o r   t i m e  s t e p    4001                              ( at time 1.9997999E+00 )

 nodal point  x-rot      y-rot       z-rot       x-rot vel   y-rot vel   z-rot vel   x-rot acc   y-rot acc   z-rot acc
    46679  4.70694E-08 3.97731E-07 3.52314E-08 4.85428E-08 3.98721E-07 3.91510E-08 5.88601E-08 1.42799E-08 7.85751E-08



 n o d a l   p r i n t   o u t   f o r   t i m e  s t e p    4201                              ( at time 2.0997899E+00 )

 nodal point  x-disp     y-disp      z-disp      x-vel       y-vel       z-vel      x-accl      y-accl      z-accl      x-coor      y-coor      z-coor
    46679  1.02948E+01 1.05543E-01-7.26903E+00 4.90154E+00 5.02509E-02-3.46088E+00 2.09829E-04 1.49027E-06-1.02530E-04 9.09230E+00-4.73538E+02-4.95546E+02



 n o d a l   p r i n t   o u t   f o r   t i m e  s t e p    4201                              ( at time 2.0997899E+00 )

 nodal point  x-rot      y-rot       z-rot       x-rot vel   y-rot vel   z-rot vel   x-rot acc   y-rot acc   z-rot acc
    46679  5.18220E-08 4.40374E-07 3.87840E-08 4.67276E-08 4.37848E-07 3.32462E-08-1.81533E-08 3.91314E-07-5.90538E-08



 n o d a l   p r i n t   o u t   f o r   t i m e  s t e p    4401                              ( at time 2.1997798E+00 )

 nodal point  x-disp     y-disp      z-disp      x-vel       y-vel       z-vel      x-accl      y-accl      z-accl      x-coor      y-coor      z-coor
    46679  1.07849E+01 1.10568E-01-7.61512E+00 4.90156E+00 5.02507E-02-3.46089E+00 1.95523E-04-1.67655E-06-9.77615E-05 9.09230E+00-4.73538E+02-4.96148E+02



 n o d a l   p r i n t   o u t   f o r   t i m e  s t e p    4401                              ( at time 2.1997798E+00 )

 nodal point  x-rot      y-rot       z-rot       x-rot vel   y-rot vel   z-rot vel   x-rot acc   y-rot acc   z-rot acc
    46679  5.69024E-08 4.84906E-07 4.24843E-08 5.25375E-08 4.50823E-07 4.23521E-08 5.81042E-08 1.29765E-07 9.10684E-08



 n o d a l   p r i n t   o u t   f o r   t i m e  s t e p    4601                              ( at time 2.2997698E+00 )

 nodal point  x-disp     y-disp      z-disp      x-vel       y-vel       z-vel      x-accl      y-accl      z-accl      x-coor      y-coor      z-coor
    46679  1.12751E+01 1.15593E-01-7.96120E+00 4.90158E+00 5.02506E-02-3.46090E+00 2.00291E-04-1.30398E-06-1.00146E-04 9.09230E+00-4.73538E+02-4.96750E+02



 n o d a l   p r i n t   o u t   f o r   t i m e  s t e p    4601                              ( at time 2.2997698E+00 )

 nodal point  x-rot      y-rot       z-rot       x-rot vel   y-rot vel   z-rot vel   x-rot acc   y-rot acc   z-rot acc
    46679  6.19222E-08 5.31538E-07 4.64324E-08 5.09025E-08 4.86242E-07 3.71235E-08-1.63510E-08 3.54221E-07-5.22910E-08



 n o d a l   p r i n t   o u t   f o r   t i m e  s t e p    4801                              ( at time 2.3997598E+00 )

 nodal point  x-disp     y-disp      z-disp      x-vel       y-vel       z-vel      x-accl      y-accl      z-accl      x-coor      y-coor      z-coor
    46679  1.17653E+01 1.20617E-01-8.30721E+00 4.90160E+00 5.02506E-02-3.46091E+00 2.05061E-04-2.23540E-07-1.02530E-04 9.09230E+00-4.73538E+02-4.97352E+02



 n o d a l   p r i n t   o u t   f o r   t i m e  s t e p    4801                              ( at time 2.3997598E+00 )

 nodal point  x-rot      y-rot       z-rot       x-rot vel   y-rot vel   z-rot vel   x-rot acc   y-rot acc   z-rot acc
    46679  6.71150E-08 5.79779E-07 5.03036E-08 5.25467E-08 4.90632E-07 3.86918E-08 1.64434E-08 4.39001E-08 1.56843E-08



 n o d a l   p r i n t   o u t   f o r   t i m e  s t e p    5001                              ( at time 2.4997498E+00 )

 nodal point  x-disp     y-disp      z-disp      x-vel       y-vel       z-vel      x-accl      y-accl      z-accl      x-coor      y-coor      z-coor
    46679  1.22555E+01 1.25642E-01-8.65320E+00 4.90162E+00 5.02502E-02-3.46092E+00 1.95523E-04-3.61389E-06-9.77613E-05 9.09230E+00-4.73538E+02-4.97954E+02



 n o d a l   p r i n t   o u t   f o r   t i m e  s t e p    5001                              ( at time 2.4997498E+00 )

 nodal point  x-rot      y-rot       z-rot       x-rot vel   y-rot vel   z-rot vel   x-rot acc   y-rot acc   z-rot acc
    46679  7.23072E-08 6.29891E-07 5.43038E-08 5.49894E-08 5.19080E-07 4.07095E-08 2.44289E-08 2.84512E-07 2.01793E-08



 n o d a l   p r i n t   o u t   f o r   t i m e  s t e p    5201                              ( at time 2.5997398E+00 )

 nodal point  x-disp     y-disp      z-disp      x-vel       y-vel       z-vel      x-accl      y-accl      z-accl      x-coor      y-coor      z-coor
    46679  1.27457E+01 1.30667E-01-8.99919E+00 4.90164E+00 5.02502E-02-3.46093E+00 2.00292E-04-1.49027E-07-1.00146E-04 9.09230E+00-4.73538E+02-4.98557E+02



 n o d a l   p r i n t   o u t   f o r   t i m e  s t e p    5201                              ( at time 2.5997398E+00 )

 nodal point  x-rot      y-rot       z-rot       x-rot vel   y-rot vel   z-rot vel   x-rot acc   y-rot acc   z-rot acc
    46679  7.77710E-08 6.81775E-07 5.83425E-08 5.50549E-08 5.28624E-07 4.20823E-08 6.54938E-10 9.54543E-08 1.37290E-08



 n o d a l   p r i n t   o u t   f o r   t i m e  s t e p    5401                              ( at time 2.6997298E+00 )

 nodal point  x-disp     y-disp      z-disp      x-vel       y-vel       z-vel      x-accl      y-accl      z-accl      x-coor      y-coor      z-coor
    46679  1.32359E+01 1.35691E-01-9.34519E+00 4.90144E+00 5.02420E-02-3.46070E+00-2.00291E-03-8.18155E-05 2.33673E-03 9.09230E+00-4.73538E+02-4.99159E+02



 n o d a l   p r i n t   o u t   f o r   t i m e  s t e p    5401                              ( at time 2.6997298E+00 )

 nodal point  x-rot      y-rot       z-rot       x-rot vel   y-rot vel   z-rot vel   x-rot acc   y-rot acc   z-rot acc
    46679  8.21700E-08 6.81142E-07 6.29255E-08-9.63029E-09-3.12873E-06 7.67160E-08-6.46915E-07-3.65772E-05 3.46371E-07



 n o d a l   p r i n t   o u t   f o r   t i m e  s t e p    5601                              ( at time 2.7997198E+00 )

 nodal point  x-disp     y-disp      z-disp      x-vel       y-vel       z-vel      x-accl      y-accl      z-accl      x-coor      y-coor      z-coor
    46679  1.37257E+01 1.40713E-01-9.69100E+00 4.89535E+00 5.01770E-02-3.45562E+00-6.08887E-02-6.49831E-04 5.08479E-02 9.09230E+00-4.73538E+02-4.99762E+02



 n o d a l   p r i n t   o u t   f o r   t i m e  s t e p    5601                              ( at time 2.7997198E+00 )

 nodal point  x-rot      y-rot       z-rot       x-rot vel   y-rot vel   z-rot vel   x-rot acc   y-rot acc   z-rot acc
    46679  9.92251E-08 1.79811E-06 1.15946E-07 5.29810E-07 3.37434E-05 5.52704E-07 5.39495E-06 3.68759E-04 4.76036E-06



 n o d a l   p r i n t   o u t   f o r   t i m e  s t e p    5801                              ( at time 2.8997098E+00 )

 nodal point  x-disp     y-disp      z-disp      x-vel       y-vel       z-vel      x-accl      y-accl      z-accl      x-coor      y-coor      z-coor
    46679  1.42147E+01 1.45734E-01-1.00362E+01 4.88353E+00 5.01619E-02-3.44910E+00-1.18182E-01-1.51411E-04 6.51282E-02 9.09229E+00-4.73538E+02-5.00363E+02



 n o d a l   p r i n t   o u t   f o r   t i m e  s t e p    5801                              ( at time 2.8997098E+00 )

 nodal point  x-rot      y-rot       z-rot       x-rot vel   y-rot vel   z-rot vel   x-rot acc   y-rot acc   z-rot acc
    46679  2.16875E-07 9.05952E-06 1.63498E-07 7.59784E-07 1.17701E-04 8.77175E-07 2.29997E-06 8.39658E-04 3.24504E-06



 n o d a l   p r i n t   o u t   f o r   t i m e  s t e p    6001                              ( at time 2.9996998E+00 )

 nodal point  x-disp     y-disp      z-disp      x-vel       y-vel       z-vel      x-accl      y-accl      z-accl      x-coor      y-coor      z-coor
    46679  1.47022E+01 1.50746E-01-1.03805E+01 4.86629E+00 5.00204E-02-3.43548E+00-1.72465E-01-1.41549E-03 1.36255E-01 9.09228E+00-4.73538E+02-5.00963E+02



 n o d a l   p r i n t   o u t   f o r   t i m e  s t e p    6001                              ( at time 2.9996998E+00 )

 nodal point  x-rot      y-rot       z-rot       x-rot vel   y-rot vel   z-rot vel   x-rot acc   y-rot acc   z-rot acc
    46679  2.51087E-07 2.48057E-05 2.89592E-07 2.05945E-07 2.10402E-04 2.54015E-06-5.53893E-06 9.27109E-04 1.66314E-05



 n o d a l   p r i n t   o u t   f o r   t i m e  s t e p    6201                              ( at time 3.0996898E+00 )

 nodal point  x-disp     y-disp      z-disp      x-vel       y-vel       z-vel      x-accl      y-accl      z-accl      x-coor      y-coor      z-coor
    46679  1.51878E+01 1.55743E-01-1.07233E+01 4.84629E+00 4.99865E-02-3.42018E+00-2.00015E-01-3.39073E-04 1.52994E-01 9.09226E+00-4.73538E+02-5.01560E+02



 n o d a l   p r i n t   o u t   f o r   t i m e  s t e p    6201                              ( at time 3.0996898E+00 )

 nodal point  x-rot      y-rot       z-rot       x-rot vel   y-rot vel   z-rot vel   x-rot acc   y-rot acc   z-rot acc
    46679  3.15436E-07 5.04395E-05 5.72413E-07 2.38896E-06 3.11139E-04 3.17718E-06 2.18323E-05 1.00746E-03 6.37088E-06



 n o d a l   p r i n t   o u t   f o r   t i m e  s t e p    6401                              ( at time 3.1996798E+00 )

 nodal point  x-disp     y-disp      z-disp      x-vel       y-vel       z-vel      x-accl      y-accl      z-accl      x-coor      y-coor      z-coor
    46679  1.56710E+01 1.60735E-01-1.10643E+01 4.81984E+00 4.98382E-02-3.39970E+00-2.64513E-01-1.48270E-03 2.04810E-01 9.09222E+00-4.73538E+02-5.02154E+02



 n o d a l   p r i n t   o u t   f o r   t i m e  s t e p    6401                              ( at time 3.1996798E+00 )

 nodal point  x-rot      y-rot       z-rot       x-rot vel   y-rot vel   z-rot vel   x-rot acc   y-rot acc   z-rot acc
    46679  5.58166E-07 8.82496E-05 1.01407E-06 3.84787E-06 4.56553E-04 4.80205E-06 1.45905E-05 1.45429E-03 1.62503E-05



 n o d a l   p r i n t   o u t   f o r   t i m e  s t e p    6601                              ( at time 3.2996698E+00 )

 nodal point  x-disp     y-disp      z-disp      x-vel       y-vel       z-vel      x-accl      y-accl      z-accl      x-coor      y-coor      z-coor
    46679  1.61516E+01 1.65708E-01-1.14032E+01 4.79195E+00 4.95795E-02-3.37937E+00-2.78935E-01-2.58677E-03 2.03306E-01 9.09217E+00-4.73537E+02-5.02746E+02



 n o d a l   p r i n t   o u t   f o r   t i m e  s t e p    6601                              ( at time 3.2996698E+00 )

 nodal point  x-rot      y-rot       z-rot       x-rot vel   y-rot vel   z-rot vel   x-rot acc   y-rot acc   z-rot acc
    46679  1.01217E-06 1.41827E-04 1.49329E-06 5.17965E-06 6.10089E-04 6.17808E-06 1.33191E-05 1.53551E-03 1.37617E-05



 n o d a l   p r i n t   o u t   f o r   t i m e  s t e p    6801                              ( at time 3.3996598E+00 )

 nodal point  x-disp     y-disp      z-disp      x-vel       y-vel       z-vel      x-accl      y-accl      z-accl      x-coor      y-coor      z-coor
    46679  1.66294E+01 1.70661E-01-1.17399E+01 4.76337E+00 4.93962E-02-3.35633E+00-2.85835E-01-1.83351E-03 2.30473E-01 9.09211E+00-4.73537E+02-5.03333E+02



 n o d a l   p r i n t   o u t   f o r   t i m e  s t e p    6801                              ( at time 3.3996598E+00 )

 nodal point  x-rot      y-rot       z-rot       x-rot vel   y-rot vel   z-rot vel   x-rot acc   y-rot acc   z-rot acc
    46679  1.58766E-06 2.11160E-04 2.21701E-06 7.91671E-06 7.68779E-04 1.01132E-05 2.73733E-05 1.58706E-03 3.93554E-05



 n o d a l   p r i n t   o u t   f o r   t i m e  s t e p    7001                              ( at time 3.4996498E+00 )

 nodal point  x-disp     y-disp      z-disp      x-vel       y-vel       z-vel      x-accl      y-accl      z-accl      x-coor      y-coor      z-coor
    46679  1.71041E+01 1.75591E-01-1.20742E+01 4.72998E+00 4.92320E-02-3.33105E+00-3.33891E-01-1.64242E-03 2.52799E-01 9.09204E+00-4.73536E+02-5.03917E+02



 n o d a l   p r i n t   o u t   f o r   t i m e  s t e p    7001                              ( at time 3.4996498E+00 )

 nodal point  x-rot      y-rot       z-rot       x-rot vel   y-rot vel   z-rot vel   x-rot acc   y-rot acc   z-rot acc
    46679  2.63520E-06 2.98771E-04 3.42089E-06 1.21959E-05 9.94530E-04 1.27885E-05 4.27966E-05 2.25773E-03 2.67557E-05



 n o d a l   p r i n t   o u t   f o r   t i m e  s t e p    7201                              ( at time 3.5996397E+00 )

 nodal point  x-disp     y-disp      z-disp      x-vel       y-vel       z-vel      x-accl      y-accl      z-accl      x-coor      y-coor      z-coor
    46679  1.75752E+01 1.80498E-01-1.24061E+01 4.69449E+00 4.89000E-02-3.30541E+00-3.54898E-01-3.32002E-03 2.56452E-01 9.09196E+00-4.73535E+02-5.04497E+02



 n o d a l   p r i n t   o u t   f o r   t i m e  s t e p    7201                              ( at time 3.5996397E+00 )

 nodal point  x-rot      y-rot       z-rot       x-rot vel   y-rot vel   z-rot vel   x-rot acc   y-rot acc   z-rot acc
    46679  4.08016E-06 4.09366E-04 5.09204E-06 1.73778E-05 1.23420E-03 2.02768E-05 5.18240E-05 2.39699E-03 7.48907E-05



 n o d a l   p r i n t   o u t   f o r   t i m e  s t e p    7401                              ( at time 3.6996297E+00 )

 nodal point  x-disp     y-disp      z-disp      x-vel       y-vel       z-vel      x-accl      y-accl      z-accl      x-coor      y-coor      z-coor
    46679  1.80426E+01 1.85382E-01-1.27351E+01 4.65456E+00 4.87253E-02-3.27624E+00-3.99400E-01-1.74767E-03 2.91734E-01 9.09186E+00-4.73535E+02-5.05072E+02



 n o d a l   p r i n t   o u t   f o r   t i m e  s t e p    7401                              ( at time 3.6996297E+00 )

 nodal point  x-rot      y-rot       z-rot       x-rot vel   y-rot vel   z-rot vel   x-rot acc   y-rot acc   z-rot acc
    46679  6.18188E-06 5.45236E-04 7.55965E-06 2.45452E-05 1.50682E-03 2.86856E-05 7.16807E-05 2.72642E-03 8.40958E-05



 n o d a l   p r i n t   o u t   f o r   t i m e  s t e p    7601                              ( at time 3.7996197E+00 )

 nodal point  x-disp     y-disp      z-disp      x-vel       y-vel       z-vel      x-accl      y-accl      z-accl      x-coor      y-coor      z-coor
    46679  1.85060E+01 1.90250E-01-1.30614E+01 4.61328E+00 4.86264E-02-3.24812E+00-4.12802E-01-9.89314E-04 2.81203E-01 9.09174E+00-4.73534E+02-5.05643E+02



 n o d a l   p r i n t   o u t   f o r   t i m e  s t e p    7601                              ( at time 3.7996197E+00 )

 nodal point  x-rot      y-rot       z-rot       x-rot vel   y-rot vel   z-rot vel   x-rot acc   y-rot acc   z-rot acc
    46679  8.72050E-06 7.09344E-04 1.08027E-05 2.65416E-05 1.79046E-03 3.72586E-05 1.99666E-05 2.83665E-03 8.57385E-05



 n o d a l   p r i n t   o u t   f o r   t i m e  s t e p    7801                              ( at time 3.8996097E+00 )

 nodal point  x-disp     y-disp      z-disp      x-vel       y-vel       z-vel      x-accl      y-accl      z-accl      x-coor      y-coor      z-coor
    46679  1.89651E+01 1.95095E-01-1.33845E+01 4.56985E+00 4.82724E-02-3.21634E+00-4.34384E-01-3.53978E-03 3.17834E-01 9.09160E+00-4.73533E+02-5.06208E+02



 n o d a l   p r i n t   o u t   f o r   t i m e  s t e p    7801                              ( at time 3.8996097E+00 )

 nodal point  x-rot      y-rot       z-rot       x-rot vel   y-rot vel   z-rot vel   x-rot acc   y-rot acc   z-rot acc
    46679  1.15348E-05 9.02605E-04 1.49325E-05 3.18122E-05 2.08513E-03 4.55258E-05 5.27112E-05 2.94704E-03 8.26808E-05



 n o d a l   p r i n t   o u t   f o r   t i m e  s t e p    8001                              ( at time 3.9995997E+00 )

 nodal point  x-disp     y-disp      z-disp      x-vel       y-vel       z-vel      x-accl      y-accl      z-accl      x-coor      y-coor      z-coor
    46679  1.94197E+01 1.99907E-01-1.37046E+01 4.52201E+00 4.80006E-02-3.18484E+00-4.78407E-01-2.71847E-03 3.15023E-01 9.09144E+00-4.73532E+02-5.06768E+02



 n o d a l   p r i n t   o u t   f o r   t i m e  s t e p    8001                              ( at time 3.9995997E+00 )

 nodal point  x-rot      y-rot       z-rot       x-rot vel   y-rot vel   z-rot vel   x-rot acc   y-rot acc   z-rot acc
    46679  1.51874E-05 1.12924E-03 1.98349E-05 4.40502E-05 2.45261E-03 5.34825E-05 1.22392E-04 3.67514E-03 7.95746E-05



 n o d a l   p r i n t   o u t   f o r   t i m e  s t e p    8201                              ( at time 4.0995897E+00 )

 nodal point  x-disp     y-disp      z-disp      x-vel       y-vel       z-vel      x-accl      y-accl      z-accl      x-coor      y-coor      z-coor
    46679  1.98694E+01 2.04683E-01-1.40213E+01 4.47278E+00 4.75626E-02-3.15076E+00-4.92412E-01-4.38055E-03 3.40874E-01 9.09127E+00-4.73532E+02-5.07322E+02



 n o d a l   p r i n t   o u t   f o r   t i m e  s t e p    8201                              ( at time 4.0995897E+00 )

 nodal point  x-rot      y-rot       z-rot       x-rot vel   y-rot vel   z-rot vel   x-rot acc   y-rot acc   z-rot acc
    46679  2.03956E-05 1.39210E-03 2.61554E-05 5.96554E-05 2.80688E-03 7.16236E-05 1.56067E-04 3.54304E-03 1.81429E-04



 n o d a l   p r i n t   o u t   f o r   t i m e  s t e p    8401                              ( at time 4.1995797E+00 )

 nodal point  x-disp     y-disp      z-disp      x-vel       y-vel       z-vel      x-accl      y-accl      z-accl      x-coor      y-coor      z-coor
    46679  2.03140E+01 2.09414E-01-1.43345E+01 4.41849E+00 4.70351E-02-3.11475E+00-5.42958E-01-5.27577E-03 3.60144E-01 9.09109E+00-4.73531E+02-5.07869E+02



 n o d a l   p r i n t   o u t   f o r   t i m e  s t e p    8401                              ( at time 4.1995797E+00 )

 nodal point  x-rot      y-rot       z-rot       x-rot vel   y-rot vel   z-rot vel   x-rot acc   y-rot acc   z-rot acc
    46679  2.72067E-05 1.69293E-03 3.40900E-05 7.40067E-05 3.22624E-03 8.61299E-05 1.43527E-04 4.19404E-03 1.45078E-04



 n o d a l   p r i n t   o u t   f o r   t i m e  s t e p    8601                              ( at time 4.2995697E+00 )

 nodal point  x-disp     y-disp      z-disp      x-vel       y-vel       z-vel      x-accl      y-accl      z-accl      x-coor      y-coor      z-coor
    46679  2.07529E+01 2.14087E-01-1.46441E+01 4.36140E+00 4.61921E-02-3.07533E+00-5.70908E-01-8.43007E-03 3.94198E-01 9.09092E+00-4.73531E+02-5.08411E+02



 n o d a l   p r i n t   o u t   f o r   t i m e  s t e p    8601                              ( at time 4.2995697E+00 )

 nodal point  x-rot      y-rot       z-rot       x-rot vel   y-rot vel   z-rot vel   x-rot acc   y-rot acc   z-rot acc
    46679  3.55032E-05 2.03550E-03 4.31972E-05 8.69176E-05 3.64189E-03 9.18208E-05 1.29122E-04 4.15698E-03 5.69144E-05



 n o d a l   p r i n t   o u t   f o r   t i m e  s t e p    8801                              ( at time 4.3995597E+00 )

 nodal point  x-disp     y-disp      z-disp      x-vel       y-vel       z-vel      x-accl      y-accl      z-accl      x-coor      y-coor      z-coor
    46679  2.11860E+01 2.18684E-01-1.49496E+01 4.30046E+00 4.58091E-02-3.03539E+00-6.09493E-01-3.83051E-03 3.99501E-01 9.09076E+00-4.73530E+02-5.08945E+02



 n o d a l   p r i n t   o u t   f o r   t i m e  s t e p    8801                              ( at time 4.3995597E+00 )

 nodal point  x-rot      y-rot       z-rot       x-rot vel   y-rot vel   z-rot vel   x-rot acc   y-rot acc   z-rot acc
    46679  4.47930E-05 2.42144E-03 5.29200E-05 9.71267E-05 4.08920E-03 9.81114E-05 1.02101E-04 4.47351E-03 6.29123E-05



 n o d a l   p r i n t   o u t   f o r   t i m e  s t e p    9001                              ( at time 4.4995497E+00 )

 nodal point  x-disp     y-disp      z-disp      x-vel       y-vel       z-vel      x-accl      y-accl      z-accl      x-coor      y-coor      z-coor
    46679  2.16128E+01 2.23224E-01-1.52509E+01 4.23724E+00 4.48354E-02-2.99167E+00-6.32271E-01-9.73836E-03 4.37237E-01 9.09059E+00-4.73530E+02-5.09472E+02



 n o d a l   p r i n t   o u t   f o r   t i m e  s t e p    9001                              ( at time 4.4995497E+00 )

 nodal point  x-rot      y-rot       z-rot       x-rot vel   y-rot vel   z-rot vel   x-rot acc   y-rot acc   z-rot acc
    46679  5.50339E-05 2.85432E-03 6.34433E-05 1.04192E-04 4.56935E-03 1.08976E-04 7.06552E-05 4.80198E-03 1.08657E-04



 n o d a l   p r i n t   o u t   f o r   t i m e  s t e p    9201                              ( at time 4.5995397E+00 )

 nodal point  x-disp     y-disp      z-disp      x-vel       y-vel       z-vel      x-accl      y-accl      z-accl      x-coor      y-coor      z-coor
    46679  2.20333E+01 2.27691E-01-1.55479E+01 4.17133E+00 4.44084E-02-2.94699E+00-6.59079E-01-4.26984E-03 4.46796E-01 9.09044E+00-4.73530E+02-5.09991E+02



 n o d a l   p r i n t   o u t   f o r   t i m e  s t e p    9201                              ( at time 4.5995397E+00 )

 nodal point  x-rot      y-rot       z-rot       x-rot vel   y-rot vel   z-rot vel   x-rot acc   y-rot acc   z-rot acc
    46679  6.50092E-05 3.33417E-03 7.46596E-05 9.70282E-05 5.04960E-03 1.13714E-04-7.16401E-05 4.80293E-03 4.73834E-05



 n o d a l   p r i n t   o u t   f o r   t i m e  s t e p    9401                              ( at time 4.6995297E+00 )

 nodal point  x-disp     y-disp      z-disp      x-vel       y-vel       z-vel      x-accl      y-accl      z-accl      x-coor      y-coor      z-coor
    46679  2.24470E+01 2.32085E-01-1.58403E+01 4.10349E+00 4.38912E-02-2.90149E+00-6.78470E-01-5.17290E-03 4.55089E-01 9.09029E+00-4.73530E+02-5.10502E+02



 n o d a l   p r i n t   o u t   f o r   t i m e  s t e p    9401                              ( at time 4.6995297E+00 )

 nodal point  x-rot      y-rot       z-rot       x-rot vel   y-rot vel   z-rot vel   x-rot acc   y-rot acc   z-rot acc
    46679  7.56828E-05 3.86387E-03 8.61758E-05 1.15241E-04 5.56194E-03 1.12511E-04 1.82148E-04 5.12397E-03-1.20251E-05



 n o d a l   p r i n t   o u t   f o r   t i m e  s t e p    9601                              ( at time 4.7995197E+00 )

 nodal point  x-disp     y-disp      z-disp      x-vel       y-vel       z-vel      x-accl      y-accl      z-accl      x-coor      y-coor      z-coor
    46679  2.28538E+01 2.36352E-01-1.61281E+01 4.03284E+00 4.19122E-02-2.85383E+00-7.06663E-01-1.97921E-02 4.76652E-01 9.09020E+00-4.73531E+02-5.11005E+02



 n o d a l   p r i n t   o u t   f o r   t i m e  s t e p    9601                              ( at time 4.7995197E+00 )

 nodal point  x-rot      y-rot       z-rot       x-rot vel   y-rot vel   z-rot vel   x-rot acc   y-rot acc   z-rot acc
    46679  8.78460E-05 4.44338E-03 9.84700E-05 1.17661E-04 6.04136E-03 1.34698E-04 2.42016E-05 4.79465E-03 2.21891E-04



 n o d a l   p r i n t   o u t   f o r   t i m e  s t e p    9801                              ( at time 4.8995097E+00 )

 nodal point  x-disp     y-disp      z-disp      x-vel       y-vel       z-vel      x-accl      y-accl      z-accl      x-coor      y-coor      z-coor
    46679  2.32534E+01 2.40473E-01-1.64108E+01 3.95945E+00 4.13328E-02-2.80267E+00-7.33888E-01-5.79438E-03 5.11655E-01 9.09019E+00-4.73531E+02-5.11499E+02



 n o d a l   p r i n t   o u t   f o r   t i m e  s t e p    9801                              ( at time 4.8995097E+00 )

 nodal point  x-rot      y-rot       z-rot       x-rot vel   y-rot vel   z-rot vel   x-rot acc   y-rot acc   z-rot acc
    46679  1.00695E-04 5.07561E-03 1.11181E-04 1.28981E-04 6.60630E-03 1.18078E-04 1.13215E-04 5.65001E-03-1.66219E-04



 n o d a l   p r i n t   o u t   f o r   t i m e  s t e p   10001                              ( at time 4.9994997E+00 )

 nodal point  x-disp     y-disp      z-disp      x-vel       y-vel       z-vel      x-accl      y-accl      z-accl      x-coor      y-coor      z-coor
    46679  2.36456E+01 2.44554E-01-1.66886E+01 3.88558E+00 3.93910E-02-2.75161E+00-7.38785E-01-1.94198E-02 5.10611E-01 9.09014E+00-4.73531E+02-5.11985E+02



 n o d a l   p r i n t   o u t   f o r   t i m e  s t e p   10001                              ( at time 4.9994997E+00 )

 nodal point  x-rot      y-rot       z-rot       x-rot vel   y-rot vel   z-rot vel   x-rot acc   y-rot acc   z-rot acc
    46679  1.14766E-04 5.76120E-03 1.22059E-04 1.47721E-04 7.12069E-03 1.27761E-04 1.87416E-04 5.14440E-03 9.68354E-05



 n o d a l   p r i n t   o u t   f o r   t i m e  s t e p   10202                              ( at time 5.0999896E+00 )

 nodal point  x-disp     y-disp      z-disp      x-vel       y-vel       z-vel      x-accl      y-accl      z-accl      x-coor      y-coor      z-coor
    46679  2.40322E+01 2.48499E-01-1.69622E+01 3.81140E+00 4.00693E-02-2.69467E+00-7.38170E-01 6.74933E-03 5.66653E-01 9.09017E+00-4.73532E+02-5.12463E+02



 n o d a l   p r i n t   o u t   f o r   t i m e  s t e p   10202                              ( at time 5.0999896E+00 )

 nodal point  x-rot      y-rot       z-rot       x-rot vel   y-rot vel   z-rot vel   x-rot acc   y-rot acc   z-rot acc
    46679  1.30336E-04 6.50131E-03 1.35875E-04 1.58860E-04 7.62587E-03 1.38765E-04 1.10847E-04 5.02717E-03 1.09509E-04



 n o d a l   p r i n t   o u t   f o r   t i m e  s t e p   10402                              ( at time 5.1999796E+00 )

 nodal point  x-disp     y-disp      z-disp      x-vel       y-vel       z-vel      x-accl      y-accl      z-accl      x-coor      y-coor      z-coor
    46679  2.44093E+01 2.52313E-01-1.72288E+01 3.73315E+00 3.64829E-02-2.63725E+00-7.82613E-01-3.58671E-02 5.74253E-01 9.09023E+00-4.73532E+02-5.12930E+02



 n o d a l   p r i n t   o u t   f o r   t i m e  s t e p   10402                              ( at time 5.1999796E+00 )

 nodal point  x-rot      y-rot       z-rot       x-rot vel   y-rot vel   z-rot vel   x-rot acc   y-rot acc   z-rot acc
    46679  1.44723E-04 7.29389E-03 1.52411E-04 1.43414E-04 8.18050E-03 1.96945E-04-1.54479E-04 5.54685E-03 5.81856E-04



 n o d a l   p r i n t   o u t   f o r   t i m e  s t e p   10602                              ( at time 5.2999696E+00 )

 nodal point  x-disp     y-disp      z-disp      x-vel       y-vel       z-vel      x-accl      y-accl      z-accl      x-coor      y-coor      z-coor
    46679  2.47784E+01 2.56070E-01-1.74896E+01 3.65010E+00 3.57274E-02-2.57836E+00-8.30596E-01-7.55569E-03 5.88944E-01 9.09027E+00-4.73531E+02-5.13387E+02



 n o d a l   p r i n t   o u t   f o r   t i m e  s t e p   10602                              ( at time 5.2999696E+00 )

 nodal point  x-rot      y-rot       z-rot       x-rot vel   y-rot vel   z-rot vel   x-rot acc   y-rot acc   z-rot acc
    46679  1.60121E-04 8.14057E-03 1.70187E-04 1.47154E-04 8.70929E-03 1.82245E-04 3.74007E-05 5.28839E-03-1.47021E-04



 n o d a l   p r i n t   o u t   f o r   t i m e  s t e p   10802                              ( at time 5.3999596E+00 )

 nodal point  x-disp     y-disp      z-disp      x-vel       y-vel       z-vel      x-accl      y-accl      z-accl      x-coor      y-coor      z-coor
    46679  2.51394E+01 2.59726E-01-1.77442E+01 3.56943E+00 3.74906E-02-2.51686E+00-8.06752E-01 1.76341E-02 6.15077E-01 9.09033E+00-4.73530E+02-5.13834E+02



 n o d a l   p r i n t   o u t   f o r   t i m e  s t e p   10802                              ( at time 5.3999596E+00 )

 nodal point  x-rot      y-rot       z-rot       x-rot vel   y-rot vel   z-rot vel   x-rot acc   y-rot acc   z-rot acc
    46679  1.76001E-04 9.04173E-03 1.89859E-04 1.49354E-04 9.25867E-03 1.76288E-04 2.20066E-05 5.49442E-03-5.95706E-05



 n o d a l   p r i n t   o u t   f o r   t i m e  s t e p   11002                              ( at time 5.4999496E+00 )

 nodal point  x-disp     y-disp      z-disp      x-vel       y-vel       z-vel      x-accl      y-accl      z-accl      x-coor      y-coor      z-coor
    46679  2.54922E+01 2.63136E-01-1.79924E+01 3.48685E+00 3.21800E-02-2.45071E+00-8.25942E-01-5.31114E-02 6.61588E-01 9.09054E+00-4.73529E+02-5.14271E+02



 n o d a l   p r i n t   o u t   f o r   t i m e  s t e p   11002                              ( at time 5.4999496E+00 )

 nodal point  x-rot      y-rot       z-rot       x-rot vel   y-rot vel   z-rot vel   x-rot acc   y-rot acc   z-rot acc
    46679  1.92500E-04 9.99890E-03 2.12059E-04 2.00920E-04 9.84533E-03 2.60396E-04 5.15716E-04 5.86711E-03 8.41164E-04



 n o d a l   p r i n t   o u t   f o r   t i m e  s t e p   11202                              ( at time 5.5999396E+00 )

 nodal point  x-disp     y-disp      z-disp      x-vel       y-vel       z-vel      x-accl      y-accl      z-accl      x-coor      y-coor      z-coor
    46679  2.58364E+01 2.66443E-01-1.82342E+01 3.40060E+00 3.09257E-02-2.38465E+00-8.62593E-01-1.25445E-02 6.60653E-01 9.09078E+00-4.73527E+02-5.14697E+02



 n o d a l   p r i n t   o u t   f o r   t i m e  s t e p   11202                              ( at time 5.5999396E+00 )

 nodal point  x-rot      y-rot       z-rot       x-rot vel   y-rot vel   z-rot vel   x-rot acc   y-rot acc   z-rot acc
    46679  2.09670E-04 1.10124E-02 2.37421E-04 1.78171E-04 1.04019E-02 2.64119E-04-2.27518E-04 5.56637E-03 3.72337E-05



 n o d a l   p r i n t   o u t   f o r   t i m e  s t e p   11402                              ( at time 5.6999296E+00 )

 nodal point  x-disp     y-disp      z-disp      x-vel       y-vel       z-vel      x-accl      y-accl      z-accl      x-coor      y-coor      z-coor
    46679  2.61720E+01 2.69396E-01-1.84691E+01 3.31177E+00 3.14283E-02-2.31400E+00-8.88304E-01 5.02679E-03 7.06538E-01 9.09127E+00-4.73525E+02-5.15112E+02



 n o d a l   p r i n t   o u t   f o r   t i m e  s t e p   11402                              ( at time 5.6999296E+00 )

 nodal point  x-rot      y-rot       z-rot       x-rot vel   y-rot vel   z-rot vel   x-rot acc   y-rot acc   z-rot acc
    46679  2.29818E-04 1.20827E-02 2.64932E-04 1.75561E-04 1.09708E-02 2.49448E-04-2.61034E-05 5.68921E-03-1.46729E-04



 n o d a l   p r i n t   o u t   f o r   t i m e  s t e p   11602                              ( at time 5.7999195E+00 )

 nodal point  x-disp     y-disp      z-disp      x-vel       y-vel       z-vel      x-accl      y-accl      z-accl      x-coor      y-coor      z-coor
    46679  2.64987E+01 2.72368E-01-1.86968E+01 3.22220E+00 2.91468E-02-2.24154E+00-8.95872E-01-2.28171E-02 7.24673E-01 9.09166E+00-4.73522E+02-5.15516E+02



 n o d a l   p r i n t   o u t   f o r   t i m e  s t e p   11602                              ( at time 5.7999195E+00 )

 nodal point  x-rot      y-rot       z-rot       x-rot vel   y-rot vel   z-rot vel   x-rot acc   y-rot acc   z-rot acc
    46679  2.47619E-04 1.32117E-02 2.94142E-04 1.82273E-04 1.15839E-02 3.17994E-04 6.71243E-05 6.13213E-03 6.85537E-04



 n o d a l   p r i n t   o u t   f o r   t i m e  s t e p   11802                              ( at time 5.8999095E+00 )

 nodal point  x-disp     y-disp      z-disp      x-vel       y-vel       z-vel      x-accl      y-accl      z-accl      x-coor      y-coor      z-coor
    46679  2.68164E+01 2.75185E-01-1.89171E+01 3.13227E+00 2.69920E-02-2.16475E+00-8.99358E-01-2.15509E-02 7.68005E-01 9.09210E+00-4.73517E+02-5.15908E+02



 n o d a l   p r i n t   o u t   f o r   t i m e  s t e p   11802                              ( at time 5.8999095E+00 )

 nodal point  x-rot      y-rot       z-rot       x-rot vel   y-rot vel   z-rot vel   x-rot acc   y-rot acc   z-rot acc
    46679  2.63121E-04 1.43966E-02 3.28518E-04 1.48867E-04 1.21462E-02 3.87582E-04-3.34092E-04 5.62338E-03 6.95944E-04



 n o d a l   p r i n t   o u t   f o r   t i m e  s t e p   12002                              ( at time 5.9998995E+00 )

 nodal point  x-disp     y-disp      z-disp      x-vel       y-vel       z-vel      x-accl      y-accl      z-accl      x-coor      y-coor      z-coor
    46679  2.71248E+01 2.77802E-01-1.91297E+01 3.03814E+00 2.78423E-02-2.08575E+00-9.41419E-01 8.50382E-03 7.90085E-01 9.09265E+00-4.73512E+02-5.16289E+02



 n o d a l   p r i n t   o u t   f o r   t i m e  s t e p   12002                              ( at time 5.9998995E+00 )

 nodal point  x-rot      y-rot       z-rot       x-rot vel   y-rot vel   z-rot vel   x-rot acc   y-rot acc   z-rot acc
    46679  2.79582E-04 1.56395E-02 3.65748E-04 1.73712E-04 1.27512E-02 3.49717E-04 2.48479E-04 6.05072E-03-3.78681E-04



 n o d a l   p r i n t   o u t   f o r   t i m e  s t e p   12202                              ( at time 6.0998895E+00 )

 nodal point  x-disp     y-disp      z-disp      x-vel       y-vel       z-vel      x-accl      y-accl      z-accl      x-coor      y-coor      z-coor
    46679  2.74237E+01 2.80402E-01-1.93344E+01 2.94340E+00 2.48122E-02-2.00493E+00-9.47419E-01-3.03035E-02 8.08224E-01 9.09311E+00-4.73505E+02-5.16657E+02



 n o d a l   p r i n t   o u t   f o r   t i m e  s t e p   12202                              ( at time 6.0998895E+00 )

 nodal point  x-rot      y-rot       z-rot       x-rot vel   y-rot vel   z-rot vel   x-rot acc   y-rot acc   z-rot acc
    46679  2.95475E-04 1.69406E-02 4.04253E-04 1.22565E-04 1.32910E-02 3.88103E-04-5.11522E-04 5.39887E-03 3.83888E-04



 n o d a l   p r i n t   o u t   f o r   t i m e  s t e p   12402                              ( at time 6.1998795E+00 )

 nodal point  x-disp     y-disp      z-disp      x-vel       y-vel       z-vel      x-accl      y-accl      z-accl      x-coor      y-coor      z-coor
    46679  2.77132E+01 2.82771E-01-1.95304E+01 2.84580E+00 2.38172E-02-1.92032E+00-9.76182E-01-9.95072E-03 8.46159E-01 9.09370E+00-4.73496E+02-5.17013E+02



 n o d a l   p r i n t   o u t   f o r   t i m e  s t e p   12402                              ( at time 6.1998795E+00 )

 nodal point  x-rot      y-rot       z-rot       x-rot vel   y-rot vel   z-rot vel   x-rot acc   y-rot acc   z-rot acc
    46679  3.09279E-04 1.83014E-02 4.40951E-04 1.76236E-04 1.38646E-02 3.67464E-04 5.36771E-04 5.73632E-03-2.06405E-04



 n o d a l   p r i n t   o u t   f o r   t i m e  s t e p   12602                              ( at time 6.2998695E+00 )

 nodal point  x-disp     y-disp      z-disp      x-vel       y-vel       z-vel      x-accl      y-accl      z-accl      x-coor      y-coor      z-coor
    46679  2.79930E+01 2.85307E-01-1.97180E+01 2.74749E+00 2.43282E-02-1.83112E+00-9.83152E-01 5.10979E-03 8.92162E-01 9.09403E+00-4.73486E+02-5.17356E+02



 n o d a l   p r i n t   o u t   f o r   t i m e  s t e p   12602                              ( at time 6.2998695E+00 )

 nodal point  x-rot      y-rot       z-rot       x-rot vel   y-rot vel   z-rot vel   x-rot acc   y-rot acc   z-rot acc
    46679  3.24532E-04 1.97195E-02 4.78129E-04 1.45794E-04 1.45077E-02 3.88369E-04-3.04453E-04 6.43105E-03 2.09070E-04



 n o d a l   p r i n t   o u t   f o r   t i m e  s t e p   12802                              ( at time 6.3998595E+00 )

 nodal point  x-disp     y-disp      z-disp      x-vel       y-vel       z-vel      x-accl      y-accl      z-accl      x-coor      y-coor      z-coor
    46679  2.82627E+01 2.87445E-01-1.98966E+01 2.64915E+00 1.90649E-02-1.74064E+00-9.83481E-01-5.26385E-02 9.04843E-01 9.09464E+00-4.73474E+02-5.17685E+02



 n o d a l   p r i n t   o u t   f o r   t i m e  s t e p   12802                              ( at time 6.3998595E+00 )

 nodal point  x-rot      y-rot       z-rot       x-rot vel   y-rot vel   z-rot vel   x-rot acc   y-rot acc   z-rot acc
    46679  3.39299E-04 2.11964E-02 5.15074E-04 1.23151E-04 1.50687E-02 3.60090E-04-2.26454E-04 5.61114E-03-2.82816E-04



 n o d a l   p r i n t   o u t   f o r   t i m e  s t e p   13002                              ( at time 6.4998495E+00 )

 nodal point  x-disp     y-disp      z-disp      x-vel       y-vel       z-vel      x-accl      y-accl      z-accl      x-coor      y-coor      z-coor
    46679  2.85224E+01 2.89403E-01-2.00660E+01 2.54572E+00 1.85516E-02-1.64539E+00-1.03442E+00-5.13289E-03 9.52576E-01 9.09532E+00-4.73461E+02-5.18002E+02



 n o d a l   p r i n t   o u t   f o r   t i m e  s t e p   13002                              ( at time 6.4998495E+00 )

 nodal point  x-rot      y-rot       z-rot       x-rot vel   y-rot vel   z-rot vel   x-rot acc   y-rot acc   z-rot acc
    46679  3.52142E-04 2.27282E-02 5.52450E-04 1.51623E-04 1.56187E-02 3.92110E-04 2.84745E-04 5.50003E-03 3.20228E-04



 n o d a l   p r i n t   o u t   f o r   t i m e  s t e p   13202                              ( at time 6.5998395E+00 )

 nodal point  x-disp     y-disp      z-disp      x-vel       y-vel       z-vel      x-accl      y-accl      z-accl      x-coor      y-coor      z-coor
    46679  2.87718E+01 2.91368E-01-2.02256E+01 2.44300E+00 1.92481E-02-1.54877E+00-1.02729E+00 6.96559E-03 9.66330E-01 9.09589E+00-4.73444E+02-5.18304E+02



 n o d a l   p r i n t   o u t   f o r   t i m e  s t e p   13202                              ( at time 6.5998395E+00 )

 nodal point  x-rot      y-rot       z-rot       x-rot vel   y-rot vel   z-rot vel   x-rot acc   y-rot acc   z-rot acc
    46679  3.67634E-04 2.43169E-02 5.89614E-04 1.49387E-04 1.61507E-02 3.74891E-04-2.23570E-05 5.32124E-03-1.72206E-04



 n o d a l   p r i n t   o u t   f o r   t i m e  s t e p   13402                              ( at time 6.6998295E+00 )

 nodal point  x-disp     y-disp      z-disp      x-vel       y-vel       z-vel      x-accl      y-accl      z-accl      x-coor      y-coor      z-coor
    46679  2.90106E+01 2.93239E-01-2.03753E+01 2.33483E+00 1.81319E-02-1.44622E+00-1.08178E+00-1.11629E-02 1.02565E+00 9.09643E+00-4.73426E+02-5.18593E+02



 n o d a l   p r i n t   o u t   f o r   t i m e  s t e p   13402                              ( at time 6.6998295E+00 )

 nodal point  x-rot      y-rot       z-rot       x-rot vel   y-rot vel   z-rot vel   x-rot acc   y-rot acc   z-rot acc
    46679  3.79711E-04 2.59597E-02 6.27169E-04 1.02474E-04 1.67169E-02 3.71532E-04-4.69175E-04 5.66173E-03-3.35950E-05



 n o d a l   p r i n t   o u t   f o r   t i m e  s t e p   13602                              ( at time 6.7998195E+00 )

 nodal point  x-disp     y-disp      z-disp      x-vel       y-vel       z-vel      x-accl      y-accl      z-accl      x-coor      y-coor      z-coor
    46679  2.92389E+01 2.94962E-01-2.05147E+01 2.22846E+00 1.63318E-02-1.34029E+00-1.06390E+00-1.80030E-02 1.05933E+00 9.09701E+00-4.73404E+02-5.18866E+02



 n o d a l   p r i n t   o u t   f o r   t i m e  s t e p   13602                              ( at time 6.7998195E+00 )

 nodal point  x-rot      y-rot       z-rot       x-rot vel   y-rot vel   z-rot vel   x-rot acc   y-rot acc   z-rot acc
    46679  3.91078E-04 2.76546E-02 6.65296E-04 8.58842E-05 1.72228E-02 3.84727E-04-1.65920E-04 5.05962E-03 1.31966E-04



 n o d a l   p r i n t   o u t   f o r   t i m e  s t e p   13802                              ( at time 6.8998095E+00 )

 nodal point  x-disp     y-disp      z-disp      x-vel       y-vel       z-vel      x-accl      y-accl      z-accl      x-coor      y-coor      z-coor
    46679  2.94565E+01 2.96614E-01-2.06434E+01 2.12414E+00 1.51550E-02-1.23286E+00-1.04331E+00-1.17688E-02 1.07441E+00 9.09754E+00-4.73380E+02-5.19126E+02



 n o d a l   p r i n t   o u t   f o r   t i m e  s t e p   13802                              ( at time 6.8998095E+00 )

 nodal point  x-rot      y-rot       z-rot       x-rot vel   y-rot vel   z-rot vel   x-rot acc   y-rot acc   z-rot acc
    46679  4.01886E-04 2.93980E-02 7.02239E-04 1.41635E-04 1.76802E-02 3.61268E-04 5.57567E-04 4.57473E-03-2.34611E-04



 n o d a l   p r i n t   o u t   f o r   t i m e  s t e p   14002                              ( at time 6.9997995E+00 )

 nodal point  x-disp     y-disp      z-disp      x-vel       y-vel       z-vel      x-accl      y-accl      z-accl      x-coor      y-coor      z-coor
    46679  2.96634E+01 2.98111E-01-2.07611E+01 2.01243E+00 1.49570E-02-1.12090E+00-1.11718E+00-1.98031E-03 1.11970E+00 9.09810E+00-4.73353E+02-5.19370E+02



 n o d a l   p r i n t   o u t   f o r   t i m e  s t e p   14002                              ( at time 6.9997995E+00 )

 nodal point  x-rot      y-rot       z-rot       x-rot vel   y-rot vel   z-rot vel   x-rot acc   y-rot acc   z-rot acc
    46679  4.13626E-04 3.11886E-02 7.39310E-04 9.68343E-05 1.81710E-02 3.74252E-04-4.48055E-04 4.90827E-03 1.29853E-04



 n o d a l   p r i n t   o u t   f o r   t i m e  s t e p   14202                              ( at time 7.0997895E+00 )

 nodal point  x-disp     y-disp      z-disp      x-vel       y-vel       z-vel      x-accl      y-accl      z-accl      x-coor      y-coor      z-coor
    46679  2.98592E+01 2.99452E-01-2.08675E+01 1.90266E+00 1.19029E-02-1.00646E+00-1.09780E+00-3.05440E-02 1.14452E+00 9.09870E+00-4.73322E+02-5.19599E+02



 n o d a l   p r i n t   o u t   f o r   t i m e  s t e p   14202                              ( at time 7.0997895E+00 )

 nodal point  x-rot      y-rot       z-rot       x-rot vel   y-rot vel   z-rot vel   x-rot acc   y-rot acc   z-rot acc
    46679  4.23071E-04 3.30259E-02 7.77516E-04 9.14594E-05 1.85818E-02 3.54845E-04-5.37534E-05 4.10839E-03-1.94094E-04



 n o d a l   p r i n t   o u t   f o r   t i m e  s t e p   14402                              ( at time 7.1997794E+00 )

 nodal point  x-disp     y-disp      z-disp      x-vel       y-vel       z-vel      x-accl      y-accl      z-accl      x-coor      y-coor      z-coor
    46679  3.00442E+01 3.00745E-01-2.09623E+01 1.79484E+00 1.30763E-02-8.90560E-01-1.07835E+00 1.17345E-02 1.15915E+00 9.09922E+00-4.73287E+02-5.19812E+02



 n o d a l   p r i n t   o u t   f o r   t i m e  s t e p   14402                              ( at time 7.1997794E+00 )

 nodal point  x-rot      y-rot       z-rot       x-rot vel   y-rot vel   z-rot vel   x-rot acc   y-rot acc   z-rot acc
    46679  4.31659E-04 3.49022E-02 8.13660E-04 7.52586E-05 1.89565E-02 3.24690E-04-1.62025E-04 3.74811E-03-3.01579E-04



 n o d a l   p r i n t   o u t   f o r   t i m e  s t e p   14602                              ( at time 7.2997694E+00 )

 nodal point  x-disp     y-disp      z-disp      x-vel       y-vel       z-vel      x-accl      y-accl      z-accl      x-coor      y-coor      z-coor
    46679  3.02182E+01 3.01830E-01-2.10453E+01 1.68475E+00 1.04320E-02-7.71114E-01-1.10101E+00-2.64458E-02 1.19459E+00 9.09982E+00-4.73249E+02-5.20010E+02



 n o d a l   p r i n t   o u t   f o r   t i m e  s t e p   14602                              ( at time 7.2997694E+00 )

 nodal point  x-rot      y-rot       z-rot       x-rot vel   y-rot vel   z-rot vel   x-rot acc   y-rot acc   z-rot acc
    46679  4.38163E-04 3.68184E-02 8.49445E-04 8.21956E-05 1.93810E-02 3.71048E-04 6.93768E-05 4.24458E-03 4.63629E-04



 n o d a l   p r i n t   o u t   f o r   t i m e  s t e p   14802                              ( at time 7.3997594E+00 )

 nodal point  x-disp     y-disp      z-disp      x-vel       y-vel       z-vel      x-accl      y-accl      z-accl      x-coor      y-coor      z-coor
    46679  3.03810E+01 3.02822E-01-2.11165E+01 1.57359E+00 9.46095E-03-6.52466E-01-1.11170E+00-9.71103E-03 1.18659E+00 9.10040E+00-4.73206E+02-5.20193E+02



 n o d a l   p r i n t   o u t   f o r   t i m e  s t e p   14802                              ( at time 7.3997594E+00 )

 nodal point  x-rot      y-rot       z-rot       x-rot vel   y-rot vel   z-rot vel   x-rot acc   y-rot acc   z-rot acc
    46679  4.44643E-04 3.87752E-02 8.85285E-04 6.42584E-05 1.97774E-02 3.46451E-04-1.79390E-04 3.96476E-03-2.45998E-04



 n o d a l   p r i n t   o u t   f o r   t i m e  s t e p   15002                              ( at time 7.4997494E+00 )

 nodal point  x-disp     y-disp      z-disp      x-vel       y-vel       z-vel      x-accl      y-accl      z-accl      x-coor      y-coor      z-coor
    46679  3.05327E+01 3.03748E-01-2.11757E+01 1.46208E+00 7.87732E-03-5.29140E-01-1.11516E+00-1.58379E-02 1.23338E+00 9.10091E+00-4.73160E+02-5.20359E+02



 n o d a l   p r i n t   o u t   f o r   t i m e  s t e p   15002                              ( at time 7.4997494E+00 )

 nodal point  x-rot      y-rot       z-rot       x-rot vel   y-rot vel   z-rot vel   x-rot acc   y-rot acc   z-rot acc
    46679  4.50569E-04 4.07646E-02 9.20834E-04 1.31188E-05 2.00869E-02 3.55723E-04-5.11446E-04 3.09536E-03 9.27326E-05



 n o d a l   p r i n t   o u t   f o r   t i m e  s t e p   15202                              ( at time 7.5997394E+00 )

 nodal point  x-disp     y-disp      z-disp      x-vel       y-vel       z-vel      x-accl      y-accl      z-accl      x-coor      y-coor      z-coor
    46679  3.06733E+01 3.04503E-01-2.12227E+01 1.35329E+00 7.46099E-03-4.11044E-01-1.08802E+00-4.16372E-03 1.18108E+00 9.10147E+00-4.73110E+02-5.20510E+02



 n o d a l   p r i n t   o u t   f o r   t i m e  s t e p   15202                              ( at time 7.5997394E+00 )

 nodal point  x-rot      y-rot       z-rot       x-rot vel   y-rot vel   z-rot vel   x-rot acc   y-rot acc   z-rot acc
    46679  4.53015E-04 4.27886E-02 9.55008E-04 2.80683E-05 2.04171E-02 3.39965E-04 1.49510E-04 3.30228E-03-1.57595E-04



 n o d a l   p r i n t   o u t   f o r   t i m e  s t e p   15402                              ( at time 7.6997294E+00 )

 nodal point  x-disp     y-disp      z-disp      x-vel       y-vel       z-vel      x-accl      y-accl      z-accl      x-coor      y-coor      z-coor
    46679  3.08030E+01 3.05151E-01-2.12578E+01 1.24061E+00 5.62302E-03-2.91618E-01-1.12690E+00-1.83815E-02 1.19438E+00 9.10201E+00-4.73055E+02-5.20645E+02



 n o d a l   p r i n t   o u t   f o r   t i m e  s t e p   15402                              ( at time 7.6997294E+00 )

 nodal point  x-rot      y-rot       z-rot       x-rot vel   y-rot vel   z-rot vel   x-rot acc   y-rot acc   z-rot acc
    46679  4.54254E-04 4.48466E-02 9.88406E-04-2.36959E-06 2.07366E-02 3.37796E-04-3.04409E-04 3.19496E-03-2.16988E-05



 n o d a l   p r i n t   o u t   f o r   t i m e  s t e p   15602                              ( at time 7.7997194E+00 )

 nodal point  x-disp     y-disp      z-disp      x-vel       y-vel       z-vel      x-accl      y-accl      z-accl      x-coor      y-coor      z-coor
    46679  3.09216E+01 3.05539E-01-2.12810E+01 1.13092E+00 3.50341E-03-1.72947E-01-1.09709E+00-2.11983E-02 1.18684E+00 9.10269E+00-4.72996E+02-5.20764E+02



 n o d a l   p r i n t   o u t   f o r   t i m e  s t e p   15602                              ( at time 7.7997194E+00 )

 nodal point  x-rot      y-rot       z-rot       x-rot vel   y-rot vel   z-rot vel   x-rot acc   y-rot acc   z-rot acc
    46679  4.54932E-04 4.69345E-02 1.02248E-03-3.00365E-06 2.10032E-02 3.19202E-04-6.34128E-06 2.66657E-03-1.85960E-04



 n o d a l   p r i n t   o u t   f o r   t i m e  s t e p   15802                              ( at time 7.8997094E+00 )

 nodal point  x-disp     y-disp      z-disp      x-vel       y-vel       z-vel      x-accl      y-accl      z-accl      x-coor      y-coor      z-coor
    46679  3.10294E+01 3.05822E-01-2.12923E+01 1.02292E+00 2.21348E-03-5.47435E-02-1.08009E+00-1.29006E-02 1.18215E+00 9.10336E+00-4.72934E+02-5.20869E+02



 n o d a l   p r i n t   o u t   f o r   t i m e  s t e p   15802                              ( at time 7.8997094E+00 )

 nodal point  x-rot      y-rot       z-rot       x-rot vel   y-rot vel   z-rot vel   x-rot acc   y-rot acc   z-rot acc
    46679  4.55309E-04 4.90513E-02 1.05322E-03-9.03766E-06 2.13141E-02 3.08972E-04-6.03462E-05 3.10989E-03-1.02301E-04



 n o d a l   p r i n t   o u t   f o r   t i m e  s t e p   16002                              ( at time 7.9996994E+00 )

 nodal point  x-disp     y-disp      z-disp      x-vel       y-vel       z-vel      x-accl      y-accl      z-accl      x-coor      y-coor      z-coor
    46679  3.11263E+01 3.05882E-01-2.12918E+01 9.15837E-01-1.44608E-03 6.50109E-02-1.07091E+00-3.65991E-02 1.19766E+00 9.10412E+00-4.72867E+02-5.20957E+02



 n o d a l   p r i n t   o u t   f o r   t i m e  s t e p   16002                              ( at time 7.9996994E+00 )

 nodal point  x-rot      y-rot       z-rot       x-rot vel   y-rot vel   z-rot vel   x-rot acc   y-rot acc   z-rot acc
    46679  4.53354E-04 5.11980E-02 1.08497E-03-3.15109E-05 2.16109E-02 3.14725E-04-2.24754E-04 2.96802E-03 5.75290E-05



 n o d a l   p r i n t   o u t   f o r   t i m e  s t e p   16202                              ( at time 8.0996894E+00 )

 nodal point  x-disp     y-disp      z-disp      x-vel       y-vel       z-vel      x-accl      y-accl      z-accl      x-coor      y-coor      z-coor
    46679  3.12123E+01 3.05899E-01-2.12796E+01 8.06784E-01 3.18655E-04 1.75896E-01-1.09064E+00 1.76492E-02 1.10896E+00 9.10481E+00-4.72796E+02-5.21031E+02



 n o d a l   p r i n t   o u t   f o r   t i m e  s t e p   16202                              ( at time 8.0996894E+00 )

 nodal point  x-rot      y-rot       z-rot       x-rot vel   y-rot vel   z-rot vel   x-rot acc   y-rot acc   z-rot acc
    46679  4.48173E-04 5.33737E-02 1.11485E-03-3.58478E-05 2.18858E-02 3.02006E-04-4.33739E-05 2.74911E-03-1.27203E-04



 n o d a l   p r i n t   o u t   f o r   t i m e  s t e p   16402                              ( at time 8.1996794E+00 )

 nodal point  x-disp     y-disp      z-disp      x-vel       y-vel       z-vel      x-accl      y-accl      z-accl      x-coor      y-coor      z-coor
    46679  3.12879E+01 3.05847E-01-2.12563E+01 7.02822E-01 1.52999E-04 2.91165E-01-1.03972E+00-1.65673E-03 1.15281E+00 9.10545E+00-4.72721E+02-5.21089E+02



 n o d a l   p r i n t   o u t   f o r   t i m e  s t e p   16402                              ( at time 8.1996794E+00 )

 nodal point  x-rot      y-rot       z-rot       x-rot vel   y-rot vel   z-rot vel   x-rot acc   y-rot acc   z-rot acc
    46679  4.45010E-04 5.55747E-02 1.14425E-03-3.99883E-05 2.21606E-02 2.71978E-04-4.14092E-05 2.74792E-03-3.00310E-04



 n o d a l   p r i n t   o u t   f o r   t i m e  s t e p   16602                              ( at time 8.2996694E+00 )

 nodal point  x-disp     y-disp      z-disp      x-vel       y-vel       z-vel      x-accl      y-accl      z-accl      x-coor      y-coor      z-coor
    46679  3.13530E+01 3.05612E-01-2.12217E+01 6.00097E-01-3.91307E-03 3.99706E-01-1.02735E+00-4.06648E-02 1.08553E+00 9.10616E+00-4.72642E+02-5.21133E+02



 n o d a l   p r i n t   o u t   f o r   t i m e  s t e p   16602                              ( at time 8.2996694E+00 )

 nodal point  x-rot      y-rot       z-rot       x-rot vel   y-rot vel   z-rot vel   x-rot acc   y-rot acc   z-rot acc
    46679  4.36325E-04 5.78036E-02 1.17217E-03-1.04355E-04 2.24603E-02 2.81207E-04-6.43730E-04 2.99763E-03 9.23014E-05



 n o d a l   p r i n t   o u t   f o r   t i m e  s t e p   16802                              ( at time 8.3996594E+00 )

 nodal point  x-disp     y-disp      z-disp      x-vel       y-vel       z-vel      x-accl      y-accl      z-accl      x-coor      y-coor      z-coor
    46679  3.14077E+01 3.05261E-01-2.11766E+01 4.97843E-01-3.82311E-03 5.01177E-01-1.02264E+00 8.99751E-04 1.01481E+00 9.10688E+00-4.72560E+02-5.21163E+02



 n o d a l   p r i n t   o u t   f o r   t i m e  s t e p   16802                              ( at time 8.3996594E+00 )

 nodal point  x-rot      y-rot       z-rot       x-rot vel   y-rot vel   z-rot vel   x-rot acc   y-rot acc   z-rot acc
    46679  4.27675E-04 6.00611E-02 1.19963E-03-4.21431E-05 2.27001E-02 2.80378E-04 6.22180E-04 2.39814E-03-8.29543E-06



 n o d a l   p r i n t   o u t   f o r   t i m e  s t e p   17002                              ( at time 8.4996494E+00 )

 nodal point  x-disp     y-disp      z-disp      x-vel       y-vel       z-vel      x-accl      y-accl      z-accl      x-coor      y-coor      z-coor
    46679  3.14525E+01 3.04819E-01-2.11210E+01 4.01182E-01-4.09724E-03 6.07846E-01-9.66713E-01-2.74165E-03 1.06680E+00 9.10758E+00-4.72474E+02-5.21178E+02



 n o d a l   p r i n t   o u t   f o r   t i m e  s t e p   17002                              ( at time 8.4996494E+00 )

 nodal point  x-rot      y-rot       z-rot       x-rot vel   y-rot vel   z-rot vel   x-rot acc   y-rot acc   z-rot acc
    46679  4.19993E-04 6.23424E-02 1.22650E-03-8.61897E-05 2.29462E-02 2.66807E-04-4.40511E-04 2.46142E-03-1.35717E-04



 n o d a l   p r i n t   o u t   f o r   t i m e  s t e p   17202                              ( at time 8.5996394E+00 )

 nodal point  x-disp     y-disp      z-disp      x-vel       y-vel       z-vel      x-accl      y-accl      z-accl      x-coor      y-coor      z-coor
    46679  3.14879E+01 3.04147E-01-2.10558E+01 3.06092E-01-8.74927E-03 6.98460E-01-9.50991E-01-4.65249E-02 9.06229E-01 9.10841E+00-4.72384E+02-5.21181E+02



 n o d a l   p r i n t   o u t   f o r   t i m e  s t e p   17202                              ( at time 8.5996394E+00 )

 nodal point  x-rot      y-rot       z-rot       x-rot vel   y-rot vel   z-rot vel   x-rot acc   y-rot acc   z-rot acc
    46679  4.10618E-04 6.46473E-02 1.25326E-03-1.32750E-04 2.31788E-02 2.55071E-04-4.65654E-04 2.32655E-03-1.17372E-04



 n o d a l   p r i n t   o u t   f o r   t i m e  s t e p   17402                              ( at time 8.6996293E+00 )

 nodal point  x-disp     y-disp      z-disp      x-vel       y-vel       z-vel      x-accl      y-accl      z-accl      x-coor      y-coor      z-coor
    46679  3.15138E+01 3.03418E-01-2.09812E+01 2.13443E-01-8.97658E-03 7.91319E-01-9.26576E-01-2.27338E-03 9.28681E-01 9.10919E+00-4.72292E+02-5.21171E+02



 n o d a l   p r i n t   o u t   f o r   t i m e  s t e p   17402                              ( at time 8.6996293E+00 )

 nodal point  x-rot      y-rot       z-rot       x-rot vel   y-rot vel   z-rot vel   x-rot acc   y-rot acc   z-rot acc
    46679  3.96866E-04 6.69777E-02 1.27682E-03-1.24405E-04 2.34395E-02 2.52396E-04 8.34659E-05 2.60668E-03-2.67521E-05



 n o d a l   p r i n t   o u t   f o r   t i m e  s t e p   17602                              ( at time 8.7996193E+00 )

 nodal point  x-disp     y-disp      z-disp      x-vel       y-vel       z-vel      x-accl      y-accl      z-accl      x-coor      y-coor      z-coor
    46679  3.15307E+01 3.02579E-01-2.08978E+01 1.26437E-01-7.24813E-03 8.76965E-01-8.70145E-01 1.72863E-02 8.56545E-01 9.11000E+00-4.72197E+02-5.21149E+02



 n o d a l   p r i n t   o u t   f o r   t i m e  s t e p   17602                              ( at time 8.7996193E+00 )

 nodal point  x-rot      y-rot       z-rot       x-rot vel   y-rot vel   z-rot vel   x-rot acc   y-rot acc   z-rot acc
    46679  3.86830E-04 6.93341E-02 1.30162E-03-1.11623E-04 2.36872E-02 2.37066E-04 1.27828E-04 2.47761E-03-1.53322E-04



 n o d a l   p r i n t   o u t   f o r   t i m e  s t e p   17802                              ( at time 8.8996093E+00 )

 nodal point  x-disp     y-disp      z-disp      x-vel       y-vel       z-vel      x-accl      y-accl      z-accl      x-coor      y-coor      z-coor
    46679  3.15393E+01 3.01693E-01-2.08061E+01 4.64385E-02-1.22376E-02 9.55989E-01-8.00070E-01-4.99001E-02 7.90313E-01 9.11076E+00-4.72099E+02-5.21115E+02



 n o d a l   p r i n t   o u t   f o r   t i m e  s t e p   17802                              ( at time 8.8996093E+00 )

 nodal point  x-rot      y-rot       z-rot       x-rot vel   y-rot vel   z-rot vel   x-rot acc   y-rot acc   z-rot acc
    46679  3.73698E-04 7.17093E-02 1.32637E-03-1.66079E-04 2.38214E-02 2.31036E-04-5.44615E-04 1.34225E-03-6.03043E-05



 n o d a l   p r i n t   o u t   f o r   t i m e  s t e p   18002                              ( at time 8.9995993E+00 )

 nodal point  x-disp     y-disp      z-disp      x-vel       y-vel       z-vel      x-accl      y-accl      z-accl      x-coor      y-coor      z-coor
    46679  3.15398E+01 3.00592E-01-2.07066E+01-3.38921E-02-1.24186E-02 1.03415E+00-8.03387E-01-1.80974E-03 7.81715E-01 9.11166E+00-4.71999E+02-5.21071E+02



 n o d a l   p r i n t   o u t   f o r   t i m e  s t e p   18002                              ( at time 8.9995993E+00 )

 nodal point  x-rot      y-rot       z-rot       x-rot vel   y-rot vel   z-rot vel   x-rot acc   y-rot acc   z-rot acc
    46679  3.57504E-04 7.41045E-02 1.34741E-03-1.58662E-04 2.40598E-02 2.22709E-04 7.41795E-05 2.38392E-03-8.32730E-05



 n o d a l   p r i n t   o u t   f o r   t i m e  s t e p   18202                              ( at time 9.0995893E+00 )

 nodal point  x-disp     y-disp      z-disp      x-vel       y-vel       z-vel      x-accl      y-accl      z-accl      x-coor      y-coor      z-coor
    46679  3.15327E+01 2.99444E-01-2.05997E+01-1.06734E-01-8.71469E-03 1.09986E+00-7.28494E-01 3.70427E-02 6.57140E-01 9.11252E+00-4.71896E+02-5.21016E+02



 n o d a l   p r i n t   o u t   f o r   t i m e  s t e p   18202                              ( at time 9.0995893E+00 )

 nodal point  x-rot      y-rot       z-rot       x-rot vel   y-rot vel   z-rot vel   x-rot acc   y-rot acc   z-rot acc
    46679  3.42162E-04 7.65224E-02 1.36991E-03-1.27466E-04 2.42611E-02 1.96414E-04 3.11986E-04 2.01279E-03-2.62982E-04



 n o d a l   p r i n t   o u t   f o r   t i m e  s t e p   18402                              ( at time 9.1995793E+00 )

 nodal point  x-disp     y-disp      z-disp      x-vel       y-vel       z-vel      x-accl      y-accl      z-accl      x-coor      y-coor      z-coor
    46679  3.15184E+01 2.98326E-01-2.04865E+01-1.75570E-01-1.44404E-02 1.16843E+00-6.88428E-01-5.72631E-02 6.85764E-01 9.11328E+00-4.71791E+02-5.20952E+02



 n o d a l   p r i n t   o u t   f o r   t i m e  s t e p   18402                              ( at time 9.1995793E+00 )

 nodal point  x-rot      y-rot       z-rot       x-rot vel   y-rot vel   z-rot vel   x-rot acc   y-rot acc   z-rot acc
    46679  3.26425E-04 7.89568E-02 1.39101E-03-1.98334E-04 2.44579E-02 1.92068E-04-7.08749E-04 1.96820E-03-4.34587E-05



 n o d a l   p r i n t   o u t   f o r   t i m e  s t e p   18602                              ( at time 9.2995693E+00 )

 nodal point  x-disp     y-disp      z-disp      x-vel       y-vel       z-vel      x-accl      y-accl      z-accl      x-coor      y-coor      z-coor
    46679  3.14976E+01 2.96905E-01-2.03667E+01-2.39102E-01-1.51167E-02 1.22523E+00-6.35382E-01-6.76348E-03 5.68068E-01 9.11428E+00-4.71684E+02-5.20879E+02



 n o d a l   p r i n t   o u t   f o r   t i m e  s t e p   18602                              ( at time 9.2995693E+00 )

 nodal point  x-rot      y-rot       z-rot       x-rot vel   y-rot vel   z-rot vel   x-rot acc   y-rot acc   z-rot acc
    46679  3.05283E-04 8.14091E-02 1.40983E-03-2.08618E-04 2.46047E-02 2.15942E-04-1.02850E-04 1.46907E-03 2.38762E-04



 n o d a l   p r i n t   o u t   f o r   t i m e  s t e p   18802                              ( at time 9.3995593E+00 )

 nodal point  x-disp     y-disp      z-disp      x-vel       y-vel       z-vel      x-accl      y-accl      z-accl      x-coor      y-coor      z-coor
    46679  3.14705E+01 2.95463E-01-2.02415E+01-3.00647E-01-1.14649E-02 1.27915E+00-6.15517E-01 3.65216E-02 5.39207E-01 9.11524E+00-4.71576E+02-5.20798E+02



 n o d a l   p r i n t   o u t   f o r   t i m e  s t e p   18802                              ( at time 9.3995593E+00 )

 nodal point  x-rot      y-rot       z-rot       x-rot vel   y-rot vel   z-rot vel   x-rot acc   y-rot acc   z-rot acc
    46679  2.89229E-04 8.38770E-02 1.43159E-03-1.35696E-04 2.47600E-02 1.73997E-04 7.29292E-04 1.55222E-03-4.19495E-04



 n o d a l   p r i n t   o u t   f o r   t i m e  s t e p   19002                              ( at time 9.4995493E+00 )

 nodal point  x-disp     y-disp      z-disp      x-vel       y-vel       z-vel      x-accl      y-accl      z-accl      x-coor      y-coor      z-coor
    46679  3.14377E+01 2.94041E-01-2.01109E+01-3.55888E-01-1.49877E-02 1.32958E+00-5.52460E-01-3.52318E-02 5.04420E-01 9.11612E+00-4.71466E+02-5.20710E+02



 n o d a l   p r i n t   o u t   f o r   t i m e  s t e p   19002                              ( at time 9.4995493E+00 )

 nodal point  x-rot      y-rot       z-rot       x-rot vel   y-rot vel   z-rot vel   x-rot acc   y-rot acc   z-rot acc
    46679  2.72503E-04 8.63610E-02 1.45107E-03-2.13728E-04 2.49094E-02 2.11010E-04-7.80395E-04 1.49466E-03 3.70168E-04



 n o d a l   p r i n t   o u t   f o r   t i m e  s t e p   19202                              ( at time 9.5995393E+00 )

 nodal point  x-disp     y-disp      z-disp      x-vel       y-vel       z-vel      x-accl      y-accl      z-accl      x-coor      y-coor      z-coor
    46679  3.13996E+01 2.92598E-01-1.99755E+01-4.08161E-01-1.66319E-02 1.37738E+00-5.22778E-01-1.64429E-02 4.78052E-01 9.11697E+00-4.71354E+02-5.20614E+02



 n o d a l   p r i n t   o u t   f o r   t i m e  s t e p   19202                              ( at time 9.5995393E+00 )

 nodal point  x-rot      y-rot       z-rot       x-rot vel   y-rot vel   z-rot vel   x-rot acc   y-rot acc   z-rot acc
    46679  2.49522E-04 8.88572E-02 1.46920E-03-2.31832E-04 2.50306E-02 1.89136E-04-1.81057E-04 1.21158E-03-2.18754E-04



 n o d a l   p r i n t   o u t   f o r   t i m e  s t e p   19402                              ( at time 9.6995293E+00 )

 nodal point  x-disp     y-disp      z-disp      x-vel       y-vel       z-vel      x-accl      y-accl      z-accl      x-coor      y-coor      z-coor
    46679  3.13565E+01 2.91073E-01-1.98358E+01-4.54186E-01-1.32152E-02 1.41602E+00-4.60299E-01 3.41703E-02 3.86408E-01 9.11786E+00-4.71242E+02-5.20512E+02



 n o d a l   p r i n t   o u t   f o r   t i m e  s t e p   19402                              ( at time 9.6995293E+00 )

 nodal point  x-rot      y-rot       z-rot       x-rot vel   y-rot vel   z-rot vel   x-rot acc   y-rot acc   z-rot acc
    46679  2.26995E-04 9.13654E-02 1.48778E-03-2.11823E-04 2.51528E-02 1.58693E-04 2.00108E-04 1.22226E-03-3.04463E-04



 n o d a l   p r i n t   o u t   f o r   t i m e  s t e p   19602                              ( at time 9.7995193E+00 )

 nodal point  x-disp     y-disp      z-disp      x-vel       y-vel       z-vel      x-accl      y-accl      z-accl      x-coor      y-coor      z-coor
    46679  3.13089E+01 2.89560E-01-1.96921E+01-5.00118E-01-1.74548E-02 1.45802E+00-4.59371E-01-4.24006E-02 4.20064E-01 9.11868E+00-4.71128E+02-5.20405E+02



 n o d a l   p r i n t   o u t   f o r   t i m e  s t e p   19602                              ( at time 9.7995193E+00 )

 nodal point  x-rot      y-rot       z-rot       x-rot vel   y-rot vel   z-rot vel   x-rot acc   y-rot acc   z-rot acc
    46679  2.08888E-04 9.38884E-02 1.50603E-03-2.07160E-04 2.52910E-02 1.73220E-04 4.66365E-05 1.38258E-03 1.45279E-04



 n o d a l   p r i n t   o u t   f o r   t i m e  s t e p   19802                              ( at time 9.8995093E+00 )

 nodal point  x-disp     y-disp      z-disp      x-vel       y-vel       z-vel      x-accl      y-accl      z-accl      x-coor      y-coor      z-coor
    46679  3.12570E+01 2.87981E-01-1.95447E+01-5.37593E-01-1.93341E-02 1.48835E+00-3.74787E-01-1.87945E-02 3.03322E-01 9.11953E+00-4.71012E+02-5.20292E+02



 n o d a l   p r i n t   o u t   f o r   t i m e  s t e p   19802                              ( at time 9.8995093E+00 )

 nodal point  x-rot      y-rot       z-rot       x-rot vel   y-rot vel   z-rot vel   x-rot acc   y-rot acc   z-rot acc
    46679  1.85288E-04 9.64196E-02 1.52304E-03-2.30504E-04 2.53354E-02 1.87851E-04-2.33462E-04 4.43690E-04 1.46332E-04



 n o d a l   p r i n t   o u t   f o r   t i m e  s t e p   20003                              ( at time 9.9999992E+00 )

 nodal point  x-disp     y-disp      z-disp      x-vel       y-vel       z-vel      x-accl      y-accl      z-accl      x-coor      y-coor      z-coor
[...]
    46679 -1.77359E-03 4.26453E-01 3.47416E-03 3.89695E-04 2.60974E-02 3.08427E-04 5.00222E-04 6.14915E-05 4.73350E-05



 n o d a l   p r i n t   o u t   f o r   t i m e  s t e p   45205                              ( at time 2.2599738E+01 )

 nodal point  x-disp     y-disp      z-disp      x-vel       y-vel       z-vel      x-accl      y-accl      z-accl      x-coor      y-coor      z-coor
    46679  1.82375E+01 8.26443E-02 3.45287E+00-1.12347E+00-4.58438E-02 1.77718E+00-1.25122E-02-1.08595E-02-4.19536E-03 9.17703E+00-4.55626E+02-4.98954E+02



 n o d a l   p r i n t   o u t   f o r   t i m e  s t e p   45205                              ( at time 2.2599738E+01 )

 nodal point  x-rot      y-rot       z-rot       x-rot vel   y-rot vel   z-rot vel   x-rot acc   y-rot acc   z-rot acc
    46679 -1.73318E-03 4.29064E-01 3.50520E-03 4.28017E-04 2.60985E-02 3.26694E-04 3.83256E-04 1.14377E-05 1.82678E-04



 n o d a l   p r i n t   o u t   f o r   t i m e  s t e p   45405                              ( at time 2.2699728E+01 )

 nodal point  x-disp     y-disp      z-disp      x-vel       y-vel       z-vel      x-accl      y-accl      z-accl      x-coor      y-coor      z-coor
    46679  1.81250E+01 7.79716E-02 3.63038E+00-1.12417E+00-4.61317E-02 1.77379E+00-7.03770E-03-2.87930E-03-3.39271E-02 9.18052E+00-4.55512E+02-4.98784E+02



 n o d a l   p r i n t   o u t   f o r   t i m e  s t e p   45405                              ( at time 2.2699728E+01 )

 nodal point  x-rot      y-rot       z-rot       x-rot vel   y-rot vel   z-rot vel   x-rot acc   y-rot acc   z-rot acc
    46679 -1.68793E-03 4.31674E-01 3.53881E-03 4.71603E-04 2.60910E-02 3.34627E-04 4.35907E-04-7.52964E-05 7.93467E-05



 n o d a l   p r i n t   o u t   f o r   t i m e  s t e p   45605                              ( at time 2.2799718E+01 )

 nodal point  x-disp     y-disp      z-disp      x-vel       y-vel       z-vel      x-accl      y-accl      z-accl      x-coor      y-coor      z-coor
    46679  1.80125E+01 7.32502E-02 3.80766E+00-1.12460E+00-4.76669E-02 1.77242E+00-4.33008E-03-1.53533E-02-1.36316E-02 9.18405E+00-4.55398E+02-4.98613E+02



 n o d a l   p r i n t   o u t   f o r   t i m e  s t e p   45605                              ( at time 2.2799718E+01 )

 nodal point  x-rot      y-rot       z-rot       x-rot vel   y-rot vel   z-rot vel   x-rot acc   y-rot acc   z-rot acc
    46679 -1.63851E-03 4.34285E-01 3.57316E-03 5.09066E-04 2.60856E-02 3.43071E-04 3.74663E-04-5.36863E-05 8.44478E-05



 n o d a l   p r i n t   o u t   f o r   t i m e  s t e p   45805                              ( at time 2.2899708E+01 )

 nodal point  x-disp     y-disp      z-disp      x-vel       y-vel       z-vel      x-accl      y-accl      z-accl      x-coor      y-coor      z-coor
    46679  1.79000E+01 6.84960E-02 3.98482E+00-1.12542E+00-4.84821E-02 1.77080E+00-8.19178E-03-8.15303E-03-1.61821E-02 9.18762E+00-4.55285E+02-4.98443E+02



 n o d a l   p r i n t   o u t   f o r   t i m e  s t e p   45805                              ( at time 2.2899708E+01 )

 nodal point  x-rot      y-rot       z-rot       x-rot vel   y-rot vel   z-rot vel   x-rot acc   y-rot acc   z-rot acc
    46679 -1.58617E-03 4.36896E-01 3.60836E-03 5.45909E-04 2.60907E-02 3.69926E-04 3.68471E-04 5.09304E-05 2.68574E-04



 n o d a l   p r i n t   o u t   f o r   t i m e  s t e p   46005                              ( at time 2.2999698E+01 )

 nodal point  x-disp     y-disp      z-disp      x-vel       y-vel       z-vel      x-accl      y-accl      z-accl      x-coor      y-coor      z-coor
    46679  1.77874E+01 6.36656E-02 4.16174E+00-1.12666E+00-4.75408E-02 1.76784E+00-1.23512E-02 9.41333E-03-2.96215E-02 9.19127E+00-4.55172E+02-4.98272E+02



 n o d a l   p r i n t   o u t   f o r   t i m e  s t e p   46005                              ( at time 2.2999698E+01 )

 nodal point  x-rot      y-rot       z-rot       x-rot vel   y-rot vel   z-rot vel   x-rot acc   y-rot acc   z-rot acc
    46679 -1.52951E-03 4.39505E-01 3.64527E-03 5.86167E-04 2.60781E-02 3.62461E-04 4.02619E-04-1.25889E-04-7.46515E-05



 n o d a l   p r i n t   o u t   f o r   t i m e  s t e p   46205                              ( at time 2.3099688E+01 )

 nodal point  x-disp     y-disp      z-disp      x-vel       y-vel       z-vel      x-accl      y-accl      z-accl      x-coor      y-coor      z-coor
    46679  1.76749E+01 5.88431E-02 4.33846E+00-1.12726E+00-4.90449E-02 1.76651E+00-6.03385E-03-1.50420E-02-1.32969E-02 9.19490E+00-4.55059E+02-4.98102E+02



 n o d a l   p r i n t   o u t   f o r   t i m e  s t e p   46205                              ( at time 2.3099688E+01 )

 nodal point  x-rot      y-rot       z-rot       x-rot vel   y-rot vel   z-rot vel   x-rot acc   y-rot acc   z-rot acc
    46679 -1.46959E-03 4.42114E-01 3.68236E-03 6.26359E-04 2.60795E-02 3.78761E-04 4.01958E-04 1.30400E-05 1.63011E-04



 n o d a l   p r i n t   o u t   f o r   t i m e  s t e p   46405                              ( at time 2.3199678E+01 )

 nodal point  x-disp     y-disp      z-disp      x-vel       y-vel       z-vel      x-accl      y-accl      z-accl      x-coor      y-coor      z-coor
    46679  1.75621E+01 5.39960E-02 4.51494E+00-1.12843E+00-4.78389E-02 1.76341E+00-1.16740E-02 1.20604E-02-3.10318E-02 9.19857E+00-4.54946E+02-4.97932E+02



 n o d a l   p r i n t   o u t   f o r   t i m e  s t e p   46405                              ( at time 2.3199678E+01 )

 nodal point  x-rot      y-rot       z-rot       x-rot vel   y-rot vel   z-rot vel   x-rot acc   y-rot acc   z-rot acc
    46679 -1.40530E-03 4.44721E-01 3.72033E-03 6.50363E-04 2.60832E-02 3.84268E-04 2.40065E-04 3.69955E-05 5.50817E-05



 n o d a l   p r i n t   o u t   f o r   t i m e  s t e p   46605                              ( at time 2.3299668E+01 )

 nodal point  x-disp     y-disp      z-disp      x-vel       y-vel       z-vel      x-accl      y-accl      z-accl      x-coor      y-coor      z-coor
    46679  1.74492E+01 4.91171E-02 4.69116E+00-1.12928E+00-4.87529E-02 1.76153E+00-8.52441E-03-9.14030E-03-1.88455E-02 9.20226E+00-4.54833E+02-4.97762E+02



 n o d a l   p r i n t   o u t   f o r   t i m e  s t e p   46605                              ( at time 2.3299668E+01 )

 nodal point  x-rot      y-rot       z-rot       x-rot vel   y-rot vel   z-rot vel   x-rot acc   y-rot acc   z-rot acc
    46679 -1.33779E-03 4.47330E-01 3.75979E-03 7.04102E-04 2.60838E-02 3.96288E-04 5.37447E-04 6.24055E-06 1.20208E-04



 n o d a l   p r i n t   o u t   f o r   t i m e  s t e p   46805                              ( at time 2.3399658E+01 )

 nodal point  x-disp     y-disp      z-disp      x-vel       y-vel       z-vel      x-accl      y-accl      z-accl      x-coor      y-coor      z-coor
    46679  1.73363E+01 4.43213E-02 4.86713E+00-1.12998E+00-4.80118E-02 1.75780E+00-6.97915E-03 7.41125E-03-3.72527E-02 9.20588E+00-4.54721E+02-4.97591E+02



 n o d a l   p r i n t   o u t   f o r   t i m e  s t e p   46805                              ( at time 2.3399658E+01 )

 nodal point  x-rot      y-rot       z-rot       x-rot vel   y-rot vel   z-rot vel   x-rot acc   y-rot acc   z-rot acc
    46679 -1.26477E-03 4.49938E-01 3.79918E-03 7.47656E-04 2.60813E-02 4.02354E-04 4.35586E-04-2.51853E-05 6.06638E-05



 n o d a l   p r i n t   o u t   f o r   t i m e  s t e p   47005                              ( at time 2.3499648E+01 )

 nodal point  x-disp     y-disp      z-disp      x-vel       y-vel       z-vel      x-accl      y-accl      z-accl      x-coor      y-coor      z-coor
    46679  1.72234E+01 3.95105E-02 5.04272E+00-1.13097E+00-4.81716E-02 1.75499E+00-9.92270E-03-1.59804E-03-2.81276E-02 9.20951E+00-4.54609E+02-4.97421E+02



 n o d a l   p r i n t   o u t   f o r   t i m e  s t e p   47005                              ( at time 2.3499648E+01 )

 nodal point  x-rot      y-rot       z-rot       x-rot vel   y-rot vel   z-rot vel   x-rot acc   y-rot acc   z-rot acc
    46679 -1.18713E-03 4.52545E-01 3.83960E-03 8.01869E-04 2.60827E-02 4.09265E-04 5.42175E-04 1.45672E-05 6.91256E-05



 n o d a l   p r i n t   o u t   f o r   t i m e  s t e p   47205                              ( at time 2.3599638E+01 )

 nodal point  x-disp     y-disp      z-disp      x-vel       y-vel       z-vel      x-accl      y-accl      z-accl      x-coor      y-coor      z-coor
    46679  1.71101E+01 3.46981E-02 5.21806E+00-1.13200E+00-4.80950E-02 1.75191E+00-1.02996E-02 7.65669E-04-3.07904E-02 9.21314E+00-4.54498E+02-4.97251E+02



 n o d a l   p r i n t   o u t   f o r   t i m e  s t e p   47205                              ( at time 2.3599638E+01 )

 nodal point  x-rot      y-rot       z-rot       x-rot vel   y-rot vel   z-rot vel   x-rot acc   y-rot acc   z-rot acc
    46679 -1.10387E-03 4.55150E-01 3.88240E-03 8.67009E-04 2.60737E-02 4.40402E-04 6.51473E-04-9.00502E-05 3.11397E-04



 n o d a l   p r i n t   o u t   f o r   t i m e  s t e p   47405                              ( at time 2.3699628E+01 )

 nodal point  x-disp     y-disp      z-disp      x-vel       y-vel       z-vel      x-accl      y-accl      z-accl      x-coor      y-coor      z-coor
    46679  1.69968E+01 2.99660E-02 5.39306E+00-1.13246E+00-4.74073E-02 1.74799E+00-4.65913E-03 6.87740E-03-3.92103E-02 9.21670E+00-4.54386E+02-4.97081E+02



 n o d a l   p r i n t   o u t   f o r   t i m e  s t e p   47405                              ( at time 2.3699628E+01 )

 nodal point  x-rot      y-rot       z-rot       x-rot vel   y-rot vel   z-rot vel   x-rot acc   y-rot acc   z-rot acc
    46679 -1.01401E-03 4.57755E-01 3.92577E-03 9.47790E-04 2.60467E-02 4.37341E-04 8.07883E-04-2.70555E-04-3.06064E-05



 n o d a l   p r i n t   o u t   f o r   t i m e  s t e p   47605                              ( at time 2.3799618E+01 )

 nodal point  x-disp     y-disp      z-disp      x-vel       y-vel       z-vel      x-accl      y-accl      z-accl      x-coor      y-coor      z-coor
    46679  1.68835E+01 2.51992E-02 5.56760E+00-1.13293E+00-4.72691E-02 1.74328E+00-4.65802E-03 1.38287E-03-4.71012E-02 9.22029E+00-4.54275E+02-4.96911E+02



 n o d a l   p r i n t   o u t   f o r   t i m e  s t e p   47605                              ( at time 2.3799618E+01 )

 nodal point  x-rot      y-rot       z-rot       x-rot vel   y-rot vel   z-rot vel   x-rot acc   y-rot acc   z-rot acc
    46679 -9.15079E-04 4.60359E-01 3.97184E-03 1.03400E-03 2.60492E-02 4.67216E-04 8.62229E-04 2.58191E-05 2.98777E-04



 n o d a l   p r i n t   o u t   f o r   t i m e  s t e p   47805                              ( at time 2.3899608E+01 )

 nodal point  x-disp     y-disp      z-disp      x-vel       y-vel       z-vel      x-accl      y-accl      z-accl      x-coor      y-coor      z-coor
    46679  1.67702E+01 2.04174E-02 5.74172E+00-1.13337E+00-4.75156E-02 1.73946E+00-4.41711E-03-2.46521E-03-3.82005E-02 9.22390E+00-4.54165E+02-4.96741E+02



 n o d a l   p r i n t   o u t   f o r   t i m e  s t e p   47805                              ( at time 2.3899608E+01 )

 nodal point  x-rot      y-rot       z-rot       x-rot vel   y-rot vel   z-rot vel   x-rot acc   y-rot acc   z-rot acc
    46679 -8.08361E-04 4.62964E-01 4.02112E-03 1.09931E-03 2.60477E-02 5.01493E-04 6.53116E-04-1.55545E-05 3.42802E-04



 n o d a l   p r i n t   o u t   f o r   t i m e  s t e p   48005                              ( at time 2.3999598E+01 )

 nodal point  x-disp     y-disp      z-disp      x-vel       y-vel       z-vel      x-accl      y-accl      z-accl      x-coor      y-coor      z-coor
    46679  1.66569E+01 1.56856E-02 5.91544E+00-1.13442E+00-4.75587E-02 1.73529E+00-1.04570E-02-4.30915E-04-4.17124E-02 9.22746E+00-4.54055E+02-4.96572E+02



 n o d a l   p r i n t   o u t   f o r   t i m e  s t e p   48005                              ( at time 2.3999598E+01 )

 nodal point  x-rot      y-rot       z-rot       x-rot vel   y-rot vel   z-rot vel   x-rot acc   y-rot acc   z-rot acc
    46679 -6.92454E-04 4.65569E-01 4.07215E-03 1.20714E-03 2.60336E-02 5.24868E-04 1.07843E-03-1.40496E-04 2.33774E-04



 n o d a l   p r i n t   o u t   f o r   t i m e  s t e p   48205                              ( at time 2.4099588E+01 )

 nodal point  x-disp     y-disp      z-disp      x-vel       y-vel       z-vel      x-accl      y-accl      z-accl      x-coor      y-coor      z-coor
    46679  1.65437E+01 1.10556E-02 6.08876E+00-1.13498E+00-4.60598E-02 1.73210E+00-5.65461E-03 1.49903E-02-3.18843E-02 9.23092E+00-4.53946E+02-4.96402E+02



 n o d a l   p r i n t   o u t   f o r   t i m e  s t e p   48205                              ( at time 2.4099588E+01 )

 nodal point  x-rot      y-rot       z-rot       x-rot vel   y-rot vel   z-rot vel   x-rot acc   y-rot acc   z-rot acc
    46679 -5.68594E-04 4.68174E-01 4.12488E-03 1.25424E-03 2.60345E-02 5.28615E-04 4.71060E-04 8.23365E-06 3.74740E-05



 n o d a l   p r i n t   o u t   f o r   t i m e  s t e p   48405                              ( at time 2.4199578E+01 )

 nodal point  x-disp     y-disp      z-disp      x-vel       y-vel       z-vel      x-accl      y-accl      z-accl      x-coor      y-coor      z-coor
    46679  1.64301E+01 6.49907E-03 6.26180E+00-1.13522E+00-4.47815E-02 1.72837E+00-2.40472E-03 1.27842E-02-3.72773E-02 9.23430E+00-4.53836E+02-4.96233E+02



 n o d a l   p r i n t   o u t   f o r   t i m e  s t e p   48405                              ( at time 2.4199578E+01 )

 nodal point  x-rot      y-rot       z-rot       x-rot vel   y-rot vel   z-rot vel   x-rot acc   y-rot acc   z-rot acc
    46679 -4.40016E-04 4.70777E-01 4.17937E-03 1.31144E-03 2.60128E-02 5.55837E-04 5.72085E-04-2.16221E-04 2.72250E-04



 n o d a l   p r i n t   o u t   f o r   t i m e  s t e p   48605                              ( at time 2.4299568E+01 )

 nodal point  x-disp     y-disp      z-disp      x-vel       y-vel       z-vel      x-accl      y-accl      z-accl      x-coor      y-coor      z-coor
    46679  1.63164E+01 2.17699E-03 6.43455E+00-1.13584E+00-4.25537E-02 1.72602E+00-6.16965E-03 2.22801E-02-2.34911E-02 9.23746E+00-4.53727E+02-4.96063E+02



 n o d a l   p r i n t   o u t   f o r   t i m e  s t e p   48605                              ( at time 2.4299568E+01 )

 nodal point  x-rot      y-rot       z-rot       x-rot vel   y-rot vel   z-rot vel   x-rot acc   y-rot acc   z-rot acc
    46679 -3.04906E-04 4.73381E-01 4.23538E-03 1.39380E-03 2.60193E-02 5.67421E-04 8.23586E-04 6.45652E-05 1.15853E-04



 n o d a l   p r i n t   o u t   f o r   t i m e  s t e p   48805                              ( at time 2.4399558E+01 )

 nodal point  x-disp     y-disp      z-disp      x-vel       y-vel       z-vel      x-accl      y-accl      z-accl      x-coor      y-coor      z-coor
    46679  1.62027E+01-1.99747E-03 6.60697E+00-1.13640E+00-4.09967E-02 1.72249E+00-5.55328E-03 1.55709E-02-3.53309E-02 9.24047E+00-4.53619E+02-4.95894E+02



 n o d a l   p r i n t   o u t   f o r   t i m e  s t e p   48805                              ( at time 2.4399558E+01 )

 nodal point  x-rot      y-rot       z-rot       x-rot vel   y-rot vel   z-rot vel   x-rot acc   y-rot acc   z-rot acc
    46679 -1.62366E-04 4.75984E-01 4.29277E-03 1.44406E-03 2.60238E-02 5.71423E-04 5.02681E-04 4.50056E-05 4.00220E-05



 n o d a l   p r i n t   o u t   f o r   t i m e  s t e p   49006                              ( at time 2.4500048E+01 )

 nodal point  x-disp     y-disp      z-disp      x-vel       y-vel       z-vel      x-accl      y-accl      z-accl      x-coor      y-coor      z-coor
    46679  1.60885E+01-6.02218E-03 6.77990E+00-1.13723E+00-3.97865E-02 1.71918E+00-8.27323E-03 1.20438E-02-3.29802E-02 9.24332E+00-4.53510E+02-4.95724E+02



 n o d a l   p r i n t   o u t   f o r   t i m e  s t e p   49006                              ( at time 2.4500048E+01 )

 nodal point  x-rot      y-rot       z-rot       x-rot vel   y-rot vel   z-rot vel   x-rot acc   y-rot acc   z-rot acc
    46679 -1.38055E-05 4.78599E-01 4.35217E-03 1.50090E-03 2.60044E-02 6.06501E-04 5.65663E-04-1.93496E-04 3.49077E-04



 n o d a l   p r i n t   o u t   f o r   t i m e  s t e p   49206                              ( at time 2.4600038E+01 )

 nodal point  x-disp     y-disp      z-disp      x-vel       y-vel       z-vel      x-accl      y-accl      z-accl      x-coor      y-coor      z-coor
    46679  1.59748E+01-9.91828E-03 6.95158E+00-1.13779E+00-3.82684E-02 1.71476E+00-5.62719E-03 1.51818E-02-4.42235E-02 9.24605E+00-4.53402E+02-4.95555E+02



 n o d a l   p r i n t   o u t   f o r   t i m e  s t e p   49206                              ( at time 2.4600038E+01 )

 nodal point  x-rot      y-rot       z-rot       x-rot vel   y-rot vel   z-rot vel   x-rot acc   y-rot acc   z-rot acc
    46679  1.43051E-04 4.81199E-01 4.41366E-03 1.62299E-03 2.60141E-02 6.28340E-04 1.22104E-03 9.73507E-05 2.18408E-04



 n o d a l   p r i n t   o u t   f o r   t i m e  s t e p   49406                              ( at time 2.4700028E+01 )

 nodal point  x-disp     y-disp      z-disp      x-vel       y-vel       z-vel      x-accl      y-accl      z-accl      x-coor      y-coor      z-coor
    46679  1.58610E+01-1.36784E-02 7.12287E+00-1.13851E+00-3.62016E-02 1.71110E+00-7.16885E-03 2.06708E-02-3.65822E-02 9.24865E+00-4.53294E+02-4.95386E+02



 n o d a l   p r i n t   o u t   f o r   t i m e  s t e p   49406                              ( at time 2.4700028E+01 )

 nodal point  x-rot      y-rot       z-rot       x-rot vel   y-rot vel   z-rot vel   x-rot acc   y-rot acc   z-rot acc
    46679  3.09097E-04 4.83797E-01 4.47758E-03 1.70168E-03 2.59952E-02 6.33674E-04 7.86952E-04-1.88409E-04 5.33422E-05



 n o d a l   p r i n t   o u t   f o r   t i m e  s t e p   49606                              ( at time 2.4800018E+01 )

 nodal point  x-disp     y-disp      z-disp      x-vel       y-vel       z-vel      x-accl      y-accl      z-accl      x-coor      y-coor      z-coor
    46679  1.57472E+01-1.74318E-02 7.29373E+00-1.13934E+00-3.86016E-02 1.70580E+00-8.35138E-03-2.40025E-02-5.29922E-02 9.25124E+00-4.53187E+02-4.95217E+02



 n o d a l   p r i n t   o u t   f o r   t i m e  s t e p   49606                              ( at time 2.4800018E+01 )

 nodal point  x-rot      y-rot       z-rot       x-rot vel   y-rot vel   z-rot vel   x-rot acc   y-rot acc   z-rot acc
    46679  4.82607E-04 4.86396E-01 4.54292E-03 1.75776E-03 2.59788E-02 6.79897E-04 5.60893E-04-1.64543E-04 4.62280E-04



 n o d a l   p r i n t   o u t   f o r   t i m e  s t e p   49806                              ( at time 2.4900008E+01 )

 nodal point  x-disp     y-disp      z-disp      x-vel       y-vel       z-vel      x-accl      y-accl      z-accl      x-coor      y-coor      z-coor
    46679  1.56332E+01-2.10931E-02 7.46420E+00-1.14024E+00-3.62440E-02 1.70369E+00-8.97030E-03 2.35790E-02-2.11131E-02 9.25374E+00-4.53081E+02-4.95048E+02



 n o d a l   p r i n t   o u t   f o r   t i m e  s t e p   49806                              ( at time 2.4900008E+01 )

 nodal point  x-rot      y-rot       z-rot       x-rot vel   y-rot vel   z-rot vel   x-rot acc   y-rot acc   z-rot acc
    46679  6.64589E-04 4.88995E-01 4.61058E-03 1.87666E-03 2.59887E-02 6.84810E-04 1.18907E-03 9.90105E-05 4.91315E-05



 n o d a l   p r i n t   o u t   f o r   t i m e  s t e p   50006                              ( at time 2.4999998E+01 )

 nodal point  x-disp     y-disp      z-disp      x-vel       y-vel       z-vel      x-accl      y-accl      z-accl      x-coor      y-coor      z-coor
    46679  1.55191E+01-2.46649E-02 7.63428E+00-1.14133E+00-3.55233E-02 1.69828E+00-1.09468E-02 7.20716E-03-5.40866E-02 9.25616E+00-4.52974E+02-4.94879E+02



 n o d a l   p r i n t   o u t   f o r   t i m e  s t e p   50006                              ( at time 2.4999998E+01 )

 nodal point  x-rot      y-rot       z-rot       x-rot vel   y-rot vel   z-rot vel   x-rot acc   y-rot acc   z-rot acc
    46679  8.57627E-04 4.91594E-01 4.68025E-03 1.95976E-03 2.59753E-02 7.02303E-04 8.31105E-04-1.34141E-04 1.74945E-04
