 LSTC 50th% Full_FE H-III Dummy (Beta Version, February 17, 2019)        
                    ls-dyna smp s R16 R16.0_619_d222963 date 03/18/2025

{BEGIN LEGEND}
 Entity #        Title
    22626                                                                                     
{END LEGEND}




 n o d a l   p r i n t   o u t   f o r   t i m e  s t e p       1                              ( at time 0.0000000E+00 )

 nodal point  x-disp     y-disp      z-disp      x-vel       y-vel       z-vel      x-accl      y-accl      z-accl      x-coor      y-coor      z-coor
    22626  0.00000E+00 0.00000E+00 0.00000E+00 0.00000E+00 0.00000E+00 0.00000E+00 0.00000E+00 0.00000E+00 0.00000E+00 4.65938E+00-2.81908E+01-4.49817E+01



 n o d a l   p r i n t   o u t   f o r   t i m e  s t e p       1                              ( at time 0.0000000E+00 )

 nodal point  x-rot      y-rot       z-rot       x-rot vel   y-rot vel   z-rot vel   x-rot acc   y-rot acc   z-rot acc
    22626  0.00000E+00 0.00000E+00 0.00000E+00 0.00000E+00 0.00000E+00 0.00000E+00 0.00000E+00 0.00000E+00 0.00000E+00



 n o d a l   p r i n t   o u t   f o r   t i m e  s t e p     201                              ( at time 9.9989993E-02 )

 nodal point  x-disp     y-disp      z-disp      x-vel       y-vel       z-vel      x-accl      y-accl      z-accl      x-coor      y-coor      z-coor
    22626  2.73575E-07 1.73669E-06-5.34278E-05 4.19751E-05 2.55596E-04-1.46819E-03 4.19793E-04 2.55621E-03-1.46834E-02 4.65938E+00-2.81908E+01-4.49818E+01



 n o d a l   p r i n t   o u t   f o r   t i m e  s t e p     201                              ( at time 9.9989993E-02 )

 nodal point  x-rot      y-rot       z-rot       x-rot vel   y-rot vel   z-rot vel   x-rot acc   y-rot acc   z-rot acc
    22626 -5.98981E-08-8.38469E-09-5.45922E-09-5.86954E-06-9.69953E-07-9.27113E-07-5.87013E-05-9.70050E-06-9.27206E-06



 n o d a l   p r i n t   o u t   f o r   t i m e  s t e p     401                              ( at time 1.9997999E-01 )

 nodal point  x-disp     y-disp      z-disp      x-vel       y-vel       z-vel      x-accl      y-accl      z-accl      x-coor      y-coor      z-coor
    22626  1.73007E-05 3.61741E-04-6.67579E-04 2.97325E-05 7.81095E-03-1.21533E-02-1.22438E-04 7.55611E-02-1.06862E-01 4.65939E+00-2.81905E+01-4.49824E+01



 n o d a l   p r i n t   o u t   f o r   t i m e  s t e p     401                              ( at time 1.9997999E-01 )

 nodal point  x-rot      y-rot       z-rot       x-rot vel   y-rot vel   z-rot vel   x-rot acc   y-rot acc   z-rot acc
    22626 -2.81958E-06-3.36956E-07-3.34325E-07-3.94055E-05-1.75246E-06-2.28058E-06-3.35394E-04-7.82585E-06-1.35360E-05



 n o d a l   p r i n t   o u t   f o r   t i m e  s t e p     601                              ( at time 2.9996998E-01 )

 nodal point  x-disp     y-disp      z-disp      x-vel       y-vel       z-vel      x-accl      y-accl      z-accl      x-coor      y-coor      z-coor
    22626  2.73821E-05 1.23996E-03-2.33848E-03 4.22655E-04 8.44383E-03-1.92540E-02 3.92962E-03 6.32943E-03-7.10133E-02 4.65940E+00-2.81896E+01-4.49841E+01



 n o d a l   p r i n t   o u t   f o r   t i m e  s t e p     601                              ( at time 2.9996998E-01 )

 nodal point  x-rot      y-rot       z-rot       x-rot vel   y-rot vel   z-rot vel   x-rot acc   y-rot acc   z-rot acc
    22626 -5.38407E-06-3.90291E-07-6.42371E-07-1.53389E-05-5.46502E-06-6.65625E-06 2.40691E-04-3.71293E-05-4.37611E-05



 n o d a l   p r i n t   o u t   f o r   t i m e  s t e p     801                              ( at time 3.9995997E-01 )

 nodal point  x-disp     y-disp      z-disp      x-vel       y-vel       z-vel      x-accl      y-accl      z-accl      x-coor      y-coor      z-coor
    22626  2.60753E-05 2.16034E-03-4.28282E-03-3.14890E-04 1.07077E-02-2.10859E-02-7.37619E-03 2.26410E-02-1.83212E-02 4.65940E+00-2.81887E+01-4.49860E+01



 n o d a l   p r i n t   o u t   f o r   t i m e  s t e p     801                              ( at time 3.9995997E-01 )

 nodal point  x-rot      y-rot       z-rot       x-rot vel   y-rot vel   z-rot vel   x-rot acc   y-rot acc   z-rot acc
    22626 -7.59242E-06-1.24963E-06-9.80386E-07-4.46080E-05-6.23663E-06-1.48169E-06-2.92720E-04-7.71696E-06 5.17507E-05



 n o d a l   p r i n t   o u t   f o r   t i m e  s t e p    1001                              ( at time 4.9994997E-01 )

 nodal point  x-disp     y-disp      z-disp      x-vel       y-vel       z-vel      x-accl      y-accl      z-accl      x-coor      y-coor      z-coor
    22626  3.71760E-06 3.43380E-03-6.74497E-03-2.38287E-04 1.41578E-02-2.87036E-02 7.66101E-04 3.45045E-02-7.61851E-02 4.65938E+00-2.81874E+01-4.49885E+01



 n o d a l   p r i n t   o u t   f o r   t i m e  s t e p    1001                              ( at time 4.9994997E-01 )

 nodal point  x-rot      y-rot       z-rot       x-rot vel   y-rot vel   z-rot vel   x-rot acc   y-rot acc   z-rot acc
    22626 -1.35241E-05-1.16584E-06-9.48325E-07-8.41088E-05 3.24027E-06 4.05411E-06-3.95048E-04 9.47786E-05 5.53635E-05



 n o d a l   p r i n t   o u t   f o r   t i m e  s t e p    1201                              ( at time 5.9993996E-01 )

 nodal point  x-disp     y-disp      z-disp      x-vel       y-vel       z-vel      x-accl      y-accl      z-accl      x-coor      y-coor      z-coor
    22626 -9.70883E-07 5.00719E-03-9.71603E-03 4.37601E-05 1.66768E-02-3.09987E-02 2.82076E-03 2.51922E-02-2.29532E-02 4.65937E+00-2.81858E+01-4.49914E+01



 n o d a l   p r i n t   o u t   f o r   t i m e  s t e p    1201                              ( at time 5.9993996E-01 )

 nodal point  x-rot      y-rot       z-rot       x-rot vel   y-rot vel   z-rot vel   x-rot acc   y-rot acc   z-rot acc
    22626 -2.02295E-05-8.87679E-07-9.55132E-07-5.85692E-05 3.87921E-06-1.99279E-06 2.55421E-04 6.39008E-06-6.04750E-05



 n o d a l   p r i n t   o u t   f o r   t i m e  s t e p    1401                              ( at time 6.9992995E-01 )

 nodal point  x-disp     y-disp      z-disp      x-vel       y-vel       z-vel      x-accl      y-accl      z-accl      x-coor      y-coor      z-coor
    22626 -5.08669E-05 6.84456E-03-1.31717E-02-4.92260E-04 1.96453E-02-3.89641E-02-5.36074E-03 2.96884E-02-7.96617E-02 4.65932E+00-2.81840E+01-4.49949E+01



 n o d a l   p r i n t   o u t   f o r   t i m e  s t e p    1401                              ( at time 6.9992995E-01 )

 nodal point  x-rot      y-rot       z-rot       x-rot vel   y-rot vel   z-rot vel   x-rot acc   y-rot acc   z-rot acc
    22626 -2.61316E-05-8.98838E-07-6.30149E-07-7.10585E-05 3.64647E-07 3.87317E-06-1.24905E-04-3.51492E-05 5.86654E-05



 n o d a l   p r i n t   o u t   f o r   t i m e  s t e p    1601                              ( at time 7.9991994E-01 )

 nodal point  x-disp     y-disp      z-disp      x-vel       y-vel       z-vel      x-accl      y-accl      z-accl      x-coor      y-coor      z-coor
    22626 -8.03116E-05 8.97910E-03-1.74638E-02-4.96968E-04 2.21478E-02-4.51183E-02-4.70825E-05 2.50276E-02-6.15478E-02 4.65929E+00-2.81819E+01-4.49992E+01



 n o d a l   p r i n t   o u t   f o r   t i m e  s t e p    1601                              ( at time 7.9991994E-01 )

 nodal point  x-rot      y-rot       z-rot       x-rot vel   y-rot vel   z-rot vel   x-rot acc   y-rot acc   z-rot acc
    22626 -3.43071E-05-8.79325E-07-5.11095E-07-9.16146E-05-4.84277E-06 1.58294E-06-2.05581E-04-5.20794E-05-2.29045E-05



 n o d a l   p r i n t   o u t   f o r   t i m e  s t e p    1801                              ( at time 8.9990994E-01 )

 nodal point  x-disp     y-disp      z-disp      x-vel       y-vel       z-vel      x-accl      y-accl      z-accl      x-coor      y-coor      z-coor
    22626 -1.16859E-04 1.12454E-02-2.19914E-02-2.85254E-04 2.40333E-02-4.55908E-02 2.11735E-03 1.88565E-02-4.72574E-03 4.65926E+00-2.81796E+01-4.50037E+01



 n o d a l   p r i n t   o u t   f o r   t i m e  s t e p    1801                              ( at time 8.9990994E-01 )

 nodal point  x-rot      y-rot       z-rot       x-rot vel   y-rot vel   z-rot vel   x-rot acc   y-rot acc   z-rot acc
    22626 -4.27045E-05-9.56220E-07-4.98778E-07-8.23694E-05 2.06055E-06-6.87433E-07 9.24613E-05 6.90402E-05-2.27060E-05



 n o d a l   p r i n t   o u t   f o r   t i m e  s t e p    2001                              ( at time 9.9989993E-01 )

 nodal point  x-disp     y-disp      z-disp      x-vel       y-vel       z-vel      x-accl      y-accl      z-accl      x-coor      y-coor      z-coor
    22626 -1.52033E-04 1.37809E-02-2.67305E-02-3.52019E-05 2.64828E-02-5.00318E-02 2.50077E-03 2.44975E-02-4.44142E-02 4.65922E+00-2.81770E+01-4.50084E+01



 n o d a l   p r i n t   o u t   f o r   t i m e  s t e p    2001                              ( at time 9.9989993E-01 )

 nodal point  x-rot      y-rot       z-rot       x-rot vel   y-rot vel   z-rot vel   x-rot acc   y-rot acc   z-rot acc
    22626 -5.17208E-05-9.08729E-07-4.32753E-07-1.05862E-04 1.15776E-06-3.06179E-06-2.34947E-04-9.02881E-06-2.37459E-05



 n o d a l   p r i n t   o u t   f o r   t i m e  s t e p    2201                              ( at time 1.0998899E+00 )

 nodal point  x-disp     y-disp      z-disp      x-vel       y-vel       z-vel      x-accl      y-accl      z-accl      x-coor      y-coor      z-coor
    22626 -1.59868E-04 1.65208E-02-3.20570E-02-3.46071E-04 2.88713E-02-5.60821E-02-3.10901E-03 2.38879E-02-6.05100E-02 4.65921E+00-2.81743E+01-4.50138E+01



 n o d a l   p r i n t   o u t   f o r   t i m e  s t e p    2201                              ( at time 1.0998899E+00 )

 nodal point  x-rot      y-rot       z-rot       x-rot vel   y-rot vel   z-rot vel   x-rot acc   y-rot acc   z-rot acc
    22626 -6.27982E-05-1.00419E-06-7.44586E-07-1.03666E-04-7.53944E-06-2.07676E-06 2.19626E-05-8.69807E-05 9.85125E-06



 n o d a l   p r i n t   o u t   f o r   t i m e  s t e p    2401                              ( at time 1.1998799E+00 )

 nodal point  x-disp     y-disp      z-disp      x-vel       y-vel       z-vel      x-accl      y-accl      z-accl      x-coor      y-coor      z-coor
    22626 -1.89649E-04 1.94620E-02-3.79330E-02-1.94286E-04 3.02141E-02-6.12062E-02 1.51800E-03 1.34291E-02-5.12455E-02 4.65919E+00-2.81714E+01-4.50197E+01



 n o d a l   p r i n t   o u t   f o r   t i m e  s t e p    2401                              ( at time 1.1998799E+00 )

 nodal point  x-rot      y-rot       z-rot       x-rot vel   y-rot vel   z-rot vel   x-rot acc   y-rot acc   z-rot acc
    22626 -7.27840E-05-1.61312E-06-9.86244E-07-1.00973E-04-7.13969E-06-2.93928E-06 2.69296E-05 3.99784E-06-8.62598E-06



 n o d a l   p r i n t   o u t   f o r   t i m e  s t e p    2601                              ( at time 1.2998699E+00 )

 nodal point  x-disp     y-disp      z-disp      x-vel       y-vel       z-vel      x-accl      y-accl      z-accl      x-coor      y-coor      z-coor
    22626 -2.23921E-04 2.26106E-02-4.42092E-02-2.45421E-04 3.25780E-02-6.40599E-02-5.11396E-04 2.36416E-02-2.85397E-02 4.65915E+00-2.81682E+01-4.50259E+01



 n o d a l   p r i n t   o u t   f o r   t i m e  s t e p    2601                              ( at time 1.2998699E+00 )

 nodal point  x-rot      y-rot       z-rot       x-rot vel   y-rot vel   z-rot vel   x-rot acc   y-rot acc   z-rot acc
    22626 -8.38089E-05-2.17162E-06-1.23810E-06-1.29261E-04 6.12064E-08-1.53369E-06-2.82912E-04 7.20162E-05 1.40572E-05



 n o d a l   p r i n t   o u t   f o r   t i m e  s t e p    2801                              ( at time 1.3998599E+00 )

 nodal point  x-disp     y-disp      z-disp      x-vel       y-vel       z-vel      x-accl      y-accl      z-accl      x-coor      y-coor      z-coor
    22626 -2.51474E-04 2.59767E-02-5.07133E-02-4.53000E-04 3.45037E-02-6.66725E-02-2.07600E-03 1.92586E-02-2.61294E-02 4.65912E+00-2.81649E+01-4.50324E+01



 n o d a l   p r i n t   o u t   f o r   t i m e  s t e p    2801                              ( at time 1.3998599E+00 )

 nodal point  x-rot      y-rot       z-rot       x-rot vel   y-rot vel   z-rot vel   x-rot acc   y-rot acc   z-rot acc
    22626 -9.72012E-05-2.01106E-06-1.33891E-06-1.36820E-04-2.42168E-07 1.74941E-06-7.55954E-05-3.03405E-06 3.28344E-05



 n o d a l   p r i n t   o u t   f o r   t i m e  s t e p    3001                              ( at time 1.4998499E+00 )

 nodal point  x-disp     y-disp      z-disp      x-vel       y-vel       z-vel      x-accl      y-accl      z-accl      x-coor      y-coor      z-coor
    22626 -2.96292E-04 2.95740E-02-5.77263E-02-4.50999E-04 3.72709E-02-7.39950E-02 2.00083E-05 2.76742E-02-7.32323E-02 4.65908E+00-2.81613E+01-4.50394E+01



 n o d a l   p r i n t   o u t   f o r   t i m e  s t e p    3001                              ( at time 1.4998499E+00 )

 nodal point  x-rot      y-rot       z-rot       x-rot vel   y-rot vel   z-rot vel   x-rot acc   y-rot acc   z-rot acc
    22626 -1.10489E-04-2.03039E-06-1.26314E-06-1.28449E-04-1.05656E-06-1.73383E-06 8.37174E-05-8.14472E-06-3.48359E-05



 n o d a l   p r i n t   o u t   f o r   t i m e  s t e p    3201                              ( at time 1.5998399E+00 )

 nodal point  x-disp     y-disp      z-disp      x-vel       y-vel       z-vel      x-accl      y-accl      z-accl      x-coor      y-coor      z-coor
    22626 -3.59949E-04 3.34706E-02-6.54481E-02-5.80454E-04 4.05259E-02-7.97064E-02-1.29468E-03 3.25535E-02-5.71194E-02 4.65902E+00-2.81574E+01-4.50472E+01



 n o d a l   p r i n t   o u t   f o r   t i m e  s t e p    3201                              ( at time 1.5998399E+00 )

 nodal point  x-rot      y-rot       z-rot       x-rot vel   y-rot vel   z-rot vel   x-rot acc   y-rot acc   z-rot acc
    22626 -1.23077E-04-2.14847E-06-1.09150E-06-1.34697E-04-2.91576E-06 3.05695E-06-6.24807E-05-1.85939E-05 4.79126E-05



 n o d a l   p r i n t   o u t   f o r   t i m e  s t e p    3401                              ( at time 1.6998299E+00 )

 nodal point  x-disp     y-disp      z-disp      x-vel       y-vel       z-vel      x-accl      y-accl      z-accl      x-coor      y-coor      z-coor
    22626 -4.21785E-04 3.76222E-02-7.35847E-02-7.29929E-04 4.22231E-02-8.26017E-02-1.49490E-03 1.69733E-02-2.89557E-02 4.65895E+00-2.81532E+01-4.50553E+01



 n o d a l   p r i n t   o u t   f o r   t i m e  s t e p    3401                              ( at time 1.6998299E+00 )

 nodal point  x-rot      y-rot       z-rot       x-rot vel   y-rot vel   z-rot vel   x-rot acc   y-rot acc   z-rot acc
    22626 -1.37358E-04-2.15126E-06-8.99156E-07-1.47146E-04 1.52625E-06 3.97190E-06-1.24502E-04 4.44245E-05 9.15042E-06



 n o d a l   p r i n t   o u t   f o r   t i m e  s t e p    3601                              ( at time 1.7998199E+00 )

 nodal point  x-disp     y-disp      z-disp      x-vel       y-vel       z-vel      x-accl      y-accl      z-accl      x-coor      y-coor      z-coor
    22626 -4.84797E-04 4.18791E-02-8.19623E-02-5.11032E-04 4.32641E-02-8.48736E-02 2.18919E-03 1.04113E-02-2.27215E-02 4.65889E+00-2.81490E+01-4.50637E+01



 n o d a l   p r i n t   o u t   f o r   t i m e  s t e p    3601                              ( at time 1.7998199E+00 )

 nodal point  x-rot      y-rot       z-rot       x-rot vel   y-rot vel   z-rot vel   x-rot acc   y-rot acc   z-rot acc
    22626 -1.52551E-04-2.06392E-06-7.69111E-07-1.49628E-04 1.51800E-06-1.43836E-06-2.48224E-05-8.24654E-08-5.41081E-05



 n o d a l   p r i n t   o u t   f o r   t i m e  s t e p    3801                              ( at time 1.8998099E+00 )

 nodal point  x-disp     y-disp      z-disp      x-vel       y-vel       z-vel      x-accl      y-accl      z-accl      x-coor      y-coor      z-coor
    22626 -5.44046E-04 4.63555E-02-9.06390E-02-5.21841E-04 4.60683E-02-8.88775E-02-1.08098E-04 2.80448E-02-4.00427E-02 4.65883E+00-2.81445E+01-4.50724E+01



 n o d a l   p r i n t   o u t   f o r   t i m e  s t e p    3801                              ( at time 1.8998099E+00 )

 nodal point  x-rot      y-rot       z-rot       x-rot vel   y-rot vel   z-rot vel   x-rot acc   y-rot acc   z-rot acc
    22626 -1.67387E-04-1.85199E-06-6.38729E-07-1.49669E-04-1.57019E-06-5.65782E-07-4.07494E-07-3.08849E-05 8.72669E-06



 n o d a l   p r i n t   o u t   f o r   t i m e  s t e p    4001                              ( at time 1.9997999E+00 )

 nodal point  x-disp     y-disp      z-disp      x-vel       y-vel       z-vel      x-accl      y-accl      z-accl      x-coor      y-coor      z-coor
    22626 -5.94962E-04 5.10036E-02-9.97486E-02-5.42097E-04 4.71476E-02-9.31166E-02-2.02581E-04 1.07943E-02-4.23954E-02 4.65878E+00-2.81398E+01-4.50815E+01



 n o d a l   p r i n t   o u t   f o r   t i m e  s t e p    4001                              ( at time 1.9997999E+00 )

 nodal point  x-rot      y-rot       z-rot       x-rot vel   y-rot vel   z-rot vel   x-rot acc   y-rot acc   z-rot acc
    22626 -1.82458E-04-2.08859E-06-6.87338E-07-1.55989E-04-4.61927E-06-2.82125E-07-6.32105E-05-3.04939E-05 2.83686E-06



 n o d a l   p r i n t   o u t   f o r   t i m e  s t e p    4201                              ( at time 2.0997899E+00 )

 nodal point  x-disp     y-disp      z-disp      x-vel       y-vel       z-vel      x-accl      y-accl      z-accl      x-coor      y-coor      z-coor
    22626 -6.49025E-04 5.57592E-02-1.09166E-01-5.61025E-04 4.81788E-02-9.53054E-02-1.89301E-04 1.03132E-02-2.18904E-02 4.65873E+00-2.81351E+01-4.50909E+01



 n o d a l   p r i n t   o u t   f o r   t i m e  s t e p    4201                              ( at time 2.0997899E+00 )

 nodal point  x-rot      y-rot       z-rot       x-rot vel   y-rot vel   z-rot vel   x-rot acc   y-rot acc   z-rot acc
    22626 -1.97623E-04-2.47705E-06-8.51439E-07-1.49796E-04-1.55571E-06 2.10924E-06 6.19313E-05 3.06386E-05 2.39160E-05



 n o d a l   p r i n t   o u t   f o r   t i m e  s t e p    4401                              ( at time 2.1997798E+00 )

 nodal point  x-disp     y-disp      z-disp      x-vel       y-vel       z-vel      x-accl      y-accl      z-accl      x-coor      y-coor      z-coor
    22626 -7.07726E-04 6.06413E-02-1.18765E-01-4.97435E-04 4.91502E-02-9.67430E-02 6.35964E-04 9.71456E-03-1.43768E-02 4.65867E+00-2.81302E+01-4.51005E+01



 n o d a l   p r i n t   o u t   f o r   t i m e  s t e p    4401                              ( at time 2.1997798E+00 )

 nodal point  x-rot      y-rot       z-rot       x-rot vel   y-rot vel   z-rot vel   x-rot acc   y-rot acc   z-rot acc
    22626 -2.12974E-04-2.58462E-06-8.47017E-07-1.59346E-04-1.65279E-06-1.05910E-06-9.55088E-05-9.70854E-07-3.16866E-05



 n o d a l   p r i n t   o u t   f o r   t i m e  s t e p    4601                              ( at time 2.2997698E+00 )

 nodal point  x-disp     y-disp      z-disp      x-vel       y-vel       z-vel      x-accl      y-accl      z-accl      x-coor      y-coor      z-coor
    22626 -7.62841E-04 6.55875E-02-1.28515E-01-6.46141E-04 5.01736E-02-9.87566E-02-1.48720E-03 1.02353E-02-2.01379E-02 4.65861E+00-2.81252E+01-4.51102E+01



 n o d a l   p r i n t   o u t   f o r   t i m e  s t e p    4601                              ( at time 2.2997698E+00 )

 nodal point  x-rot      y-rot       z-rot       x-rot vel   y-rot vel   z-rot vel   x-rot acc   y-rot acc   z-rot acc
    22626 -2.29478E-04-2.51793E-06-8.56578E-07-1.61015E-04 8.93146E-07-9.96030E-07-1.66848E-05 2.54619E-05 6.30785E-07



 n o d a l   p r i n t   o u t   f o r   t i m e  s t e p    4801                              ( at time 2.3997598E+00 )

 nodal point  x-disp     y-disp      z-disp      x-vel       y-vel       z-vel      x-accl      y-accl      z-accl      x-coor      y-coor      z-coor
    22626 -8.36738E-04 7.07184E-02-1.38618E-01-7.49422E-04 5.21816E-02-1.03322E-01-1.03292E-03 2.00819E-02-4.56545E-02 4.65854E+00-2.81201E+01-4.51203E+01



 n o d a l   p r i n t   o u t   f o r   t i m e  s t e p    4801                              ( at time 2.3997598E+00 )

 nodal point  x-rot      y-rot       z-rot       x-rot vel   y-rot vel   z-rot vel   x-rot acc   y-rot acc   z-rot acc
    22626 -2.45229E-04-2.50730E-06-5.80157E-07-1.55732E-04 2.58672E-08 4.48083E-06 5.28276E-05-8.67367E-06 5.47741E-05



 n o d a l   p r i n t   o u t   f o r   t i m e  s t e p    5001                              ( at time 2.4997498E+00 )

 nodal point  x-disp     y-disp      z-disp      x-vel       y-vel       z-vel      x-accl      y-accl      z-accl      x-coor      y-coor      z-coor
    22626 -9.15310E-04 7.60428E-02-1.49121E-01-8.82362E-04 5.37686E-02-1.06015E-01-1.32953E-03 1.58717E-02-2.69336E-02 4.65846E+00-2.81148E+01-4.51308E+01



 n o d a l   p r i n t   o u t   f o r   t i m e  s t e p    5001                              ( at time 2.4997498E+00 )

 nodal point  x-rot      y-rot       z-rot       x-rot vel   y-rot vel   z-rot vel   x-rot acc   y-rot acc   z-rot acc
    22626 -2.60904E-04-2.36742E-06-2.85703E-07-1.56624E-04 2.05458E-06 4.86031E-06-8.92048E-06 2.02891E-05 3.79519E-06



 n o d a l   p r i n t   o u t   f o r   t i m e  s t e p    5201                              ( at time 2.5997398E+00 )

 nodal point  x-disp     y-disp      z-disp      x-vel       y-vel       z-vel      x-accl      y-accl      z-accl      x-coor      y-coor      z-coor
    22626 -1.00044E-03 8.14560E-02-1.59737E-01-9.20398E-04 5.45270E-02-1.06243E-01-3.80391E-04 7.58468E-03-2.28376E-03 4.65837E+00-2.81094E+01-4.51415E+01



 n o d a l   p r i n t   o u t   f o r   t i m e  s t e p    5201                              ( at time 2.5997398E+00 )

 nodal point  x-rot      y-rot       z-rot       x-rot vel   y-rot vel   z-rot vel   x-rot acc   y-rot acc   z-rot acc
    22626 -2.76712E-04-1.98021E-06 1.83775E-07-1.57385E-04 5.85360E-06 5.88122E-06-7.60880E-06 3.79941E-05 1.02102E-05



 n o d a l   p r i n t   o u t   f o r   t i m e  s t e p    5401                              ( at time 2.6997298E+00 )

 nodal point  x-disp     y-disp      z-disp      x-vel       y-vel       z-vel      x-accl      y-accl      z-accl      x-coor      y-coor      z-coor
    22626 -1.09144E-03 8.69518E-02-1.70366E-01-7.57640E-04 5.57435E-02-1.06451E-01 1.62774E-03 1.21665E-02-2.08361E-03 4.65828E+00-2.81039E+01-4.51521E+01



 n o d a l   p r i n t   o u t   f o r   t i m e  s t e p    5401                              ( at time 2.6997298E+00 )

 nodal point  x-rot      y-rot       z-rot       x-rot vel   y-rot vel   z-rot vel   x-rot acc   y-rot acc   z-rot acc
    22626 -2.93402E-04-1.48844E-06 7.85018E-07-1.78180E-04 5.98088E-06 4.39464E-06-2.07964E-04 1.27297E-06-1.48673E-05



 n o d a l   p r i n t   o u t   f o r   t i m e  s t e p    5601                              ( at time 2.7997198E+00 )

 nodal point  x-disp     y-disp      z-disp      x-vel       y-vel       z-vel      x-accl      y-accl      z-accl      x-coor      y-coor      z-coor
    22626 -1.17043E-03 9.26333E-02-1.81050E-01-8.01688E-04 5.80223E-02-1.07688E-01-4.40523E-04 2.27898E-02-1.23696E-02 4.65820E+00-2.80982E+01-4.51628E+01



 n o d a l   p r i n t   o u t   f o r   t i m e  s t e p    5601                              ( at time 2.7997198E+00 )

 nodal point  x-rot      y-rot       z-rot       x-rot vel   y-rot vel   z-rot vel   x-rot acc   y-rot acc   z-rot acc
    22626 -3.10938E-04-8.83392E-07 1.33391E-06-1.71584E-04 4.09183E-06 5.40044E-06 6.59667E-05-1.88924E-05 1.00590E-05



 n o d a l   p r i n t   o u t   f o r   t i m e  s t e p    5801                              ( at time 2.8997098E+00 )

 nodal point  x-disp     y-disp      z-disp      x-vel       y-vel       z-vel      x-accl      y-accl      z-accl      x-coor      y-coor      z-coor
    22626 -1.24485E-03 9.85414E-02-1.91932E-01-6.89152E-04 6.03145E-02-1.09878E-01 1.12547E-03 2.29245E-02-2.19048E-02 4.65813E+00-2.80923E+01-4.51737E+01



 n o d a l   p r i n t   o u t   f o r   t i m e  s t e p    5801                              ( at time 2.8997098E+00 )

 nodal point  x-rot      y-rot       z-rot       x-rot vel   y-rot vel   z-rot vel   x-rot acc   y-rot acc   z-rot acc
    22626 -3.28379E-04-6.46227E-07 1.66411E-06-1.83038E-04 8.54191E-07 3.46964E-06-1.14552E-04-3.23797E-05-1.93100E-05



 n o d a l   p r i n t   o u t   f o r   t i m e  s t e p    6001                              ( at time 2.9996998E+00 )

 nodal point  x-disp     y-disp      z-disp      x-vel       y-vel       z-vel      x-accl      y-accl      z-accl      x-coor      y-coor      z-coor
    22626 -1.32965E-03 1.04692E-01-2.02945E-01-7.80804E-04 6.26796E-02-1.09844E-01-9.16613E-04 2.36537E-02 3.47529E-04 4.65805E+00-2.80861E+01-4.51847E+01



 n o d a l   p r i n t   o u t   f o r   t i m e  s t e p    6001                              ( at time 2.9996998E+00 )

 nodal point  x-rot      y-rot       z-rot       x-rot vel   y-rot vel   z-rot vel   x-rot acc   y-rot acc   z-rot acc
    22626 -3.48642E-04-6.29728E-07 1.74187E-06-2.16560E-04-3.30263E-07 1.15500E-06-3.35258E-04-1.18457E-05-2.31487E-05



 n o d a l   p r i n t   o u t   f o r   t i m e  s t e p    6201                              ( at time 3.0996898E+00 )

 nodal point  x-disp     y-disp      z-disp      x-vel       y-vel       z-vel      x-accl      y-accl      z-accl      x-coor      y-coor      z-coor
    22626 -1.39951E-03 1.11109E-01-2.13883E-01-6.92311E-04 6.60211E-02-1.09424E-01 8.85021E-04 3.34180E-02 4.19495E-03 4.65798E+00-2.80797E+01-4.51956E+01



 n o d a l   p r i n t   o u t   f o r   t i m e  s t e p    6201                              ( at time 3.0996898E+00 )

 nodal point  x-rot      y-rot       z-rot       x-rot vel   y-rot vel   z-rot vel   x-rot acc   y-rot acc   z-rot acc
    22626 -3.71696E-04-5.67418E-07 1.92062E-06-2.41321E-04 9.15779E-07 5.12489E-06-2.47631E-04 1.24617E-05 3.97029E-05



 n o d a l   p r i n t   o u t   f o r   t i m e  s t e p    6401                              ( at time 3.1996798E+00 )

 nodal point  x-disp     y-disp      z-disp      x-vel       y-vel       z-vel      x-accl      y-accl      z-accl      x-coor      y-coor      z-coor
    22626 -1.45954E-03 1.17932E-01-2.24936E-01-6.61428E-04 7.05787E-02-1.11807E-01 3.08865E-04 4.55809E-02-2.38280E-02 4.65792E+00-2.80729E+01-4.52067E+01



 n o d a l   p r i n t   o u t   f o r   t i m e  s t e p    6401                              ( at time 3.1996798E+00 )

 nodal point  x-rot      y-rot       z-rot       x-rot vel   y-rot vel   z-rot vel   x-rot acc   y-rot acc   z-rot acc
    22626 -3.97304E-04-3.69411E-07 2.09282E-06-2.63152E-04 1.95699E-06-4.32815E-07-2.18337E-04 1.04132E-05-5.55825E-05



 n o d a l   p r i n t   o u t   f o r   t i m e  s t e p    6601                              ( at time 3.2996698E+00 )

 nodal point  x-disp     y-disp      z-disp      x-vel       y-vel       z-vel      x-accl      y-accl      z-accl      x-coor      y-coor      z-coor
    22626 -1.54180E-03 1.25246E-01-2.36240E-01-9.64498E-04 7.56480E-02-1.13959E-01-3.03101E-03 5.06984E-02-2.15259E-02 4.65783E+00-2.80656E+01-4.52180E+01



 n o d a l   p r i n t   o u t   f o r   t i m e  s t e p    6601                              ( at time 3.2996698E+00 )

 nodal point  x-rot      y-rot       z-rot       x-rot vel   y-rot vel   z-rot vel   x-rot acc   y-rot acc   z-rot acc
    22626 -4.25400E-04-2.33554E-07 2.28420E-06-2.95217E-04 2.60206E-06 2.54196E-06-3.20678E-04 6.45129E-06 2.97508E-05



 n o d a l   p r i n t   o u t   f o r   t i m e  s t e p    6801                              ( at time 3.3996598E+00 )

 nodal point  x-disp     y-disp      z-disp      x-vel       y-vel       z-vel      x-accl      y-accl      z-accl      x-coor      y-coor      z-coor
    22626 -1.63447E-03 1.33067E-01-2.47665E-01-1.00494E-03 8.06954E-02-1.14528E-01-4.04442E-04 5.04783E-02-5.69124E-03 4.65774E+00-2.80578E+01-4.52294E+01



 n o d a l   p r i n t   o u t   f o r   t i m e  s t e p    6801                              ( at time 3.3996598E+00 )

 nodal point  x-rot      y-rot       z-rot       x-rot vel   y-rot vel   z-rot vel   x-rot acc   y-rot acc   z-rot acc
    22626 -4.57000E-04-1.31598E-07 2.59588E-06-3.36046E-04 2.94204E-06 5.15447E-06-4.08335E-04 3.40018E-06 2.61277E-05



 n o d a l   p r i n t   o u t   f o r   t i m e  s t e p    7001                              ( at time 3.4996498E+00 )

 nodal point  x-disp     y-disp      z-disp      x-vel       y-vel       z-vel      x-accl      y-accl      z-accl      x-coor      y-coor      z-coor
    22626 -1.73049E-03 1.41404E-01-2.59082E-01-9.92752E-04 8.61495E-02-1.13741E-01 1.21871E-04 5.45464E-02 7.87599E-03 4.65764E+00-2.80494E+01-4.52408E+01



 n o d a l   p r i n t   o u t   f o r   t i m e  s t e p    7001                              ( at time 3.4996498E+00 )

 nodal point  x-rot      y-rot       z-rot       x-rot vel   y-rot vel   z-rot vel   x-rot acc   y-rot acc   z-rot acc
    22626 -4.93245E-04 2.02329E-07 3.08343E-06-3.81374E-04 4.49936E-06 5.47654E-06-4.53326E-04 1.55747E-05 3.22096E-06



 n o d a l   p r i n t   o u t   f o r   t i m e  s t e p    7201                              ( at time 3.5996397E+00 )

 nodal point  x-disp     y-disp      z-disp      x-vel       y-vel       z-vel      x-accl      y-accl      z-accl      x-coor      y-coor      z-coor
    22626 -1.83174E-03 1.50311E-01-2.70403E-01-9.48166E-04 9.19229E-02-1.13050E-01 4.45909E-04 5.77406E-02 6.90329E-03 4.65754E+00-2.80405E+01-4.52521E+01



 n o d a l   p r i n t   o u t   f o r   t i m e  s t e p    7201                              ( at time 3.5996397E+00 )

 nodal point  x-rot      y-rot       z-rot       x-rot vel   y-rot vel   z-rot vel   x-rot acc   y-rot acc   z-rot acc
    22626 -5.33758E-04 7.34288E-07 3.63969E-06-4.29624E-04 2.88226E-06 6.48956E-07-4.82544E-04-1.61726E-05-4.82807E-05



 n o d a l   p r i n t   o u t   f o r   t i m e  s t e p    7401                              ( at time 3.6996297E+00 )

 nodal point  x-disp     y-disp      z-disp      x-vel       y-vel       z-vel      x-accl      y-accl      z-accl      x-coor      y-coor      z-coor
    22626 -1.94345E-03 1.59853E-01-2.81752E-01-1.20974E-03 9.90806E-02-1.13895E-01-2.61603E-03 7.15840E-02-8.44584E-03 4.65743E+00-2.80310E+01-4.52635E+01



 n o d a l   p r i n t   o u t   f o r   t i m e  s t e p    7401                              ( at time 3.6996297E+00 )

 nodal point  x-rot      y-rot       z-rot       x-rot vel   y-rot vel   z-rot vel   x-rot acc   y-rot acc   z-rot acc
    22626 -5.79388E-04 8.28216E-07 3.56582E-06-4.80742E-04-2.13302E-06-1.81291E-06-5.11229E-04-5.01578E-05-2.46211E-05



 n o d a l   p r i n t   o u t   f o r   t i m e  s t e p    7601                              ( at time 3.7996197E+00 )

 nodal point  x-disp     y-disp      z-disp      x-vel       y-vel       z-vel      x-accl      y-accl      z-accl      x-coor      y-coor      z-coor
    22626 -2.06585E-03 1.70102E-01-2.93142E-01-1.17934E-03 1.06059E-01-1.13713E-01 3.04103E-04 6.97887E-02 1.82304E-03 4.65731E+00-2.80207E+01-4.52749E+01



 n o d a l   p r i n t   o u t   f o r   t i m e  s t e p    7601                              ( at time 3.7996197E+00 )

 nodal point  x-rot      y-rot       z-rot       x-rot vel   y-rot vel   z-rot vel   x-rot acc   y-rot acc   z-rot acc
    22626 -6.30353E-04 5.23770E-07 3.32845E-06-5.41983E-04-7.18139E-06-6.65480E-06-6.12474E-04-5.04888E-05-4.84237E-05



 n o d a l   p r i n t   o u t   f o r   t i m e  s t e p    7801                              ( at time 3.8996097E+00 )

 nodal point  x-disp     y-disp      z-disp      x-vel       y-vel       z-vel      x-accl      y-accl      z-accl      x-coor      y-coor      z-coor
    22626 -2.18498E-03 1.81081E-01-3.04463E-01-1.11981E-03 1.13363E-01-1.12501E-01 5.95268E-04 7.30448E-02 1.21176E-02 4.65719E+00-2.80097E+01-4.52862E+01



 n o d a l   p r i n t   o u t   f o r   t i m e  s t e p    7801                              ( at time 3.8996097E+00 )

 nodal point  x-rot      y-rot       z-rot       x-rot vel   y-rot vel   z-rot vel   x-rot acc   y-rot acc   z-rot acc
    22626 -6.87937E-04-3.10768E-07 2.49201E-06-6.10688E-04-7.32633E-06-8.53265E-06-6.87117E-04-1.44959E-06-1.87804E-05



 n o d a l   p r i n t   o u t   f o r   t i m e  s t e p    8001                              ( at time 3.9995997E+00 )

 nodal point  x-disp     y-disp      z-disp      x-vel       y-vel       z-vel      x-accl      y-accl      z-accl      x-coor      y-coor      z-coor
    22626 -2.30124E-03 1.92837E-01-3.15633E-01-1.12683E-03 1.21815E-01-1.10895E-01-7.01171E-05 8.45327E-02 1.60619E-02 4.65707E+00-2.79980E+01-4.52974E+01



 n o d a l   p r i n t   o u t   f o r   t i m e  s t e p    8001                              ( at time 3.9995997E+00 )

 nodal point  x-rot      y-rot       z-rot       x-rot vel   y-rot vel   z-rot vel   x-rot acc   y-rot acc   z-rot acc
    22626 -7.52638E-04-1.08611E-06 1.44679E-06-6.76871E-04-6.83468E-06-1.00753E-05-6.61897E-04 4.91695E-06-1.54286E-05



 n o d a l   p r i n t   o u t   f o r   t i m e  s t e p    8201                              ( at time 4.0995897E+00 )

 nodal point  x-disp     y-disp      z-disp      x-vel       y-vel       z-vel      x-accl      y-accl      z-accl      x-coor      y-coor      z-coor
    22626 -2.42867E-03 2.05470E-01-3.26713E-01-1.56457E-03 1.30779E-01-1.10908E-01-4.37788E-03 8.96451E-02-1.27268E-04 4.65695E+00-2.79854E+01-4.53084E+01



 n o d a l   p r i n t   o u t   f o r   t i m e  s t e p    8201                              ( at time 4.0995897E+00 )

 nodal point  x-rot      y-rot       z-rot       x-rot vel   y-rot vel   z-rot vel   x-rot acc   y-rot acc   z-rot acc
    22626 -8.23568E-04-2.21111E-06 2.54786E-08-7.43312E-04-1.21094E-05-1.56973E-05-6.64480E-04-5.27527E-05-5.62249E-05



 n o d a l   p r i n t   o u t   f o r   t i m e  s t e p    8401                              ( at time 4.1995797E+00 )

 nodal point  x-disp     y-disp      z-disp      x-vel       y-vel       z-vel      x-accl      y-accl      z-accl      x-coor      y-coor      z-coor
    22626 -2.58560E-03 2.19065E-01-3.37769E-01-1.53891E-03 1.41032E-01-1.10419E-01 2.56597E-04 1.02548E-01 4.88681E-03 4.65679E+00-2.79718E+01-4.53195E+01



 n o d a l   p r i n t   o u t   f o r   t i m e  s t e p    8401                              ( at time 4.1995797E+00 )

 nodal point  x-rot      y-rot       z-rot       x-rot vel   y-rot vel   z-rot vel   x-rot acc   y-rot acc   z-rot acc
    22626 -9.02115E-04-3.40459E-06-1.66858E-06-8.26006E-04-9.65175E-06-1.76378E-05-8.27018E-04 2.45793E-05-1.94072E-05



 n o d a l   p r i n t   o u t   f o r   t i m e  s t e p    8601                              ( at time 4.2995697E+00 )

 nodal point  x-disp     y-disp      z-disp      x-vel       y-vel       z-vel      x-accl      y-accl      z-accl      x-coor      y-coor      z-coor
    22626 -2.74080E-03 2.33682E-01-3.48732E-01-1.68339E-03 1.50877E-01-1.08992E-01-1.44494E-03 9.84518E-02 1.42724E-02 4.65663E+00-2.79571E+01-4.53305E+01



 n o d a l   p r i n t   o u t   f o r   t i m e  s t e p    8601                              ( at time 4.2995697E+00 )

 nodal point  x-rot      y-rot       z-rot       x-rot vel   y-rot vel   z-rot vel   x-rot acc   y-rot acc   z-rot acc
    22626 -9.88450E-04-4.56461E-06-3.11674E-06-9.02775E-04-9.62686E-06-1.45069E-05-7.67767E-04 2.48917E-07 3.13123E-05



 n o d a l   p r i n t   o u t   f o r   t i m e  s t e p    8801                              ( at time 4.3995597E+00 )

 nodal point  x-disp     y-disp      z-disp      x-vel       y-vel       z-vel      x-accl      y-accl      z-accl      x-coor      y-coor      z-coor
    22626 -2.92517E-03 2.49245E-01-3.59461E-01-1.80411E-03 1.60592E-01-1.05888E-01-1.20732E-03 9.71596E-02 3.10426E-02 4.65645E+00-2.79416E+01-4.53412E+01



 n o d a l   p r i n t   o u t   f o r   t i m e  s t e p    8801                              ( at time 4.3995597E+00 )

 nodal point  x-rot      y-rot       z-rot       x-rot vel   y-rot vel   z-rot vel   x-rot acc   y-rot acc   z-rot acc
    22626 -1.08276E-03-5.59495E-06-4.85700E-06-9.86613E-04-1.24616E-05-1.56143E-05-8.38474E-04-2.83498E-05-1.10756E-05



 n o d a l   p r i n t   o u t   f o r   t i m e  s t e p    9001                              ( at time 4.4995497E+00 )

 nodal point  x-disp     y-disp      z-disp      x-vel       y-vel       z-vel      x-accl      y-accl      z-accl      x-coor      y-coor      z-coor
    22626 -3.09676E-03 2.65894E-01-3.69994E-01-1.68602E-03 1.72563E-01-1.05055E-01 1.18106E-03 1.19722E-01 8.33495E-03 4.65628E+00-2.79249E+01-4.53517E+01



 n o d a l   p r i n t   o u t   f o r   t i m e  s t e p    9001                              ( at time 4.4995497E+00 )

 nodal point  x-rot      y-rot       z-rot       x-rot vel   y-rot vel   z-rot vel   x-rot acc   y-rot acc   z-rot acc
    22626 -1.18664E-03-6.66294E-06-6.45284E-06-1.08143E-03-1.21064E-05-1.52890E-05-9.48300E-04 3.55227E-06 3.25359E-06



 n o d a l   p r i n t   o u t   f o r   t i m e  s t e p    9201                              ( at time 4.5995397E+00 )

 nodal point  x-disp     y-disp      z-disp      x-vel       y-vel       z-vel      x-accl      y-accl      z-accl      x-coor      y-coor      z-coor
    22626 -3.28448E-03 2.83733E-01-3.80458E-01-1.85527E-03 1.84250E-01-1.03910E-01-1.69264E-03 1.16886E-01 1.14477E-02 4.65609E+00-2.79071E+01-4.53622E+01



 n o d a l   p r i n t   o u t   f o r   t i m e  s t e p    9201                              ( at time 4.5995397E+00 )

 nodal point  x-rot      y-rot       z-rot       x-rot vel   y-rot vel   z-rot vel   x-rot acc   y-rot acc   z-rot acc
    22626 -1.29929E-03-7.79478E-06-8.41309E-06-1.16776E-03-1.67408E-05-2.44239E-05-8.63312E-04-4.63486E-05-9.13582E-05



 n o d a l   p r i n t   o u t   f o r   t i m e  s t e p    9401                              ( at time 4.6995297E+00 )

 nodal point  x-disp     y-disp      z-disp      x-vel       y-vel       z-vel      x-accl      y-accl      z-accl      x-coor      y-coor      z-coor
    22626 -3.47976E-03 3.02729E-01-3.90746E-01-2.17667E-03 1.96004E-01-1.02086E-01-3.21434E-03 1.17553E-01 1.82392E-02 4.65590E+00-2.78881E+01-4.53725E+01



 n o d a l   p r i n t   o u t   f o r   t i m e  s t e p    9401                              ( at time 4.6995297E+00 )

 nodal point  x-rot      y-rot       z-rot       x-rot vel   y-rot vel   z-rot vel   x-rot acc   y-rot acc   z-rot acc
    22626 -1.42141E-03-9.77341E-06-1.11400E-05-1.27697E-03-2.02065E-05-2.89413E-05-1.09220E-03-3.46607E-05-4.51786E-05



 n o d a l   p r i n t   o u t   f o r   t i m e  s t e p    9601                              ( at time 4.7995197E+00 )

 nodal point  x-disp     y-disp      z-disp      x-vel       y-vel       z-vel      x-accl      y-accl      z-accl      x-coor      y-coor      z-coor
    22626 -3.71359E-03 3.22967E-01-4.00855E-01-2.66639E-03 2.08730E-01-9.96057E-02-4.89768E-03 1.27275E-01 2.48079E-02 4.65566E+00-2.78679E+01-4.53826E+01



 n o d a l   p r i n t   o u t   f o r   t i m e  s t e p    9601                              ( at time 4.7995197E+00 )

 nodal point  x-rot      y-rot       z-rot       x-rot vel   y-rot vel   z-rot vel   x-rot acc   y-rot acc   z-rot acc
    22626 -1.55418E-03-1.23211E-05-1.50247E-05-1.38148E-03-2.68480E-05-4.66668E-05-1.04523E-03-6.64224E-05-1.77273E-04



 n o d a l   p r i n t   o u t   f o r   t i m e  s t e p    9801                              ( at time 4.8995097E+00 )

 nodal point  x-disp     y-disp      z-disp      x-vel       y-vel       z-vel      x-accl      y-accl      z-accl      x-coor      y-coor      z-coor
    22626 -3.98287E-03 3.44477E-01-4.10637E-01-2.69706E-03 2.21601E-01-9.63561E-02-3.06792E-04 1.28723E-01 3.24995E-02 4.65539E+00-2.78464E+01-4.53924E+01



 n o d a l   p r i n t   o u t   f o r   t i m e  s t e p    9801                              ( at time 4.8995097E+00 )

 nodal point  x-rot      y-rot       z-rot       x-rot vel   y-rot vel   z-rot vel   x-rot acc   y-rot acc   z-rot acc
    22626 -1.69690E-03-1.55023E-05-1.99975E-05-1.47681E-03-3.02286E-05-5.22085E-05-9.53380E-04-3.38086E-05-5.54226E-05



 n o d a l   p r i n t   o u t   f o r   t i m e  s t e p   10001                              ( at time 4.9994997E+00 )

 nodal point  x-disp     y-disp      z-disp      x-vel       y-vel       z-vel      x-accl      y-accl      z-accl      x-coor      y-coor      z-coor
    22626 -4.27069E-03 3.67265E-01-4.20198E-01-3.39624E-03 2.34327E-01-9.51162E-02-6.99248E-03 1.27270E-01 1.23997E-02 4.65510E+00-2.78236E+01-4.54019E+01



 n o d a l   p r i n t   o u t   f o r   t i m e  s t e p   10001                              ( at time 4.9994997E+00 )

 nodal point  x-rot      y-rot       z-rot       x-rot vel   y-rot vel   z-rot vel   x-rot acc   y-rot acc   z-rot acc
    22626 -1.84926E-03-1.90415E-05-2.56473E-05-1.57676E-03-4.16798E-05-6.70112E-05-9.99607E-04-1.14523E-04-1.48041E-04



 n o d a l   p r i n t   o u t   f o r   t i m e  s t e p   10202                              ( at time 5.0999896E+00 )

 nodal point  x-disp     y-disp      z-disp      x-vel       y-vel       z-vel      x-accl      y-accl      z-accl      x-coor      y-coor      z-coor
    22626 -4.66756E-03 3.91519E-01-4.29665E-01-4.30852E-03 2.48077E-01-9.31357E-02-9.07836E-03 1.36824E-01 1.97089E-02 4.65471E+00-2.77993E+01-4.54114E+01



 n o d a l   p r i n t   o u t   f o r   t i m e  s t e p   10202                              ( at time 5.0999896E+00 )

 nodal point  x-rot      y-rot       z-rot       x-rot vel   y-rot vel   z-rot vel   x-rot acc   y-rot acc   z-rot acc
    22626 -2.01275E-03-2.35969E-05-3.30953E-05-1.68555E-03-4.89659E-05-8.17238E-05-1.08260E-03-7.25067E-05-1.46409E-04



 n o d a l   p r i n t   o u t   f o r   t i m e  s t e p   10402                              ( at time 5.1999796E+00 )

 nodal point  x-disp     y-disp      z-disp      x-vel       y-vel       z-vel      x-accl      y-accl      z-accl      x-coor      y-coor      z-coor
    22626 -5.11036E-03 4.16960E-01-4.38762E-01-4.71282E-03 2.61126E-01-8.91285E-02-4.04334E-03 1.30506E-01 4.00754E-02 4.65426E+00-2.77739E+01-4.54205E+01



 n o d a l   p r i n t   o u t   f o r   t i m e  s t e p   10402                              ( at time 5.1999796E+00 )

 nodal point  x-rot      y-rot       z-rot       x-rot vel   y-rot vel   z-rot vel   x-rot acc   y-rot acc   z-rot acc
    22626 -2.18598E-03-2.87608E-05-4.12536E-05-1.79024E-03-5.15497E-05-8.69615E-05-1.04702E-03-2.58399E-05-5.23825E-05



 n o d a l   p r i n t   o u t   f o r   t i m e  s t e p   10602                              ( at time 5.2999696E+00 )

 nodal point  x-disp     y-disp      z-disp      x-vel       y-vel       z-vel      x-accl      y-accl      z-accl      x-coor      y-coor      z-coor
    22626 -5.63219E-03 4.43758E-01-4.47512E-01-5.39691E-03 2.75005E-01-8.58441E-02-6.84163E-03 1.38809E-01 3.28477E-02 4.65374E+00-2.77471E+01-4.54292E+01



 n o d a l   p r i n t   o u t   f o r   t i m e  s t e p   10602                              ( at time 5.2999696E+00 )

 nodal point  x-rot      y-rot       z-rot       x-rot vel   y-rot vel   z-rot vel   x-rot acc   y-rot acc   z-rot acc
    22626 -2.37016E-03-3.43776E-05-5.08245E-05-1.89558E-03-6.16217E-05-1.06283E-04-1.05352E-03-1.00731E-04-1.93237E-04



 n o d a l   p r i n t   o u t   f o r   t i m e  s t e p   10802                              ( at time 5.3999596E+00 )

 nodal point  x-disp     y-disp      z-disp      x-vel       y-vel       z-vel      x-accl      y-accl      z-accl      x-coor      y-coor      z-coor
    22626 -6.21644E-03 4.71842E-01-4.55885E-01-6.30648E-03 2.86497E-01-8.11757E-02-9.09664E-03 1.14924E-01 4.66889E-02 4.65316E+00-2.77190E+01-4.54376E+01



 n o d a l   p r i n t   o u t   f o r   t i m e  s t e p   10802                              ( at time 5.3999596E+00 )

 nodal point  x-rot      y-rot       z-rot       x-rot vel   y-rot vel   z-rot vel   x-rot acc   y-rot acc   z-rot acc
    22626 -2.56528E-03-4.06917E-05-6.14232E-05-1.99048E-03-6.62974E-05-1.03796E-04-9.49098E-04-4.67615E-05 2.48762E-05



 n o d a l   p r i n t   o u t   f o r   t i m e  s t e p   11002                              ( at time 5.4999496E+00 )

 nodal point  x-disp     y-disp      z-disp      x-vel       y-vel       z-vel      x-accl      y-accl      z-accl      x-coor      y-coor      z-coor
    22626 -6.83732E-03 5.01129E-01-4.63862E-01-6.19171E-03 2.98317E-01-7.75010E-02 1.14786E-03 1.18219E-01 3.67504E-02 4.65254E+00-2.76897E+01-4.54456E+01



 n o d a l   p r i n t   o u t   f o r   t i m e  s t e p   11002                              ( at time 5.4999496E+00 )

 nodal point  x-rot      y-rot       z-rot       x-rot vel   y-rot vel   z-rot vel   x-rot acc   y-rot acc   z-rot acc
    22626 -2.76986E-03-4.76477E-05-7.21852E-05-2.09553E-03-7.92289E-05-1.18801E-04-1.05062E-03-1.29328E-04-1.50066E-04



 n o d a l   p r i n t   o u t   f o r   t i m e  s t e p   11202                              ( at time 5.5999396E+00 )

 nodal point  x-disp     y-disp      z-disp      x-vel       y-vel       z-vel      x-accl      y-accl      z-accl      x-coor      y-coor      z-coor
    22626 -7.51760E-03 5.31338E-01-4.71206E-01-7.90223E-03 3.07782E-01-7.12185E-02-1.71070E-02 9.46620E-02 6.28311E-02 4.65186E+00-2.76595E+01-4.54529E+01



 n o d a l   p r i n t   o u t   f o r   t i m e  s t e p   11202                              ( at time 5.5999396E+00 )

 nodal point  x-rot      y-rot       z-rot       x-rot vel   y-rot vel   z-rot vel   x-rot acc   y-rot acc   z-rot acc
    22626 -2.98277E-03-5.64572E-05-8.58608E-05-2.19150E-03-8.93878E-05-1.51456E-04-9.59746E-04-1.01599E-04-3.26578E-04



 n o d a l   p r i n t   o u t   f o r   t i m e  s t e p   11402                              ( at time 5.6999296E+00 )

 nodal point  x-disp     y-disp      z-disp      x-vel       y-vel       z-vel      x-accl      y-accl      z-accl      x-coor      y-coor      z-coor
    22626 -8.35412E-03 5.62804E-01-4.78027E-01-8.15975E-03 3.18893E-01-6.49014E-02-2.57539E-03 1.11121E-01 6.31774E-02 4.65102E+00-2.76280E+01-4.54597E+01



 n o d a l   p r i n t   o u t   f o r   t i m e  s t e p   11402                              ( at time 5.6999296E+00 )

 nodal point  x-rot      y-rot       z-rot       x-rot vel   y-rot vel   z-rot vel   x-rot acc   y-rot acc   z-rot acc
    22626 -3.20666E-03-6.62698E-05-1.01644E-04-2.29816E-03-1.00484E-04-1.61497E-04-1.06666E-03-1.10972E-04-1.00422E-04



 n o d a l   p r i n t   o u t   f o r   t i m e  s t e p   11602                              ( at time 5.7999195E+00 )

 nodal point  x-disp     y-disp      z-disp      x-vel       y-vel       z-vel      x-accl      y-accl      z-accl      x-coor      y-coor      z-coor
    22626 -9.10638E-03 5.95238E-01-4.84017E-01-7.27304E-03 3.31393E-01-5.68117E-02 8.86799E-03 1.25007E-01 8.09046E-02 4.65027E+00-2.75956E+01-4.54657E+01



 n o d a l   p r i n t   o u t   f o r   t i m e  s t e p   11602                              ( at time 5.7999195E+00 )

 nodal point  x-rot      y-rot       z-rot       x-rot vel   y-rot vel   z-rot vel   x-rot acc   y-rot acc   z-rot acc
    22626 -3.43906E-03-7.56153E-05-1.16860E-04-2.37266E-03-8.07235E-05-1.39236E-04-7.45103E-04 1.97625E-04 2.22628E-04



 n o d a l   p r i n t   o u t   f o r   t i m e  s t e p   11802                              ( at time 5.8999095E+00 )

 nodal point  x-disp     y-disp      z-disp      x-vel       y-vel       z-vel      x-accl      y-accl      z-accl      x-coor      y-coor      z-coor
    22626 -9.85692E-03 6.28904E-01-4.89545E-01-8.32870E-03 3.41134E-01-5.26173E-02-1.05577E-02 9.74170E-02 4.19486E-02 4.64952E+00-2.75619E+01-4.54713E+01



 n o d a l   p r i n t   o u t   f o r   t i m e  s t e p   11802                              ( at time 5.8999095E+00 )

 nodal point  x-rot      y-rot       z-rot       x-rot vel   y-rot vel   z-rot vel   x-rot acc   y-rot acc   z-rot acc
    22626 -3.67920E-03-8.44906E-05-1.31269E-04-2.44982E-03-1.09712E-04-1.60120E-04-7.71744E-04-2.89917E-04-2.08860E-04



 n o d a l   p r i n t   o u t   f o r   t i m e  s t e p   12002                              ( at time 5.9998995E+00 )

 nodal point  x-disp     y-disp      z-disp      x-vel       y-vel       z-vel      x-accl      y-accl      z-accl      x-coor      y-coor      z-coor
    22626 -1.07963E-02 6.63626E-01-4.94407E-01-1.00109E-02 3.53399E-01-4.46309E-02-1.68240E-02 1.22662E-01 7.98719E-02 4.64858E+00-2.75272E+01-4.54761E+01



 n o d a l   p r i n t   o u t   f o r   t i m e  s t e p   12002                              ( at time 5.9998995E+00 )

 nodal point  x-rot      y-rot       z-rot       x-rot vel   y-rot vel   z-rot vel   x-rot acc   y-rot acc   z-rot acc
    22626 -3.92993E-03-9.64408E-05-1.49217E-04-2.56371E-03-1.23344E-04-1.86975E-04-1.13894E-03-1.36335E-04-2.68579E-04



 n o d a l   p r i n t   o u t   f o r   t i m e  s t e p   12202                              ( at time 6.0998895E+00 )

 nodal point  x-disp     y-disp      z-disp      x-vel       y-vel       z-vel      x-accl      y-accl      z-accl      x-coor      y-coor      z-coor
    22626 -1.17770E-02 6.99445E-01-4.98508E-01-9.34720E-03 3.63893E-01-3.75390E-02 6.63798E-03 1.04951E-01 7.09257E-02 4.64760E+00-2.74914E+01-4.54802E+01



 n o d a l   p r i n t   o u t   f o r   t i m e  s t e p   12202                              ( at time 6.0998895E+00 )

 nodal point  x-rot      y-rot       z-rot       x-rot vel   y-rot vel   z-rot vel   x-rot acc   y-rot acc   z-rot acc
    22626 -4.19037E-03-1.07199E-04-1.66841E-04-2.64608E-03-9.52864E-05-1.66807E-04-8.23769E-04 2.80606E-04 2.01697E-04



 n o d a l   p r i n t   o u t   f o r   t i m e  s t e p   12402                              ( at time 6.1998795E+00 )

 nodal point  x-disp     y-disp      z-disp      x-vel       y-vel       z-vel      x-accl      y-accl      z-accl      x-coor      y-coor      z-coor
    22626 -1.26925E-02 7.36530E-01-5.01937E-01-8.98302E-03 3.76996E-01-3.02765E-02 3.64218E-03 1.31048E-01 7.26331E-02 4.64668E+00-2.74543E+01-4.54837E+01



 n o d a l   p r i n t   o u t   f o r   t i m e  s t e p   12402                              ( at time 6.1998795E+00 )

 nodal point  x-rot      y-rot       z-rot       x-rot vel   y-rot vel   z-rot vel   x-rot acc   y-rot acc   z-rot acc
    22626 -4.46078E-03-1.17156E-04-1.82909E-04-2.75324E-03-1.16781E-04-1.66407E-04-1.07176E-03-2.14971E-04 4.00335E-06



 n o d a l   p r i n t   o u t   f o r   t i m e  s t e p   12602                              ( at time 6.2998695E+00 )

 nodal point  x-disp     y-disp      z-disp      x-vel       y-vel       z-vel      x-accl      y-accl      z-accl      x-coor      y-coor      z-coor
    22626 -1.36942E-02 7.74652E-01-5.04640E-01-1.11359E-02 3.87410E-01-2.37171E-02-2.15309E-02 1.04147E-01 6.56005E-02 4.64568E+00-2.74162E+01-4.54864E+01



 n o d a l   p r i n t   o u t   f o r   t i m e  s t e p   12602                              ( at time 6.2998695E+00 )

 nodal point  x-rot      y-rot       z-rot       x-rot vel   y-rot vel   z-rot vel   x-rot acc   y-rot acc   z-rot acc
    22626 -4.73972E-03-1.29777E-04-2.00861E-04-2.84674E-03-1.28346E-04-2.00394E-04-9.35066E-04-1.15660E-04-3.39903E-04



 n o d a l   p r i n t   o u t   f o r   t i m e  s t e p   12802                              ( at time 6.3998595E+00 )

 nodal point  x-disp     y-disp      z-disp      x-vel       y-vel       z-vel      x-accl      y-accl      z-accl      x-coor      y-coor      z-coor
    22626 -1.48583E-02 8.14015E-01-5.06541E-01-1.13520E-02 3.99187E-01-1.52813E-02-2.16144E-03 1.17784E-01 8.43663E-02 4.64452E+00-2.73768E+01-4.54883E+01



 n o d a l   p r i n t   o u t   f o r   t i m e  s t e p   12802                              ( at time 6.3998595E+00 )

 nodal point  x-rot      y-rot       z-rot       x-rot vel   y-rot vel   z-rot vel   x-rot acc   y-rot acc   z-rot acc
    22626 -5.02807E-03-1.41533E-04-2.20963E-04-2.95321E-03-1.13602E-04-1.91530E-04-1.06487E-03 1.47460E-04 8.86473E-05



 n o d a l   p r i n t   o u t   f o r   t i m e  s t e p   13002                              ( at time 6.4998495E+00 )

 nodal point  x-disp     y-disp      z-disp      x-vel       y-vel       z-vel      x-accl      y-accl      z-accl      x-coor      y-coor      z-coor
    22626 -1.58809E-02 8.54564E-01-5.07631E-01-9.15404E-03 4.10561E-01-6.84290E-03 2.19819E-02 1.13750E-01 8.43926E-02 4.64349E+00-2.73363E+01-4.54893E+01



 n o d a l   p r i n t   o u t   f o r   t i m e  s t e p   13002                              ( at time 6.4998495E+00 )

 nodal point  x-rot      y-rot       z-rot       x-rot vel   y-rot vel   z-rot vel   x-rot acc   y-rot acc   z-rot acc
    22626 -5.32822E-03-1.52285E-04-2.37657E-04-3.04788E-03-1.01904E-04-1.56810E-04-9.46729E-04 1.16985E-04 3.47236E-04



 n o d a l   p r i n t   o u t   f o r   t i m e  s t e p   13202                              ( at time 6.5998395E+00 )

 nodal point  x-disp     y-disp      z-disp      x-vel       y-vel       z-vel      x-accl      y-accl      z-accl      x-coor      y-coor      z-coor
    22626 -1.68856E-02 8.96184E-01-5.07775E-01-1.14146E-02 4.21769E-01 3.62561E-03-2.26075E-02 1.12088E-01 1.04695E-01 4.64249E+00-2.72946E+01-4.54895E+01



 n o d a l   p r i n t   o u t   f o r   t i m e  s t e p   13202                              ( at time 6.5998395E+00 )

 nodal point  x-rot      y-rot       z-rot       x-rot vel   y-rot vel   z-rot vel   x-rot acc   y-rot acc   z-rot acc
    22626 -5.63665E-03-1.64214E-04-2.55931E-04-3.13692E-03-1.37253E-04-2.13843E-04-8.90472E-04-3.53523E-04-5.70386E-04



 n o d a l   p r i n t   o u t   f o r   t i m e  s t e p   13402                              ( at time 6.6998295E+00 )

 nodal point  x-disp     y-disp      z-disp      x-vel       y-vel       z-vel      x-accl      y-accl      z-accl      x-coor      y-coor      z-coor
    22626 -1.81171E-02 9.38960E-01-5.06956E-01-1.30841E-02 4.34224E-01 1.30506E-02-1.66972E-02 1.24562E-01 9.42595E-02 4.64126E+00-2.72519E+01-4.54887E+01



 n o d a l   p r i n t   o u t   f o r   t i m e  s t e p   13402                              ( at time 6.6998295E+00 )

 nodal point  x-rot      y-rot       z-rot       x-rot vel   y-rot vel   z-rot vel   x-rot acc   y-rot acc   z-rot acc
    22626 -5.95524E-03-1.78037E-04-2.76973E-04-3.24154E-03-1.21919E-04-1.92141E-04-1.04630E-03 1.53362E-04 2.17043E-04



 n o d a l   p r i n t   o u t   f o r   t i m e  s t e p   13602                              ( at time 6.7998195E+00 )

 nodal point  x-disp     y-disp      z-disp      x-vel       y-vel       z-vel      x-accl      y-accl      z-accl      x-coor      y-coor      z-coor
    22626 -1.92710E-02 9.82919E-01-5.05206E-01-9.76677E-03 4.44966E-01 2.23806E-02 3.31770E-02 1.07436E-01 9.33098E-02 4.64010E+00-2.72079E+01-4.54869E+01



 n o d a l   p r i n t   o u t   f o r   t i m e  s t e p   13602                              ( at time 6.7998195E+00 )

 nodal point  x-rot      y-rot       z-rot       x-rot vel   y-rot vel   z-rot vel   x-rot acc   y-rot acc   z-rot acc
    22626 -6.28461E-03-1.88266E-04-2.95242E-04-3.35947E-03-9.79694E-05-1.91706E-04-1.17942E-03 2.39515E-04 4.35015E-06



 n o d a l   p r i n t   o u t   f o r   t i m e  s t e p   13802                              ( at time 6.8998095E+00 )

 nodal point  x-disp     y-disp      z-disp      x-vel       y-vel       z-vel      x-accl      y-accl      z-accl      x-coor      y-coor      z-coor
    22626 -2.03000E-02 1.02802E+00-5.02392E-01-1.19013E-02 4.56949E-01 3.25520E-02-2.13474E-02 1.19841E-01 1.01724E-01 4.63907E+00-2.71628E+01-4.54841E+01



 n o d a l   p r i n t   o u t   f o r   t i m e  s t e p   13802                              ( at time 6.8998095E+00 )

 nodal point  x-rot      y-rot       z-rot       x-rot vel   y-rot vel   z-rot vel   x-rot acc   y-rot acc   z-rot acc
    22626 -6.62484E-03-2.00245E-04-3.14087E-04-3.45556E-03-1.37164E-04-1.84163E-04-9.61033E-04-3.91981E-04 7.54388E-05



 n o d a l   p r i n t   o u t   f o r   t i m e  s t e p   14002                              ( at time 6.9997995E+00 )

 nodal point  x-disp     y-disp      z-disp      x-vel       y-vel       z-vel      x-accl      y-accl      z-accl      x-coor      y-coor      z-coor
    22626 -2.16075E-02 1.07425E+00-4.98628E-01-1.36763E-02 4.67960E-01 4.29455E-02-1.77521E-02 1.10124E-01 1.03945E-01 4.63777E+00-2.71166E+01-4.54803E+01



 n o d a l   p r i n t   o u t   f o r   t i m e  s t e p   14002                              ( at time 6.9997995E+00 )

 nodal point  x-rot      y-rot       z-rot       x-rot vel   y-rot vel   z-rot vel   x-rot acc   y-rot acc   z-rot acc
    22626 -6.97451E-03-2.14029E-04-3.34420E-04-3.54128E-03-1.34682E-04-2.13233E-04-8.57330E-04 2.48185E-05-2.90731E-04



 n o d a l   p r i n t   o u t   f o r   t i m e  s t e p   14202                              ( at time 7.0997895E+00 )

 nodal point  x-disp     y-disp      z-disp      x-vel       y-vel       z-vel      x-accl      y-accl      z-accl      x-coor      y-coor      z-coor
    22626 -2.28723E-02 1.12170E+00-4.93757E-01-1.15855E-02 4.80435E-01 5.54147E-02 2.09108E-02 1.24763E-01 1.24704E-01 4.63650E+00-2.70691E+01-4.54755E+01



 n o d a l   p r i n t   o u t   f o r   t i m e  s t e p   14202                              ( at time 7.0997895E+00 )

 nodal point  x-rot      y-rot       z-rot       x-rot vel   y-rot vel   z-rot vel   x-rot acc   y-rot acc   z-rot acc
    22626 -7.33521E-03-2.25923E-04-3.56058E-04-3.65676E-03-9.75494E-05-1.95545E-04-1.15486E-03 3.71361E-04 1.76900E-04



 n o d a l   p r i n t   o u t   f o r   t i m e  s t e p   14402                              ( at time 7.1997794E+00 )

 nodal point  x-disp     y-disp      z-disp      x-vel       y-vel       z-vel      x-accl      y-accl      z-accl      x-coor      y-coor      z-coor
    22626 -2.40544E-02 1.17027E+00-4.87684E-01-1.20895E-02 4.91508E-01 6.56658E-02-5.04143E-03 1.10734E-01 1.02521E-01 4.63532E+00-2.70206E+01-4.54694E+01



 n o d a l   p r i n t   o u t   f o r   t i m e  s t e p   14402                              ( at time 7.1997794E+00 )

 nodal point  x-rot      y-rot       z-rot       x-rot vel   y-rot vel   z-rot vel   x-rot acc   y-rot acc   z-rot acc
    22626 -7.70633E-03-2.36141E-04-3.73987E-04-3.76036E-03-1.28562E-04-1.96742E-04-1.03616E-03-3.10160E-04-1.19728E-05



 n o d a l   p r i n t   o u t   f o r   t i m e  s t e p   14602                              ( at time 7.2997694E+00 )

 nodal point  x-disp     y-disp      z-disp      x-vel       y-vel       z-vel      x-accl      y-accl      z-accl      x-coor      y-coor      z-coor
    22626 -2.54046E-02 1.22004E+00-4.80514E-01-1.48755E-02 5.03294E-01 7.79346E-02-2.78623E-02 1.17872E-01 1.22701E-01 4.63397E+00-2.69708E+01-4.54622E+01



 n o d a l   p r i n t   o u t   f o r   t i m e  s t e p   14602                              ( at time 7.2997694E+00 )

 nodal point  x-rot      y-rot       z-rot       x-rot vel   y-rot vel   z-rot vel   x-rot acc   y-rot acc   z-rot acc
    22626 -8.08745E-03-2.51698E-04-3.96582E-04-3.87546E-03-1.58395E-04-2.45812E-04-1.15106E-03-2.98354E-04-4.90754E-04



 n o d a l   p r i n t   o u t   f o r   t i m e  s t e p   14802                              ( at time 7.3997594E+00 )

 nodal point  x-disp     y-disp      z-disp      x-vel       y-vel       z-vel      x-accl      y-accl      z-accl      x-coor      y-coor      z-coor
    22626 -2.68202E-02 1.27089E+00-4.71990E-01-1.31636E-02 5.14545E-01 9.21672E-02 1.71203E-02 1.12529E-01 1.42340E-01 4.63256E+00-2.69199E+01-4.54537E+01



 n o d a l   p r i n t   o u t   f o r   t i m e  s t e p   14802                              ( at time 7.3997594E+00 )

 nodal point  x-rot      y-rot       z-rot       x-rot vel   y-rot vel   z-rot vel   x-rot acc   y-rot acc   z-rot acc
    22626 -8.48037E-03-2.64200E-04-4.18505E-04-3.97979E-03-9.86016E-05-1.92474E-04-1.04344E-03 5.97992E-04 5.33442E-04



 n o d a l   p r i n t   o u t   f o r   t i m e  s t e p   15002                              ( at time 7.4997494E+00 )

 nodal point  x-disp     y-disp      z-disp      x-vel       y-vel       z-vel      x-accl      y-accl      z-accl      x-coor      y-coor      z-coor
    22626 -2.81150E-02 1.32289E+00-4.62154E-01-1.31604E-02 5.25611E-01 1.05630E-01 3.18729E-05 1.10667E-01 1.34641E-01 4.63126E+00-2.68679E+01-4.54439E+01



 n o d a l   p r i n t   o u t   f o r   t i m e  s t e p   15002                              ( at time 7.4997494E+00 )

 nodal point  x-rot      y-rot       z-rot       x-rot vel   y-rot vel   z-rot vel   x-rot acc   y-rot acc   z-rot acc
    22626 -8.88424E-03-2.75889E-04-4.39505E-04-4.08692E-03-1.44726E-04-2.39085E-04-1.07140E-03-4.61290E-04-4.66162E-04



 n o d a l   p r i n t   o u t   f o r   t i m e  s t e p   15202                              ( at time 7.5997394E+00 )

 nodal point  x-disp     y-disp      z-disp      x-vel       y-vel       z-vel      x-accl      y-accl      z-accl      x-coor      y-coor      z-coor
    22626 -2.95136E-02 1.37598E+00-4.50972E-01-1.46631E-02 5.36336E-01 1.18376E-01-1.50284E-02 1.07264E-01 1.27474E-01 4.62986E+00-2.68149E+01-4.54327E+01



 n o d a l   p r i n t   o u t   f o r   t i m e  s t e p   15202                              ( at time 7.5997394E+00 )

 nodal point  x-rot      y-rot       z-rot       x-rot vel   y-rot vel   z-rot vel   x-rot acc   y-rot acc   z-rot acc
    22626 -9.29905E-03-2.91235E-04-4.63400E-04-4.20204E-03-1.49673E-04-2.19827E-04-1.15127E-03-4.94758E-05 1.92603E-04



 n o d a l   p r i n t   o u t   f o r   t i m e  s t e p   15402                              ( at time 7.6997294E+00 )

 nodal point  x-disp     y-disp      z-disp      x-vel       y-vel       z-vel      x-accl      y-accl      z-accl      x-coor      y-coor      z-coor
    22626 -3.09781E-02 1.43019E+00-4.38505E-01-1.45906E-02 5.47678E-01 1.31104E-01 7.25667E-04 1.13425E-01 1.27291E-01 4.62840E+00-2.67606E+01-4.54202E+01



 n o d a l   p r i n t   o u t   f o r   t i m e  s t e p   15402                              ( at time 7.6997294E+00 )

 nodal point  x-rot      y-rot       z-rot       x-rot vel   y-rot vel   z-rot vel   x-rot acc   y-rot acc   z-rot acc
    22626 -9.72457E-03-3.05108E-04-4.85732E-04-4.32379E-03-1.40599E-04-2.42280E-04-1.21768E-03 9.07488E-05-2.24548E-04



 n o d a l   p r i n t   o u t   f o r   t i m e  s t e p   15602                              ( at time 7.7997194E+00 )

 nodal point  x-disp     y-disp      z-disp      x-vel       y-vel       z-vel      x-accl      y-accl      z-accl      x-coor      y-coor      z-coor
    22626 -3.24501E-02 1.48562E+00-4.24633E-01-1.46897E-02 5.60444E-01 1.45327E-01-9.91521E-04 1.27679E-01 1.42241E-01 4.62692E+00-2.67052E+01-4.54064E+01



 n o d a l   p r i n t   o u t   f o r   t i m e  s t e p   15602                              ( at time 7.7997194E+00 )

 nodal point  x-rot      y-rot       z-rot       x-rot vel   y-rot vel   z-rot vel   x-rot acc   y-rot acc   z-rot acc
    22626 -1.01624E-02-3.18850E-04-5.10001E-04-4.44534E-03-1.33890E-04-2.39259E-04-1.21565E-03 6.70972E-05 3.02066E-05



 n o d a l   p r i n t   o u t   f o r   t i m e  s t e p   15802                              ( at time 7.8997094E+00 )

 nodal point  x-disp     y-disp      z-disp      x-vel       y-vel       z-vel      x-accl      y-accl      z-accl      x-coor      y-coor      z-coor
    22626 -3.38933E-02 1.54220E+00-4.09428E-01-1.47837E-02 5.72103E-01 1.59467E-01-9.39623E-04 1.16593E-01 1.41421E-01 4.62548E+00-2.66486E+01-4.53911E+01



 n o d a l   p r i n t   o u t   f o r   t i m e  s t e p   15802                              ( at time 7.8997094E+00 )

 nodal point  x-rot      y-rot       z-rot       x-rot vel   y-rot vel   z-rot vel   x-rot acc   y-rot acc   z-rot acc
    22626 -1.06124E-02-3.33176E-04-5.33432E-04-4.54221E-03-1.55830E-04-2.39286E-04-9.68706E-04-2.19421E-04-2.70547E-07



 n o d a l   p r i n t   o u t   f o r   t i m e  s t e p   16002                              ( at time 7.9996994E+00 )

 nodal point  x-disp     y-disp      z-disp      x-vel       y-vel       z-vel      x-accl      y-accl      z-accl      x-coor      y-coor      z-coor
    22626 -3.54416E-02 1.59996E+00-3.92801E-01-1.58635E-02 5.83224E-01 1.74317E-01-1.07997E-02 1.11222E-01 1.48515E-01 4.62393E+00-2.65909E+01-4.53745E+01



 n o d a l   p r i n t   o u t   f o r   t i m e  s t e p   16002                              ( at time 7.9996994E+00 )

 nodal point  x-rot      y-rot       z-rot       x-rot vel   y-rot vel   z-rot vel   x-rot acc   y-rot acc   z-rot acc
    22626 -1.10732E-02-3.48128E-04-5.57732E-04-4.64454E-03-1.41581E-04-2.47955E-04-1.02346E-03 1.42507E-04-8.66966E-05



 n o d a l   p r i n t   o u t   f o r   t i m e  s t e p   16202                              ( at time 8.0996894E+00 )

 nodal point  x-disp     y-disp      z-disp      x-vel       y-vel       z-vel      x-accl      y-accl      z-accl      x-coor      y-coor      z-coor
    22626 -3.70093E-02 1.65875E+00-3.74679E-01-1.48651E-02 5.92952E-01 1.87867E-01 9.98529E-03 9.72894E-02 1.35506E-01 4.62237E+00-2.65321E+01-4.53564E+01



 n o d a l   p r i n t   o u t   f o r   t i m e  s t e p   16202                              ( at time 8.0996894E+00 )

 nodal point  x-rot      y-rot       z-rot       x-rot vel   y-rot vel   z-rot vel   x-rot acc   y-rot acc   z-rot acc
    22626 -1.15447E-02-3.61980E-04-5.81208E-04-4.79115E-03-1.43169E-04-2.33477E-04-1.46618E-03-1.58833E-05 1.44791E-04



 n o d a l   p r i n t   o u t   f o r   t i m e  s t e p   16402                              ( at time 8.1996794E+00 )

 nodal point  x-disp     y-disp      z-disp      x-vel       y-vel       z-vel      x-accl      y-accl      z-accl      x-coor      y-coor      z-coor
    22626 -3.84796E-02 1.71867E+00-3.55034E-01-1.53761E-02 6.03900E-01 2.04084E-01-5.11050E-03 1.09497E-01 1.62192E-01 4.62090E+00-2.64722E+01-4.53368E+01



 n o d a l   p r i n t   o u t   f o r   t i m e  s t e p   16402                              ( at time 8.1996794E+00 )

 nodal point  x-rot      y-rot       z-rot       x-rot vel   y-rot vel   z-rot vel   x-rot acc   y-rot acc   z-rot acc
    22626 -1.20295E-02-3.75685E-04-6.04263E-04-4.91530E-03-1.41607E-04-2.33185E-04-1.24163E-03 1.56185E-05 2.92974E-06



 n o d a l   p r i n t   o u t   f o r   t i m e  s t e p   16602                              ( at time 8.2996694E+00 )

 nodal point  x-disp     y-disp      z-disp      x-vel       y-vel       z-vel      x-accl      y-accl      z-accl      x-coor      y-coor      z-coor
    22626 -4.00648E-02 1.77967E+00-3.33795E-01-1.62672E-02 6.15203E-01 2.19780E-01-8.91183E-03 1.13042E-01 1.56975E-01 4.61931E+00-2.64112E+01-4.53155E+01



 n o d a l   p r i n t   o u t   f o r   t i m e  s t e p   16602                              ( at time 8.2996694E+00 )

 nodal point  x-rot      y-rot       z-rot       x-rot vel   y-rot vel   z-rot vel   x-rot acc   y-rot acc   z-rot acc
    22626 -1.25256E-02-3.90544E-04-6.28233E-04-5.02672E-03-1.52697E-04-2.49623E-04-1.11436E-03-1.10912E-04-1.64397E-04



 n o d a l   p r i n t   o u t   f o r   t i m e  s t e p   16802                              ( at time 8.3996594E+00 )

 nodal point  x-disp     y-disp      z-disp      x-vel       y-vel       z-vel      x-accl      y-accl      z-accl      x-coor      y-coor      z-coor
    22626 -4.17024E-02 1.84169E+00-3.10951E-01-1.55817E-02 6.25723E-01 2.37374E-01 6.85538E-03 1.05212E-01 1.75963E-01 4.61767E+00-2.63491E+01-4.52927E+01



 n o d a l   p r i n t   o u t   f o r   t i m e  s t e p   16802                              ( at time 8.3996594E+00 )

 nodal point  x-rot      y-rot       z-rot       x-rot vel   y-rot vel   z-rot vel   x-rot acc   y-rot acc   z-rot acc
    22626 -1.30342E-02-4.05567E-04-6.53090E-04-5.14391E-03-1.38561E-04-2.44907E-04-1.17199E-03 1.41375E-04 4.71570E-05



 n o d a l   p r i n t   o u t   f o r   t i m e  s t e p   17002                              ( at time 8.4996494E+00 )

 nodal point  x-disp     y-disp      z-disp      x-vel       y-vel       z-vel      x-accl      y-accl      z-accl      x-coor      y-coor      z-coor
    22626 -4.32176E-02 1.90489E+00-2.86418E-01-1.57008E-02 6.37927E-01 2.53820E-01-1.19083E-03 1.22048E-01 1.64476E-01 4.61616E+00-2.62859E+01-4.52681E+01



 n o d a l   p r i n t   o u t   f o r   t i m e  s t e p   17002                              ( at time 8.4996494E+00 )

 nodal point  x-rot      y-rot       z-rot       x-rot vel   y-rot vel   z-rot vel   x-rot acc   y-rot acc   z-rot acc
    22626 -1.35556E-02-4.19515E-04-6.77040E-04-5.26819E-03-1.38964E-04-2.36496E-04-1.24298E-03-4.02445E-06 8.41259E-05



 n o d a l   p r i n t   o u t   f o r   t i m e  s t e p   17202                              ( at time 8.5996394E+00 )

 nodal point  x-disp     y-disp      z-disp      x-vel       y-vel       z-vel      x-accl      y-accl      z-accl      x-coor      y-coor      z-coor
    22626 -4.48183E-02 1.96913E+00-2.60296E-01-1.60451E-02 6.47787E-01 2.69460E-01-3.44343E-03 9.86080E-02 1.56414E-01 4.61456E+00-2.62217E+01-4.52420E+01



 n o d a l   p r i n t   o u t   f o r   t i m e  s t e p   17202                              ( at time 8.5996394E+00 )

 nodal point  x-rot      y-rot       z-rot       x-rot vel   y-rot vel   z-rot vel   x-rot acc   y-rot acc   z-rot acc
    22626 -1.40898E-02-4.33917E-04-7.01605E-04-5.41052E-03-1.55440E-04-2.52682E-04-1.42337E-03-1.64782E-04-1.61881E-04



 n o d a l   p r i n t   o u t   f o r   t i m e  s t e p   17402                              ( at time 8.6996293E+00 )

 nodal point  x-disp     y-disp      z-disp      x-vel       y-vel       z-vel      x-accl      y-accl      z-accl      x-coor      y-coor      z-coor
    22626 -4.64145E-02 2.03452E+00-2.32426E-01-1.60414E-02 6.59919E-01 2.87399E-01 3.73867E-05 1.21335E-01 1.79406E-01 4.61296E+00-2.61563E+01-4.52141E+01



 n o d a l   p r i n t   o u t   f o r   t i m e  s t e p   17402                              ( at time 8.6996293E+00 )

 nodal point  x-rot      y-rot       z-rot       x-rot vel   y-rot vel   z-rot vel   x-rot acc   y-rot acc   z-rot acc
    22626 -1.46371E-02-4.49415E-04-7.26202E-04-5.54199E-03-1.45644E-04-2.32564E-04-1.31488E-03 9.79713E-05 2.01202E-04



 n o d a l   p r i n t   o u t   f o r   t i m e  s t e p   17602                              ( at time 8.7996193E+00 )

 nodal point  x-disp     y-disp      z-disp      x-vel       y-vel       z-vel      x-accl      y-accl      z-accl      x-coor      y-coor      z-coor
    22626 -4.80227E-02 2.10103E+00-2.02793E-01-1.55871E-02 6.70107E-01 3.05520E-01 4.54326E-03 1.01888E-01 1.81231E-01 4.61135E+00-2.60898E+01-4.51845E+01



 n o d a l   p r i n t   o u t   f o r   t i m e  s t e p   17602                              ( at time 8.7996193E+00 )

 nodal point  x-rot      y-rot       z-rot       x-rot vel   y-rot vel   z-rot vel   x-rot acc   y-rot acc   z-rot acc
    22626 -1.51971E-02-4.62739E-04-7.49727E-04-5.65483E-03-1.27012E-04-2.41408E-04-1.12854E-03 1.86341E-04-8.84479E-05



 n o d a l   p r i n t   o u t   f o r   t i m e  s t e p   17802                              ( at time 8.8996093E+00 )

 nodal point  x-disp     y-disp      z-disp      x-vel       y-vel       z-vel      x-accl      y-accl      z-accl      x-coor      y-coor      z-coor
    22626 -4.95727E-02 2.16849E+00-1.71315E-01-1.61015E-02 6.79312E-01 3.23759E-01-5.14465E-03 9.20609E-02 1.82403E-01 4.60980E+00-2.60223E+01-4.51530E+01



 n o d a l   p r i n t   o u t   f o r   t i m e  s t e p   17802                              ( at time 8.8996093E+00 )

 nodal point  x-rot      y-rot       z-rot       x-rot vel   y-rot vel   z-rot vel   x-rot acc   y-rot acc   z-rot acc
    22626 -1.57691E-02-4.76869E-04-7.74720E-04-5.77735E-03-1.52622E-04-2.50658E-04-1.22529E-03-2.56133E-04-9.25106E-05



 n o d a l   p r i n t   o u t   f o r   t i m e  s t e p   18002                              ( at time 8.9995993E+00 )

 nodal point  x-disp     y-disp      z-disp      x-vel       y-vel       z-vel      x-accl      y-accl      z-accl      x-coor      y-coor      z-coor
    22626 -5.12312E-02 2.23704E+00-1.38058E-01-1.69067E-02 6.90541E-01 3.41430E-01-8.05277E-03 1.12303E-01 1.76728E-01 4.60814E+00-2.59538E+01-4.51198E+01



 n o d a l   p r i n t   o u t   f o r   t i m e  s t e p   18002                              ( at time 8.9995993E+00 )

 nodal point  x-rot      y-rot       z-rot       x-rot vel   y-rot vel   z-rot vel   x-rot acc   y-rot acc   z-rot acc
    22626 -1.63536E-02-4.91351E-04-7.99622E-04-5.91518E-03-1.35115E-04-2.48411E-04-1.37847E-03 1.75088E-04 2.24696E-05



 n o d a l   p r i n t   o u t   f o r   t i m e  s t e p   18202                              ( at time 9.0995893E+00 )

 nodal point  x-disp     y-disp      z-disp      x-vel       y-vel       z-vel      x-accl      y-accl      z-accl      x-coor      y-coor      z-coor
    22626 -5.28038E-02 2.30659E+00-1.02918E-01-1.46335E-02 7.00491E-01 3.60619E-01 2.27338E-02 9.95099E-02 1.91911E-01 4.60657E+00-2.58842E+01-4.50846E+01



 n o d a l   p r i n t   o u t   f o r   t i m e  s t e p   18202                              ( at time 9.0995893E+00 )

 nodal point  x-rot      y-rot       z-rot       x-rot vel   y-rot vel   z-rot vel   x-rot acc   y-rot acc   z-rot acc
    22626 -1.69514E-02-5.04078E-04-8.24268E-04-6.05550E-03-1.38714E-04-2.40590E-04-1.40333E-03-3.59848E-05 7.82166E-05



 n o d a l   p r i n t   o u t   f o r   t i m e  s t e p   18402                              ( at time 9.1995793E+00 )

 nodal point  x-disp     y-disp      z-disp      x-vel       y-vel       z-vel      x-accl      y-accl      z-accl      x-coor      y-coor      z-coor
    22626 -5.43339E-02 2.37713E+00-6.58550E-02-1.50277E-02 7.10006E-01 3.80114E-01-3.94207E-03 9.51595E-02 1.94965E-01 4.60504E+00-2.58137E+01-4.50476E+01



 n o d a l   p r i n t   o u t   f o r   t i m e  s t e p   18402                              ( at time 9.1995793E+00 )

 nodal point  x-rot      y-rot       z-rot       x-rot vel   y-rot vel   z-rot vel   x-rot acc   y-rot acc   z-rot acc
    22626 -1.75622E-02-5.17391E-04-8.47368E-04-6.16546E-03-1.23362E-04-2.25702E-04-1.09970E-03 1.53534E-04 1.48892E-04



 n o d a l   p r i n t   o u t   f o r   t i m e  s t e p   18602                              ( at time 9.2995693E+00 )

 nodal point  x-disp     y-disp      z-disp      x-vel       y-vel       z-vel      x-accl      y-accl      z-accl      x-coor      y-coor      z-coor
    22626 -5.58013E-02 2.44866E+00-2.68818E-02-1.44053E-02 7.20921E-01 3.99036E-01 6.22429E-03 1.09155E-01 1.89246E-01 4.60357E+00-2.57422E+01-4.50086E+01



 n o d a l   p r i n t   o u t   f o r   t i m e  s t e p   18602                              ( at time 9.2995693E+00 )

 nodal point  x-rot      y-rot       z-rot       x-rot vel   y-rot vel   z-rot vel   x-rot acc   y-rot acc   z-rot acc
    22626 -1.81849E-02-5.29059E-04-8.70224E-04-6.29368E-03-1.12878E-04-2.34802E-04-1.28231E-03 1.04849E-04-9.10041E-05



 n o d a l   p r i n t   o u t   f o r   t i m e  s t e p   18802                              ( at time 9.3995593E+00 )

 nodal point  x-disp     y-disp      z-disp      x-vel       y-vel       z-vel      x-accl      y-accl      z-accl      x-coor      y-coor      z-coor
    22626 -5.72843E-02 2.52118E+00 1.40393E-02-1.50293E-02 7.29880E-01 4.19506E-01-6.23999E-03 8.96080E-02 2.04714E-01 4.60209E+00-2.56697E+01-4.49677E+01



 n o d a l   p r i n t   o u t   f o r   t i m e  s t e p   18802                              ( at time 9.3995593E+00 )

 nodal point  x-rot      y-rot       z-rot       x-rot vel   y-rot vel   z-rot vel   x-rot acc   y-rot acc   z-rot acc
    22626 -1.88201E-02-5.40957E-04-8.93127E-04-6.40994E-03-1.13829E-04-2.26566E-04-1.16274E-03-9.51711E-06 8.23643E-05



 n o d a l   p r i n t   o u t   f o r   t i m e  s t e p   19002                              ( at time 9.4995493E+00 )

 nodal point  x-disp     y-disp      z-disp      x-vel       y-vel       z-vel      x-accl      y-accl      z-accl      x-coor      y-coor      z-coor
    22626 -5.86513E-02 2.59467E+00 5.69197E-02-1.28418E-02 7.39902E-01 4.38341E-01 2.18766E-02 1.00229E-01 1.88369E-01 4.60072E+00-2.55962E+01-4.49248E+01



 n o d a l   p r i n t   o u t   f o r   t i m e  s t e p   19002                              ( at time 9.4995493E+00 )

 nodal point  x-rot      y-rot       z-rot       x-rot vel   y-rot vel   z-rot vel   x-rot acc   y-rot acc   z-rot acc
    22626 -1.94683E-02-5.51805E-04-9.14099E-04-6.54947E-03-1.04327E-04-2.03226E-04-1.39543E-03 9.50346E-05 2.33430E-04



 n o d a l   p r i n t   o u t   f o r   t i m e  s t e p   19202                              ( at time 9.5995393E+00 )

 nodal point  x-disp     y-disp      z-disp      x-vel       y-vel       z-vel      x-accl      y-accl      z-accl      x-coor      y-coor      z-coor
    22626 -5.99009E-02 2.66908E+00 1.01758E-01-1.27444E-02 7.49478E-01 4.58746E-01 9.74346E-04 9.57666E-02 2.04071E-01 4.59947E+00-2.55218E+01-4.48800E+01



 n o d a l   p r i n t   o u t   f o r   t i m e  s t e p   19202                              ( at time 9.5995393E+00 )

 nodal point  x-rot      y-rot       z-rot       x-rot vel   y-rot vel   z-rot vel   x-rot acc   y-rot acc   z-rot acc
    22626 -2.01289E-02-5.61892E-04-9.33546E-04-6.65956E-03-1.02073E-04-1.95084E-04-1.10094E-03 2.25390E-05 8.14240E-05



 n o d a l   p r i n t   o u t   f o r   t i m e  s t e p   19402                              ( at time 9.6995293E+00 )

 nodal point  x-disp     y-disp      z-disp      x-vel       y-vel       z-vel      x-accl      y-accl      z-accl      x-coor      y-coor      z-coor
    22626 -6.11813E-02 2.74448E+00 1.48622E-01-1.24228E-02 7.58741E-01 4.79249E-01 3.21681E-03 9.26356E-02 2.05051E-01 4.59819E+00-2.54463E+01-4.48331E+01



 n o d a l   p r i n t   o u t   f o r   t i m e  s t e p   19402                              ( at time 9.6995293E+00 )

 nodal point  x-rot      y-rot       z-rot       x-rot vel   y-rot vel   z-rot vel   x-rot acc   y-rot acc   z-rot acc
    22626 -2.08011E-02-5.71180E-04-9.53280E-04-6.77214E-03-8.42315E-05-1.98073E-04-1.12599E-03 1.78436E-04-2.98975E-05



 n o d a l   p r i n t   o u t   f o r   t i m e  s t e p   19602                              ( at time 9.7995193E+00 )

 nodal point  x-disp     y-disp      z-disp      x-vel       y-vel       z-vel      x-accl      y-accl      z-accl      x-coor      y-coor      z-coor
    22626 -6.24109E-02 2.82088E+00 1.97460E-01-1.20349E-02 7.69550E-01 4.97966E-01 3.87950E-03 1.08105E-01 1.87192E-01 4.59696E+00-2.53700E+01-4.47843E+01



 n o d a l   p r i n t   o u t   f o r   t i m e  s t e p   19602                              ( at time 9.7995193E+00 )

 nodal point  x-rot      y-rot       z-rot       x-rot vel   y-rot vel   z-rot vel   x-rot acc   y-rot acc   z-rot acc
    22626 -2.14872E-02-5.79305E-04-9.71359E-04-6.93868E-03-7.76591E-05-1.62859E-04-1.66550E-03 6.57310E-05 3.52180E-04



 n o d a l   p r i n t   o u t   f o r   t i m e  s t e p   19802                              ( at time 9.8995093E+00 )

 nodal point  x-disp     y-disp      z-disp      x-vel       y-vel       z-vel      x-accl      y-accl      z-accl      x-coor      y-coor      z-coor
    22626 -6.35237E-02 2.89834E+00 2.48225E-01-1.10493E-02 7.79834E-01 5.17180E-01 9.85680E-03 1.02849E-01 1.92153E-01 4.59585E+00-2.52925E+01-4.47335E+01



 n o d a l   p r i n t   o u t   f o r   t i m e  s t e p   19802                              ( at time 9.8995093E+00 )

 nodal point  x-rot      y-rot       z-rot       x-rot vel   y-rot vel   z-rot vel   x-rot acc   y-rot acc   z-rot acc
    22626 -2.21872E-02-5.86763E-04-9.87711E-04-7.05979E-03-7.36287E-05-1.69877E-04-1.21128E-03 4.03077E-05-7.01872E-05



 n o d a l   p r i n t   o u t   f o r   t i m e  s t e p   20003                              ( at time 9.9999992E+00 )

 nodal point  x-disp     y-disp      z-disp      x-vel       y-vel       z-vel      x-accl      y-accl      z-accl      x-coor      y-coor      z-coor
[...]
    22626 -1.56411E-01 3.00784E-04-1.97326E-04-1.25356E-02-4.42256E-06 2.13430E-04-4.36476E-04-1.06723E-04-8.05757E-05



 n o d a l   p r i n t   o u t   f o r   t i m e  s t e p   45205                              ( at time 2.2599738E+01 )

 nodal point  x-disp     y-disp      z-disp      x-vel       y-vel       z-vel      x-accl      y-accl      z-accl      x-coor      y-coor      z-coor
    22626 -1.03701E-01 1.87177E+01 1.33424E+01 9.96216E-03 1.71285E+00 1.02772E+00-9.59524E-03-1.66844E-01 2.55129E-01 4.55567E+00-9.47314E+00-3.16393E+01



 n o d a l   p r i n t   o u t   f o r   t i m e  s t e p   45205                              ( at time 2.2599738E+01 )

 nodal point  x-rot      y-rot       z-rot       x-rot vel   y-rot vel   z-rot vel   x-rot acc   y-rot acc   z-rot acc
    22626 -1.57664E-01 2.99598E-04-1.76503E-04-1.25570E-02-3.22849E-05 2.08933E-04-2.13972E-04-2.78649E-04-4.49756E-05



 n o d a l   p r i n t   o u t   f o r   t i m e  s t e p   45405                              ( at time 2.2699728E+01 )

 nodal point  x-disp     y-disp      z-disp      x-vel       y-vel       z-vel      x-accl      y-accl      z-accl      x-coor      y-coor      z-coor
    22626 -1.02611E-01 1.88881E+01 1.34465E+01 1.15523E-02 1.69575E+00 1.05370E+00 1.59034E-02-1.70985E-01 2.59836E-01 4.55676E+00-9.30272E+00-3.15352E+01



 n o d a l   p r i n t   o u t   f o r   t i m e  s t e p   45405                              ( at time 2.2699728E+01 )

 nodal point  x-rot      y-rot       z-rot       x-rot vel   y-rot vel   z-rot vel   x-rot acc   y-rot acc   z-rot acc
    22626 -1.58922E-01 2.96066E-04-1.56713E-04-1.26080E-02-2.74041E-05 1.83158E-04-5.09872E-04 4.88133E-05-2.57778E-04



 n o d a l   p r i n t   o u t   f o r   t i m e  s t e p   45605                              ( at time 2.2799718E+01 )

 nodal point  x-disp     y-disp      z-disp      x-vel       y-vel       z-vel      x-accl      y-accl      z-accl      x-coor      y-coor      z-coor
    22626 -1.01421E-01 1.90569E+01 1.35531E+01 1.22726E-02 1.67933E+00 1.07878E+00 7.20368E-03-1.64225E-01 2.50755E-01 4.55795E+00-9.13397E+00-3.14286E+01



 n o d a l   p r i n t   o u t   f o r   t i m e  s t e p   45605                              ( at time 2.2799718E+01 )

 nodal point  x-rot      y-rot       z-rot       x-rot vel   y-rot vel   z-rot vel   x-rot acc   y-rot acc   z-rot acc
    22626 -1.60183E-01 2.92692E-04-1.37010E-04-1.26195E-02-2.45788E-05 2.13673E-04-1.15355E-04 2.82551E-05 3.05183E-04



 n o d a l   p r i n t   o u t   f o r   t i m e  s t e p   45805                              ( at time 2.2899708E+01 )

 nodal point  x-disp     y-disp      z-disp      x-vel       y-vel       z-vel      x-accl      y-accl      z-accl      x-coor      y-coor      z-coor
    22626 -1.00231E-01 1.92239E+01 1.36623E+01 1.20582E-02 1.66190E+00 1.10624E+00-2.14421E-03-1.74306E-01 2.74709E-01 4.55914E+00-8.96691E+00-3.13194E+01



 n o d a l   p r i n t   o u t   f o r   t i m e  s t e p   45805                              ( at time 2.2899708E+01 )

 nodal point  x-rot      y-rot       z-rot       x-rot vel   y-rot vel   z-rot vel   x-rot acc   y-rot acc   z-rot acc
    22626 -1.61448E-01 2.89605E-04-1.17622E-04-1.26675E-02-4.90941E-05 1.76977E-04-4.79582E-04-2.45179E-04-3.67007E-04



 n o d a l   p r i n t   o u t   f o r   t i m e  s t e p   46005                              ( at time 2.2999698E+01 )

 nodal point  x-disp     y-disp      z-disp      x-vel       y-vel       z-vel      x-accl      y-accl      z-accl      x-coor      y-coor      z-coor
    22626 -9.90210E-02 1.93893E+01 1.37741E+01 1.35820E-02 1.64603E+00 1.12954E+00 1.52389E-02-1.58733E-01 2.33023E-01 4.56035E+00-8.80148E+00-3.12076E+01



 n o d a l   p r i n t   o u t   f o r   t i m e  s t e p   46005                              ( at time 2.2999698E+01 )

 nodal point  x-rot      y-rot       z-rot       x-rot vel   y-rot vel   z-rot vel   x-rot acc   y-rot acc   z-rot acc
    22626 -1.62718E-01 2.83928E-04-9.94368E-05-1.27296E-02-6.86681E-05 1.81490E-04-6.21324E-04-1.95758E-04 4.51391E-05



 n o d a l   p r i n t   o u t   f o r   t i m e  s t e p   46205                              ( at time 2.3099688E+01 )

 nodal point  x-disp     y-disp      z-disp      x-vel       y-vel       z-vel      x-accl      y-accl      z-accl      x-coor      y-coor      z-coor
    22626 -9.76286E-02 1.95530E+01 1.38885E+01 1.39453E-02 1.62849E+00 1.15785E+00 3.63394E-03-1.75430E-01 2.83106E-01 4.56175E+00-8.63779E+00-3.10932E+01



 n o d a l   p r i n t   o u t   f o r   t i m e  s t e p   46205                              ( at time 2.3099688E+01 )

 nodal point  x-rot      y-rot       z-rot       x-rot vel   y-rot vel   z-rot vel   x-rot acc   y-rot acc   z-rot acc
    22626 -1.63992E-01 2.76963E-04-8.07141E-05-1.27771E-02-7.86889E-05 1.96516E-04-4.75465E-04-1.00219E-04 1.50274E-04



 n o d a l   p r i n t   o u t   f o r   t i m e  s t e p   46405                              ( at time 2.3199678E+01 )

 nodal point  x-disp     y-disp      z-disp      x-vel       y-vel       z-vel      x-accl      y-accl      z-accl      x-coor      y-coor      z-coor
    22626 -9.61450E-02 1.97150E+01 1.40057E+01 1.47010E-02 1.61214E+00 1.18502E+00 7.55780E-03-1.63542E-01 2.71683E-01 4.56323E+00-8.47583E+00-3.09760E+01



 n o d a l   p r i n t   o u t   f o r   t i m e  s t e p   46405                              ( at time 2.3199678E+01 )

 nodal point  x-rot      y-rot       z-rot       x-rot vel   y-rot vel   z-rot vel   x-rot acc   y-rot acc   z-rot acc
    22626 -1.65272E-01 2.70265E-04-6.41658E-05-1.28217E-02-5.19217E-05 1.74397E-04-4.45735E-04 2.67696E-04-2.21207E-04



 n o d a l   p r i n t   o u t   f o r   t i m e  s t e p   46605                              ( at time 2.3299668E+01 )

 nodal point  x-disp     y-disp      z-disp      x-vel       y-vel       z-vel      x-accl      y-accl      z-accl      x-coor      y-coor      z-coor
    22626 -9.47811E-02 1.98753E+01 1.41254E+01 1.47859E-02 1.59518E+00 1.21094E+00 8.48184E-04-1.69648E-01 2.59292E-01 4.56459E+00-8.31550E+00-3.08563E+01



 n o d a l   p r i n t   o u t   f o r   t i m e  s t e p   46605                              ( at time 2.3299668E+01 )

 nodal point  x-rot      y-rot       z-rot       x-rot vel   y-rot vel   z-rot vel   x-rot acc   y-rot acc   z-rot acc
    22626 -1.66557E-01 2.62829E-04-4.57019E-05-1.28648E-02-7.64752E-05 1.69950E-04-4.31278E-04-2.45562E-04-4.44802E-05



 n o d a l   p r i n t   o u t   f o r   t i m e  s t e p   46805                              ( at time 2.3399658E+01 )

 nodal point  x-disp     y-disp      z-disp      x-vel       y-vel       z-vel      x-accl      y-accl      z-accl      x-coor      y-coor      z-coor
    22626 -9.32963E-02 2.00339E+01 1.42478E+01 1.45728E-02 1.57657E+00 1.23745E+00-2.13098E-03-1.86074E-01 2.65119E-01 4.56608E+00-8.15693E+00-3.07339E+01



 n o d a l   p r i n t   o u t   f o r   t i m e  s t e p   46805                              ( at time 2.3399658E+01 )

 nodal point  x-rot      y-rot       z-rot       x-rot vel   y-rot vel   z-rot vel   x-rot acc   y-rot acc   z-rot acc
    22626 -1.67848E-01 2.55021E-04-2.81775E-05-1.29556E-02-8.71069E-05 1.83760E-04-9.07918E-04-1.06327E-04 1.38122E-04



 n o d a l   p r i n t   o u t   f o r   t i m e  s t e p   47005                              ( at time 2.3499648E+01 )

 nodal point  x-disp     y-disp      z-disp      x-vel       y-vel       z-vel      x-accl      y-accl      z-accl      x-coor      y-coor      z-coor
    22626 -9.15884E-02 2.01908E+01 1.43729E+01 1.75011E-02 1.56152E+00 1.26423E+00 2.92855E-02-1.50531E-01 2.67749E-01 4.56779E+00-8.00005E+00-3.06088E+01



 n o d a l   p r i n t   o u t   f o r   t i m e  s t e p   47005                              ( at time 2.3499648E+01 )

 nodal point  x-rot      y-rot       z-rot       x-rot vel   y-rot vel   z-rot vel   x-rot acc   y-rot acc   z-rot acc
    22626 -1.69144E-01 2.47545E-04-1.13168E-05-1.29694E-02-8.16250E-05 1.70149E-04-1.38109E-04 5.48241E-05-1.36125E-04



 n o d a l   p r i n t   o u t   f o r   t i m e  s t e p   47205                              ( at time 2.3599638E+01 )

 nodal point  x-disp     y-disp      z-disp      x-vel       y-vel       z-vel      x-accl      y-accl      z-accl      x-coor      y-coor      z-coor
    22626 -8.98783E-02 2.03460E+01 1.45006E+01 1.83823E-02 1.54381E+00 1.29051E+00 8.81326E-03-1.77115E-01 2.62859E-01 4.56950E+00-7.84479E+00-3.04811E+01



 n o d a l   p r i n t   o u t   f o r   t i m e  s t e p   47205                              ( at time 2.3599638E+01 )

 nodal point  x-rot      y-rot       z-rot       x-rot vel   y-rot vel   z-rot vel   x-rot acc   y-rot acc   z-rot acc
    22626 -1.70447E-01 2.36821E-04 5.98214E-06-1.30587E-02-1.00792E-04 1.64367E-04-8.92650E-04-1.91688E-04-5.78244E-05



 n o d a l   p r i n t   o u t   f o r   t i m e  s t e p   47405                              ( at time 2.3699628E+01 )

 nodal point  x-disp     y-disp      z-disp      x-vel       y-vel       z-vel      x-accl      y-accl      z-accl      x-coor      y-coor      z-coor
    22626 -8.81056E-02 2.04995E+01 1.46309E+01 1.78179E-02 1.52619E+00 1.31547E+00-5.64450E-03-1.76199E-01 2.49671E-01 4.57127E+00-7.69129E+00-3.03508E+01



 n o d a l   p r i n t   o u t   f o r   t i m e  s t e p   47405                              ( at time 2.3699628E+01 )

 nodal point  x-rot      y-rot       z-rot       x-rot vel   y-rot vel   z-rot vel   x-rot acc   y-rot acc   z-rot acc
    22626 -1.71756E-01 2.26679E-04 2.14486E-05-1.31149E-02-9.69490E-05 1.48001E-04-5.62822E-04 3.84302E-05-1.63676E-04



 n o d a l   p r i n t   o u t   f o r   t i m e  s t e p   47605                              ( at time 2.3799618E+01 )

 nodal point  x-disp     y-disp      z-disp      x-vel       y-vel       z-vel      x-accl      y-accl      z-accl      x-coor      y-coor      z-coor
    22626 -8.62769E-02 2.06514E+01 1.47638E+01 1.75034E-02 1.50988E+00 1.34187E+00-3.14546E-03-1.63145E-01 2.64029E-01 4.57310E+00-7.53939E+00-3.02179E+01



 n o d a l   p r i n t   o u t   f o r   t i m e  s t e p   47605                              ( at time 2.3799618E+01 )

 nodal point  x-rot      y-rot       z-rot       x-rot vel   y-rot vel   z-rot vel   x-rot acc   y-rot acc   z-rot acc
    22626 -1.73071E-01 2.15183E-04 3.65439E-05-1.32074E-02-1.16037E-04 1.60858E-04-9.24626E-04-1.90903E-04 1.28583E-04



 n o d a l   p r i n t   o u t   f o r   t i m e  s t e p   47805                              ( at time 2.3899608E+01 )

 nodal point  x-disp     y-disp      z-disp      x-vel       y-vel       z-vel      x-accl      y-accl      z-accl      x-coor      y-coor      z-coor
    22626 -8.44179E-02 2.08017E+01 1.48992E+01 2.14710E-02 1.49550E+00 1.36515E+00 3.96799E-02-1.43744E-01 2.32785E-01 4.57496E+00-7.38916E+00-3.00825E+01



 n o d a l   p r i n t   o u t   f o r   t i m e  s t e p   47805                              ( at time 2.3899608E+01 )

 nodal point  x-rot      y-rot       z-rot       x-rot vel   y-rot vel   z-rot vel   x-rot acc   y-rot acc   z-rot acc
    22626 -1.74395E-01 2.04051E-04 5.30298E-05-1.32743E-02-1.24782E-04 1.19826E-04-6.68965E-04-8.74590E-05-4.10361E-04



 n o d a l   p r i n t   o u t   f o r   t i m e  s t e p   48005                              ( at time 2.3999598E+01 )

 nodal point  x-disp     y-disp      z-disp      x-vel       y-vel       z-vel      x-accl      y-accl      z-accl      x-coor      y-coor      z-coor
    22626 -8.24156E-02 2.09503E+01 1.50369E+01 1.73130E-02 1.47991E+00 1.38998E+00-4.15844E-02-1.55962E-01 2.48308E-01 4.57696E+00-7.24050E+00-2.99448E+01



 n o d a l   p r i n t   o u t   f o r   t i m e  s t e p   48005                              ( at time 2.3999598E+01 )

 nodal point  x-rot      y-rot       z-rot       x-rot vel   y-rot vel   z-rot vel   x-rot acc   y-rot acc   z-rot acc
    22626 -1.75725E-01 1.90399E-04 6.69824E-05-1.33240E-02-1.39452E-04 1.71856E-04-4.97186E-04-1.46717E-04 5.20356E-04



 n o d a l   p r i n t   o u t   f o r   t i m e  s t e p   48205                              ( at time 2.4099588E+01 )

 nodal point  x-disp     y-disp      z-disp      x-vel       y-vel       z-vel      x-accl      y-accl      z-accl      x-coor      y-coor      z-coor
    22626 -8.03683E-02 2.10975E+01 1.51769E+01 2.06813E-02 1.46522E+00 1.41074E+00 3.36857E-02-1.46929E-01 2.07610E-01 4.57901E+00-7.09336E+00-2.98048E+01



 n o d a l   p r i n t   o u t   f o r   t i m e  s t e p   48205                              ( at time 2.4099588E+01 )

 nodal point  x-rot      y-rot       z-rot       x-rot vel   y-rot vel   z-rot vel   x-rot acc   y-rot acc   z-rot acc
    22626 -1.77064E-01 1.77882E-04 8.15387E-05-1.34218E-02-1.34965E-04 1.49846E-04-9.78164E-04 4.48821E-05-2.20118E-04



 n o d a l   p r i n t   o u t   f o r   t i m e  s t e p   48405                              ( at time 2.4199578E+01 )

 nodal point  x-disp     y-disp      z-disp      x-vel       y-vel       z-vel      x-accl      y-accl      z-accl      x-coor      y-coor      z-coor
    22626 -7.83140E-02 2.12432E+01 1.53191E+01 2.31271E-02 1.44998E+00 1.43182E+00 2.44611E-02-1.52439E-01 2.10819E-01 4.58106E+00-6.94766E+00-2.96627E+01



 n o d a l   p r i n t   o u t   f o r   t i m e  s t e p   48405                              ( at time 2.4199578E+01 )

 nodal point  x-rot      y-rot       z-rot       x-rot vel   y-rot vel   z-rot vel   x-rot acc   y-rot acc   z-rot acc
    22626 -1.78410E-01 1.62939E-04 9.61831E-05-1.35027E-02-1.38090E-04 1.21768E-04-8.08496E-04-3.12600E-05-2.80812E-04



 n o d a l   p r i n t   o u t   f o r   t i m e  s t e p   48605                              ( at time 2.4299568E+01 )

 nodal point  x-disp     y-disp      z-disp      x-vel       y-vel       z-vel      x-accl      y-accl      z-accl      x-coor      y-coor      z-coor
    22626 -7.61947E-02 2.13874E+01 1.54632E+01 2.04154E-02 1.43463E+00 1.45006E+00-2.71193E-02-1.53441E-01 1.82416E-01 4.58318E+00-6.80340E+00-2.95185E+01



 n o d a l   p r i n t   o u t   f o r   t i m e  s t e p   48605                              ( at time 2.4299568E+01 )

 nodal point  x-rot      y-rot       z-rot       x-rot vel   y-rot vel   z-rot vel   x-rot acc   y-rot acc   z-rot acc
    22626 -1.79763E-01 1.48173E-04 1.12190E-04-1.35903E-02-1.51587E-04 1.69519E-04-8.76939E-04-1.34982E-04 4.77557E-04



 n o d a l   p r i n t   o u t   f o r   t i m e  s t e p   48805                              ( at time 2.4399558E+01 )

 nodal point  x-disp     y-disp      z-disp      x-vel       y-vel       z-vel      x-accl      y-accl      z-accl      x-coor      y-coor      z-coor
    22626 -7.38957E-02 2.15301E+01 1.56092E+01 2.23645E-02 1.42051E+00 1.46974E+00 1.94925E-02-1.41204E-01 1.96895E-01 4.58548E+00-6.66070E+00-2.93725E+01



 n o d a l   p r i n t   o u t   f o r   t i m e  s t e p   48805                              ( at time 2.4399558E+01 )

 nodal point  x-rot      y-rot       z-rot       x-rot vel   y-rot vel   z-rot vel   x-rot acc   y-rot acc   z-rot acc
    22626 -1.81123E-01 1.32135E-04 1.25275E-04-1.36470E-02-1.59355E-04 1.44540E-04-5.66482E-04-7.76892E-05-2.49815E-04



 n o d a l   p r i n t   o u t   f o r   t i m e  s t e p   49006                              ( at time 2.4500048E+01 )

 nodal point  x-disp     y-disp      z-disp      x-vel       y-vel       z-vel      x-accl      y-accl      z-accl      x-coor      y-coor      z-coor
    22626 -7.17697E-02 2.16722E+01 1.57578E+01 2.24637E-02 1.40639E+00 1.48663E+00 9.87406E-04-1.40583E-01 1.68059E-01 4.58761E+00-6.51864E+00-2.92240E+01



 n o d a l   p r i n t   o u t   f o r   t i m e  s t e p   49006                              ( at time 2.4500048E+01 )

 nodal point  x-rot      y-rot       z-rot       x-rot vel   y-rot vel   z-rot vel   x-rot acc   y-rot acc   z-rot acc
    22626 -1.82498E-01 1.15237E-04 1.40111E-04-1.37268E-02-1.65822E-04 1.28868E-04-7.94392E-04-6.43525E-05-1.55952E-04



 n o d a l   p r i n t   o u t   f o r   t i m e  s t e p   49206                              ( at time 2.4600038E+01 )

 nodal point  x-disp     y-disp      z-disp      x-vel       y-vel       z-vel      x-accl      y-accl      z-accl      x-coor      y-coor      z-coor
    22626 -6.94323E-02 2.18121E+01 1.59073E+01 2.30213E-02 1.39203E+00 1.50411E+00 5.57658E-03-1.43565E-01 1.74821E-01 4.58994E+00-6.37872E+00-2.90745E+01



 n o d a l   p r i n t   o u t   f o r   t i m e  s t e p   49206                              ( at time 2.4600038E+01 )

 nodal point  x-rot      y-rot       z-rot       x-rot vel   y-rot vel   z-rot vel   x-rot acc   y-rot acc   z-rot acc
    22626 -1.83874E-01 9.82490E-05 1.53701E-04-1.37841E-02-1.79721E-04 1.53179E-04-5.72648E-04-1.39005E-04 2.43124E-04



 n o d a l   p r i n t   o u t   f o r   t i m e  s t e p   49406                              ( at time 2.4700028E+01 )

 nodal point  x-disp     y-disp      z-disp      x-vel       y-vel       z-vel      x-accl      y-accl      z-accl      x-coor      y-coor      z-coor
    22626 -6.72105E-02 2.19507E+01 1.60583E+01 2.19879E-02 1.37879E+00 1.51748E+00-1.03357E-02-1.32432E-01 1.33651E-01 4.59216E+00-6.24016E+00-2.89234E+01



 n o d a l   p r i n t   o u t   f o r   t i m e  s t e p   49406                              ( at time 2.4700028E+01 )

 nodal point  x-rot      y-rot       z-rot       x-rot vel   y-rot vel   z-rot vel   x-rot acc   y-rot acc   z-rot acc
    22626 -1.85256E-01 8.02267E-05 1.67748E-04-1.38762E-02-1.93258E-04 1.37407E-04-9.21646E-04-1.35379E-04-1.57734E-04



 n o d a l   p r i n t   o u t   f o r   t i m e  s t e p   49606                              ( at time 2.4800018E+01 )

 nodal point  x-disp     y-disp      z-disp      x-vel       y-vel       z-vel      x-accl      y-accl      z-accl      x-coor      y-coor      z-coor
    22626 -6.48649E-02 2.20879E+01 1.62109E+01 2.47196E-02 1.36621E+00 1.53238E+00 2.73193E-02-1.25817E-01 1.49080E-01 4.59451E+00-6.10294E+00-2.87709E+01



 n o d a l   p r i n t   o u t   f o r   t i m e  s t e p   49606                              ( at time 2.4800018E+01 )

 nodal point  x-rot      y-rot       z-rot       x-rot vel   y-rot vel   z-rot vel   x-rot acc   y-rot acc   z-rot acc
    22626 -1.86646E-01 6.00926E-05 1.80834E-04-1.39471E-02-1.82238E-04 1.27977E-04-7.08457E-04 1.10209E-04-9.43055E-05



 n o d a l   p r i n t   o u t   f o r   t i m e  s t e p   49806                              ( at time 2.4900008E+01 )

 nodal point  x-disp     y-disp      z-disp      x-vel       y-vel       z-vel      x-accl      y-accl      z-accl      x-coor      y-coor      z-coor
    22626 -6.25546E-02 2.22239E+01 1.63647E+01 2.18326E-02 1.35404E+00 1.54605E+00-2.88724E-02-1.21736E-01 1.36726E-01 4.59682E+00-5.96691E+00-2.86170E+01



 n o d a l   p r i n t   o u t   f o r   t i m e  s t e p   49806                              ( at time 2.4900008E+01 )

 nodal point  x-rot      y-rot       z-rot       x-rot vel   y-rot vel   z-rot vel   x-rot acc   y-rot acc   z-rot acc
    22626 -1.88043E-01 4.18230E-05 1.94845E-04-1.39928E-02-2.09478E-04 1.42410E-04-4.57181E-04-2.72428E-04 1.44344E-04



 n o d a l   p r i n t   o u t   f o r   t i m e  s t e p   50006                              ( at time 2.4999998E+01 )

 nodal point  x-disp     y-disp      z-disp      x-vel       y-vel       z-vel      x-accl      y-accl      z-accl      x-coor      y-coor      z-coor
    22626 -6.01381E-02 2.23586E+01 1.65199E+01 2.49716E-02 1.34232E+00 1.55783E+00 3.13923E-02-1.17205E-01 1.17815E-01 4.59924E+00-5.83219E+00-2.84618E+01



 n o d a l   p r i n t   o u t   f o r   t i m e  s t e p   50006                              ( at time 2.4999998E+01 )

 nodal point  x-rot      y-rot       z-rot       x-rot vel   y-rot vel   z-rot vel   x-rot acc   y-rot acc   z-rot acc
    22626 -1.89448E-01 2.03650E-05 2.07117E-04-1.40809E-02-2.12862E-04 1.08780E-04-8.81047E-04-3.38466E-05-3.36333E-04
