 LSTC 50th% Full_FE H-III Dummy (Beta Version, February 17, 2019)        
                    ls-dyna smp s R16 R16.0_619_d222963 date 03/18/2025

{BEGIN LEGEND}
 Entity #        Title
        1     Upper_Neck_Force_INJURY                                              
{END LEGEND}



 line#1  section#     time        x-force     y-force     z-force    magnitude
 line#2  resultant  moments       x-moment    y-moment    z-moment   magnitude
 line#3  centroids                x           y           z            area  
           1    0.00000E+00     0.0000E+00  0.0000E+00  0.0000E+00  0.0000E+00
ac ID =   33377                 0.0000E+00  0.0000E+00  0.0000E+00  0.0000E+00
                               -3.7437E-01  1.0501E+01 -4.6940E+01  0.0000E+00

           1    1.00490E-01     1.3561E-04 -4.9884E-03  2.5981E-01  2.5986E-01
ac ID =   33377                 4.2540E-01 -1.2521E+00 -2.7103E-02  1.3226E+00
                               -3.7387E-01  1.0590E+01 -4.6886E+01  2.5147E+03

           1    2.00480E-01    -4.4390E-02  5.6690E-04  4.4126E-01  4.4349E-01
ac ID =   33377                 3.0782E-01 -1.5968E+00  2.2423E-02  1.6264E+00
                               -3.7386E-01  1.0591E+01 -4.6888E+01  2.5147E+03

           1    3.00470E-01     1.4946E-02 -3.2420E-03  2.1768E-01  2.1822E-01
ac ID =   33377                 2.5568E-02 -3.3570E-01  6.6406E-02  3.4315E-01
                               -3.7382E-01  1.0591E+01 -4.6889E+01  2.5147E+03

           1    4.00460E-01     2.8424E-03  1.0589E-02  8.8021E-02  8.8701E-02
ac ID =   33377                -4.9774E-01 -9.4349E-01 -1.7286E-03  1.0667E+00
                               -3.7384E-01  1.0592E+01 -4.6890E+01  2.5147E+03

           1    5.00450E-01    -4.0823E-02  4.3095E-03  1.6157E-01  1.6671E-01
ac ID =   33377                -3.9476E-01 -1.5097E+00 -1.0781E-01  1.5642E+00
                               -3.7385E-01  1.0594E+01 -4.6893E+01  2.5147E+03

           1    6.00440E-01    -1.1162E-02  3.9317E-03  3.4347E-01  3.4367E-01
ac ID =   33377                 8.7891E-02 -1.3266E+00 -3.4357E-02  1.3300E+00
                               -3.7385E-01  1.0595E+01 -4.6897E+01  2.5147E+03

           1    7.00430E-01     3.2415E-03 -5.3282E-03  2.9416E-01  2.9423E-01
ac ID =   33377                 1.3406E-01 -5.0317E-01  8.5917E-02  5.2776E-01
                               -3.7389E-01  1.0597E+01 -4.6901E+01  2.5147E+03

           1    8.00420E-01    -3.1369E-02 -1.3198E-03  1.0094E-01  1.0571E-01
ac ID =   33377                 8.6857E-02 -1.0564E+00  4.8026E-02  1.0611E+00
                               -3.7394E-01  1.0599E+01 -4.6905E+01  2.5147E+03

           1    9.00410E-01    -3.9374E-02  8.6963E-04  6.2558E-02  7.3923E-02
ac ID =   33377                 9.0881E-02 -1.0718E+00 -6.3851E-03  1.0756E+00
                               -3.7399E-01  1.0601E+01 -4.6909E+01  2.5147E+03

           1    1.00040E+00     1.4785E-02 -4.0154E-03  2.2054E-01  2.2108E-01
ac ID =   33377                 3.6263E-01 -2.8392E-01 -5.6625E-02  4.6403E-01
                               -3.7400E-01  1.0604E+01 -4.6915E+01  2.5147E+03

           1    1.10039E+00     4.0454E-04 -3.3987E-03  2.7132E-01  2.7134E-01
ac ID =   33377                 3.5035E-01 -8.8083E-01 -4.9969E-02  9.4926E-01
                               -3.7401E-01  1.0607E+01 -4.6921E+01  2.5147E+03

           1    1.20038E+00    -3.2409E-02 -3.1718E-04  1.2945E-01  1.3344E-01
ac ID =   33377                -1.6323E-01 -1.1834E+00  1.1602E-02  1.1946E+00
                               -3.7403E-01  1.0610E+01 -4.6927E+01  2.5147E+03

           1    1.30037E+00    -1.0589E-02  4.4407E-03  7.4668E-02  7.5546E-02
ac ID =   33377                -2.9688E-01 -8.8471E-01  1.8729E-02  9.3339E-01
                               -3.7407E-01  1.0612E+01 -4.6933E+01  2.5147E+03

           1    1.40036E+00     7.4877E-03  3.6198E-03  1.7404E-01  1.7424E-01
ac ID =   33377                -2.8911E-01 -8.3634E-01  2.8767E-02  8.8537E-01
                               -3.7409E-01  1.0616E+01 -4.6941E+01  2.5147E+03

           1    1.50035E+00    -2.6693E-02  1.5617E-03  3.2823E-01  3.2932E-01
ac ID =   33377                -2.9731E-02 -1.5861E+00 -4.3632E-02  1.5870E+00
                               -3.7413E-01  1.0620E+01 -4.6949E+01  2.5147E+03

           1    1.60034E+00    -1.9322E-02 -2.4359E-03  2.2162E-01  2.2247E-01
ac ID =   33377                -2.1490E-02 -1.3810E+00 -2.0285E-02  1.3814E+00
                               -3.7420E-01  1.0624E+01 -4.6957E+01  2.5147E+03

           1    1.70033E+00    -2.8286E-03 -5.8834E-04  5.8864E-02  5.8935E-02
ac ID =   33377                -4.3840E-02 -6.6935E-01  8.9869E-02  6.7678E-01
                               -3.7427E-01  1.0627E+01 -4.6965E+01  2.5147E+03

           1    1.80032E+00    -2.0072E-02  8.7968E-04  7.7590E-02  8.0149E-02
ac ID =   33377                 8.3256E-02 -1.1151E+00  1.2473E-01  1.1251E+00
                               -3.7434E-01  1.0632E+01 -4.6974E+01  2.5147E+03

           1    1.90031E+00    -7.6282E-03 -2.6231E-03  1.9132E-01  1.9149E-01
ac ID =   33377                 2.6960E-01 -8.1361E-01 -7.0824E-02  8.6004E-01
                               -3.7439E-01  1.0636E+01 -4.6984E+01  2.5147E+03

           1    2.00030E+00    -2.3145E-03 -4.3265E-03  1.5659E-01  1.5667E-01
ac ID =   33377                 2.0308E-01 -4.4599E-01 -1.3362E-01  5.0794E-01
                               -3.7444E-01  1.0641E+01 -4.6993E+01  2.5147E+03

           1    2.10029E+00    -2.5221E-02  2.2168E-03  2.8395E-03  2.5477E-02
ac ID =   33377                -7.2313E-02 -6.9046E-01  4.1475E-02  6.9548E-01
                               -3.7450E-01  1.0645E+01 -4.7003E+01  2.5147E+03

           1    2.20028E+00    -1.3033E-02  5.1282E-03  3.4925E-03  1.4434E-02
ac ID =   33377                -2.3854E-01 -6.6015E-01  3.0983E-02  7.0261E-01
                               -3.7456E-01  1.0650E+01 -4.7013E+01  2.5147E+03

           1    2.30027E+00     1.3649E-03  4.3878E-03  1.4889E-01  1.4896E-01
ac ID =   33377                -1.4775E-01 -8.1501E-01 -6.4404E-02  8.3080E-01
                               -3.7461E-01  1.0655E+01 -4.7024E+01  2.5147E+03

           1    2.40026E+00    -1.6611E-02 -1.7103E-03  1.8747E-01  1.8821E-01
ac ID =   33377                -1.4824E-01 -1.1857E+00  7.8382E-02  1.1975E+00
                               -3.7469E-01  1.0661E+01 -4.7035E+01  2.5147E+03

           1    2.50025E+00    -1.7585E-02  1.1499E-03 -1.0279E-03  1.7653E-02
ac ID =   33377                -1.9877E-01 -8.7428E-01  1.2957E-01  9.0591E-01
                               -3.7479E-01  1.0665E+01 -4.7045E+01  2.5147E+03

           1    2.60024E+00    -4.1492E-03  5.9613E-03 -7.9912E-02  8.0242E-02
ac ID =   33377                -2.0964E-01 -1.5487E-01  3.9628E-02  2.6363E-01
                               -3.7490E-01  1.0671E+01 -4.7056E+01  2.5147E+03

           1    2.70023E+00    -4.6986E-03 -1.5220E-03  2.5466E-04  4.9455E-03
ac ID =   33377                 2.5786E-02 -9.7600E-02  3.6150E-02  1.0723E-01
                               -3.7500E-01  1.0676E+01 -4.7068E+01  2.5147E+03

           1    2.80022E+00     8.1911E-04 -4.8196E-03  5.0500E-02  5.0736E-02
ac ID =   33377                 3.6726E-01 -2.3117E-02 -1.6175E-02  3.6834E-01
                               -3.7509E-01  1.0682E+01 -4.7079E+01  2.5147E+03

           1    2.90021E+00     1.3909E-02 -2.1758E-03 -2.6316E-02  2.9845E-02
ac ID =   33377                 1.3828E-01  4.5552E-01 -6.4235E-02  4.8036E-01
                               -3.7519E-01  1.0688E+01 -4.7090E+01  2.5147E+03

           1    3.00020E+00     7.8706E-03  2.2904E-03 -1.1461E-01  1.1490E-01
ac ID =   33377                -5.4945E-02  3.6211E-01 -5.6752E-02  3.7062E-01
                               -3.7528E-01  1.0694E+01 -4.7102E+01  2.5147E+03

           1    3.10019E+00     1.0305E-02  6.9993E-04 -3.8432E-02  3.9796E-02
ac ID =   33377                 3.5775E-02  6.3072E-03 -3.4443E-02  5.0059E-02
                               -3.7536E-01  1.0700E+01 -4.7114E+01  2.5147E+03

           1    3.20018E+00     1.9636E-02  2.1466E-03  3.4211E-02  3.9504E-02
ac ID =   33377                -3.0288E-02 -1.0824E-02  1.8825E-02  3.7268E-02
                               -3.7543E-01  1.0707E+01 -4.7126E+01  2.5147E+03

           1    3.30017E+00     2.2829E-02  1.0523E-03 -3.1951E-02  3.9283E-02
ac ID =   33377                -2.4597E-01  9.5697E-02  1.5075E-01  3.0395E-01
                               -3.7552E-01  1.0714E+01 -4.7139E+01  2.5147E+03

           1    3.40016E+00     2.0344E-02  3.3283E-03 -1.5373E-01  1.5511E-01
ac ID =   33377                -2.7407E-01  4.5947E-01  1.3900E-01  5.5276E-01
                               -3.7563E-01  1.0722E+01 -4.7151E+01  2.5147E+03

           1    3.50015E+00     2.1478E-02  3.2205E-03 -1.9661E-01  1.9781E-01
ac ID =   33377                -1.8706E-01  8.2343E-01  5.8152E-02  8.4641E-01
                               -3.7574E-01  1.0730E+01 -4.7163E+01  2.5147E+03

           1    3.60014E+00     3.5339E-02 -3.6659E-03 -1.2633E-01  1.3124E-01
ac ID =   33377                 1.0648E-01  1.3683E+00 -1.2589E-01  1.3782E+00
                               -3.7585E-01  1.0739E+01 -4.7177E+01  2.5147E+03

           1    3.70013E+00     4.5700E-02 -2.8805E-03 -1.3050E-01  1.3830E-01
ac ID =   33377                 2.5329E-01  1.5903E+00 -1.9907E-01  1.6226E+00
                               -3.7597E-01  1.0748E+01 -4.7190E+01  2.5147E+03

           1    3.80012E+00     4.1082E-02 -3.3003E-03 -2.2739E-01  2.3110E-01
ac ID =   33377                 2.3802E-01  1.8875E+00 -1.0781E-01  1.9055E+00
                               -3.7607E-01  1.0758E+01 -4.7203E+01  2.5147E+03

           1    3.90011E+00     4.7597E-02  1.1239E-03 -2.9796E-01  3.0174E-01
ac ID =   33377                 6.5414E-02  1.9643E+00 -2.1661E-02  1.9655E+00
                               -3.7617E-01  1.0769E+01 -4.7216E+01  2.5147E+03

           1    4.00010E+00     4.9007E-02 -5.2107E-05 -2.5206E-01  2.5678E-01
ac ID =   33377                -9.0541E-02  1.6896E+00  3.8145E-02  1.6925E+00
                               -3.7625E-01  1.0781E+01 -4.7230E+01  2.5147E+03

           1    4.10009E+00     4.8573E-02  2.5888E-03 -2.3082E-01  2.3589E-01
ac ID =   33377                -2.0091E-01  1.5100E+00 -1.7636E-02  1.5234E+00
                               -3.7632E-01  1.0793E+01 -4.7244E+01  2.5147E+03

           1    4.20008E+00     4.5063E-02  2.6178E-03 -2.9648E-01  2.9989E-01
ac ID =   33377                -2.4314E-01  1.5673E+00  8.2480E-02  1.5882E+00
                               -3.7641E-01  1.0807E+01 -4.7258E+01  2.5147E+03

           1    4.30007E+00     5.7197E-02  5.5954E-03 -4.0719E-01  4.1123E-01
ac ID =   33377                -4.1791E-01  2.1569E+00  2.0720E-01  2.2067E+00
                               -3.7651E-01  1.0821E+01 -4.7272E+01  2.5147E+03

           1    4.40006E+00     6.8559E-02  5.4215E-03 -3.7651E-01  3.8274E-01
ac ID =   33377                -1.6771E-01  2.4520E+00  1.1029E-01  2.4602E+00
                               -3.7662E-01  1.0836E+01 -4.7286E+01  2.5147E+03

           1    4.50005E+00     6.8084E-02  1.8868E-03 -3.1703E-01  3.2427E-01
ac ID =   33377                 1.2717E-01  2.3834E+00 -1.5310E-01  2.3917E+00
                               -3.7673E-01  1.0853E+01 -4.7301E+01  2.5147E+03

           1    4.60004E+00     7.1883E-02 -6.1987E-03 -3.8561E-01  3.9230E-01
ac ID =   33377                 2.3620E-01  2.5601E+00 -1.7703E-01  2.5770E+00
                               -3.7682E-01  1.0870E+01 -4.7316E+01  2.5147E+03

           1    4.70003E+00     7.4316E-02  2.8933E-03 -4.6624E-01  4.7213E-01
ac ID =   33377                 4.1800E-02  2.5817E+00 -6.0568E-02  2.5827E+00
                               -3.7692E-01  1.0889E+01 -4.7330E+01  2.5147E+03

           1    4.80002E+00     7.8260E-02  2.2023E-03 -5.0344E-01  5.0949E-01
ac ID =   33377                -7.1653E-02  2.5348E+00  5.1579E-02  2.5363E+00
                               -3.7700E-01  1.0909E+01 -4.7346E+01  2.5147E+03

           1    4.90001E+00     7.9752E-02  3.3105E-04 -4.6081E-01  4.6766E-01
ac ID =   33377                -1.0647E-01  2.5949E+00  3.7360E-02  2.5973E+00
                               -3.7707E-01  1.0930E+01 -4.7361E+01  2.5147E+03

           1    5.00000E+00     7.5964E-02  4.9929E-03 -4.6004E-01  4.6629E-01
ac ID =   33377                -5.4295E-01  2.6068E+00 -5.6147E-02  2.6633E+00
                               -3.7714E-01  1.0953E+01 -4.7377E+01  2.5147E+03

           1    5.10049E+00     8.6235E-02  7.6935E-03 -5.6584E-01  5.7242E-01
ac ID =   33377                -5.2943E-01  2.8808E+00 -2.0291E-02  2.9291E+00
                               -3.7724E-01  1.0976E+01 -4.7392E+01  2.5147E+03

           1    5.20048E+00     9.0769E-02  8.5993E-03 -5.9855E-01  6.0545E-01
ac ID =   33377                -5.4587E-01  3.2537E+00  8.3995E-03  3.2992E+00
                               -3.7737E-01  1.1002E+01 -4.7408E+01  2.5147E+03

           1    5.30047E+00     9.4424E-02  5.7259E-03 -5.8955E-01  5.9710E-01
ac ID =   33377                -4.5613E-01  3.2841E+00  4.0422E-02  3.3159E+00
                               -3.7749E-01  1.1028E+01 -4.7424E+01  2.5147E+03

           1    5.40046E+00     8.6803E-02 -1.8307E-03 -5.8853E-01  5.9490E-01
ac ID =   33377                -1.7399E-01  3.3051E+00  5.4146E-02  3.3101E+00
                               -3.7763E-01  1.1056E+01 -4.7440E+01  2.5147E+03

           1    5.50045E+00     9.7818E-02 -2.3967E-03 -6.5823E-01  6.6547E-01
ac ID =   33377                 6.1317E-02  3.3542E+00 -6.4403E-02  3.3553E+00
                               -3.7784E-01  1.1085E+01 -4.7456E+01  2.5147E+03

           1    5.60044E+00     6.4354E-02  1.3811E-02 -7.2439E-01  7.2737E-01
ac ID =   33377                -4.9898E-01  3.3571E+00 -8.8375E-03  3.3940E+00
                               -3.7800E-01  1.1114E+01 -4.7471E+01  2.5147E+03

           1    5.70043E+00     1.1735E-01 -4.4253E-03 -7.8245E-01  7.9121E-01
ac ID =   33377                -2.2342E-01  3.9743E+00  4.8908E-02  3.9809E+00
                               -3.7815E-01  1.1145E+01 -4.7486E+01  2.5147E+03

           1    5.80042E+00     9.8105E-02 -1.6999E-03 -7.5093E-01  7.5731E-01
ac ID =   33377                -2.1533E-01  3.5360E+00  2.1667E-01  3.5492E+00
                               -3.7833E-01  1.1178E+01 -4.7502E+01  2.5147E+03

           1    5.90041E+00     9.6472E-02  9.0403E-03 -7.6605E-01  7.7215E-01
ac ID =   33377                -7.4207E-01  3.9011E+00  4.4235E-02  3.9713E+00
                               -3.7850E-01  1.1211E+01 -4.7516E+01  2.5147E+03

           1    6.00040E+00     1.1030E-01  1.6044E-02 -8.2050E-01  8.2804E-01
ac ID =   33377                -9.5619E-01  4.3940E+00 -1.2263E-01  4.4985E+00
                               -3.7874E-01  1.1245E+01 -4.7531E+01  2.5147E+03

           1    6.10039E+00     9.9583E-02 -6.2125E-03 -8.2472E-01  8.3074E-01
ac ID =   33377                -1.5570E-01  3.6587E+00 -1.1869E-01  3.6640E+00
                               -3.7900E-01  1.1280E+01 -4.7545E+01  2.5147E+03

           1    6.20038E+00     1.2000E-01  8.3357E-04 -8.6170E-01  8.7002E-01
ac ID =   33377                -5.8275E-01  4.2686E+00 -5.4622E-02  4.3085E+00
                               -3.7924E-01  1.1317E+01 -4.7559E+01  2.5147E+03

           1    6.30037E+00     8.1781E-02  1.5371E-02 -8.7755E-01  8.8149E-01
ac ID =   33377                -8.5770E-01  3.6015E+00 -1.7158E-01  3.7062E+00
                               -3.7957E-01  1.1355E+01 -4.7573E+01  2.5147E+03

           1    6.40036E+00     1.3084E-01 -3.1880E-03 -9.4784E-01  9.5684E-01
ac ID =   33377                -2.2885E-02  4.6800E+00  4.4466E-02  4.6803E+00
                               -3.7992E-01  1.1393E+01 -4.7586E+01  2.5147E+03

           1    6.50035E+00     1.1477E-01 -9.4719E-03 -1.0032E+00  1.0098E+00
ac ID =   33377                -6.8667E-02  4.9298E+00 -7.4492E-02  4.9309E+00
                               -3.8020E-01  1.1433E+01 -4.7598E+01  2.5147E+03

           1    6.60034E+00     1.2307E-01  1.3891E-02 -1.0159E+00  1.0234E+00
ac ID =   33377                -9.8729E-01  4.8496E+00 -1.8465E-01  4.9525E+00
                               -3.8055E-01  1.1474E+01 -4.7610E+01  2.5147E+03

           1    6.70033E+00     1.2433E-01  1.3999E-02 -1.0311E+00  1.0387E+00
ac ID =   33377                -7.0757E-01  5.3710E+00 -5.3035E-02  5.4177E+00
                               -3.8097E-01  1.1516E+01 -4.7622E+01  2.5147E+03

           1    6.80032E+00     1.3815E-01 -2.1996E-02 -1.0548E+00  1.0641E+00
ac ID =   33377                 6.1051E-02  5.2390E+00  5.2355E-02  5.2396E+00
                               -3.8127E-01  1.1560E+01 -4.7633E+01  2.5147E+03

           1    6.90031E+00     1.1909E-01  2.3886E-02 -1.1035E+00  1.1101E+00
ac ID =   33377                -1.3996E+00  5.1489E+00  2.1391E-01  5.3400E+00
                               -3.8165E-01  1.1604E+01 -4.7643E+01  2.5147E+03

           1    7.00030E+00     1.3224E-01  9.7626E-03 -1.1322E+00  1.1400E+00
ac ID =   33377                -7.2978E-01  5.2861E+00 -2.2911E-01  5.3411E+00
                               -3.8213E-01  1.1649E+01 -4.7653E+01  2.5147E+03

           1    7.10029E+00     1.4909E-01  2.1100E-03 -1.1763E+00  1.1857E+00
ac ID =   33377                -5.9596E-01  5.7955E+00 -1.8102E-01  5.8289E+00
                               -3.8252E-01  1.1696E+01 -4.7662E+01  2.5147E+03

           1    7.20028E+00     1.1907E-01 -1.5442E-02 -1.2143E+00  1.2202E+00
ac ID =   33377                -3.8042E-01  5.4546E+00 -3.0513E-01  5.4764E+00
                               -3.8291E-01  1.1744E+01 -4.7670E+01  2.5147E+03

           1    7.30027E+00     1.4635E-01  2.5822E-02 -1.2893E+00  1.2978E+00
ac ID =   33377                -1.1665E+00  6.0643E+00 -4.7735E-02  6.1757E+00
                               -3.8346E-01  1.1793E+01 -4.7678E+01  2.5147E+03

           1    7.40026E+00     1.6850E-01  2.1354E-03 -1.3102E+00  1.3210E+00
ac ID =   33377                -2.7301E-01  6.8664E+00  7.5128E-02  6.8722E+00
                               -3.8395E-01  1.1843E+01 -4.7685E+01  2.5147E+03

           1    7.50025E+00     1.5514E-01 -1.8569E-02 -1.3101E+00  1.3194E+00
ac ID =   33377                -1.0436E-01  6.6695E+00 -1.8005E-01  6.6727E+00
                               -3.8436E-01  1.1894E+01 -4.7690E+01  2.5147E+03

           1    7.60024E+00     1.3939E-01  2.0181E-02 -1.3493E+00  1.3567E+00
ac ID =   33377                -1.3196E+00  6.6905E+00 -3.0998E-01  6.8265E+00
                               -3.8487E-01  1.1946E+01 -4.7695E+01  2.5147E+03

           1    7.70023E+00     1.6696E-01  1.8890E-04 -1.3441E+00  1.3545E+00
ac ID =   33377                -4.4538E-01  6.6210E+00 -4.3360E-01  6.6501E+00
                               -3.8543E-01  1.2000E+01 -4.7699E+01  2.5147E+03

           1    7.80022E+00     1.8074E-01 -7.7436E-03 -1.3889E+00  1.4006E+00
ac ID =   33377                -5.6946E-01  6.7801E+00 -5.1300E-02  6.8041E+00
                               -3.8589E-01  1.2054E+01 -4.7703E+01  2.5147E+03

           1    7.90021E+00     1.4703E-01  1.6755E-02 -1.4086E+00  1.4164E+00
ac ID =   33377                -1.2024E+00  6.2505E+00  2.5918E-02  6.3652E+00
                               -3.8643E-01  1.2110E+01 -4.7705E+01  2.5147E+03

           1    8.00020E+00     1.6150E-01  5.9709E-03 -1.4335E+00  1.4426E+00
ac ID =   33377                -8.5502E-01  6.8824E+00 -7.1896E-02  6.9357E+00
                               -3.8701E-01  1.2167E+01 -4.7706E+01  2.5147E+03

           1    8.10019E+00     1.7549E-01 -7.2131E-03 -1.4799E+00  1.4902E+00
ac ID =   33377                -5.1144E-01  7.4639E+00 -2.6574E-01  7.4862E+00
                               -3.8756E-01  1.2224E+01 -4.7706E+01  2.5147E+03

           1    8.20018E+00     1.7878E-01  4.2165E-03 -1.5147E+00  1.5252E+00
ac ID =   33377                -7.3054E-01  7.4545E+00 -2.2509E-01  7.4936E+00
                               -3.8817E-01  1.2283E+01 -4.7705E+01  2.5147E+03

           1    8.30017E+00     1.9552E-01  1.1365E-02 -1.5618E+00  1.5741E+00
ac ID =   33377                -8.3250E-01  8.1079E+00  9.7209E-03  8.1505E+00
                               -3.8878E-01  1.2343E+01 -4.7703E+01  2.5147E+03

           1    8.40016E+00     1.9027E-01 -7.7476E-03 -1.5576E+00  1.5692E+00
ac ID =   33377                -4.0061E-01  7.6698E+00  2.3905E-01  7.6840E+00
                               -3.8940E-01  1.2404E+01 -4.7700E+01  2.5147E+03

           1    8.50015E+00     1.9317E-01  4.0102E-04 -1.5759E+00  1.5877E+00
ac ID =   33377                -7.0278E-01  8.2540E+00 -1.2443E-02  8.2839E+00
                               -3.8997E-01  1.2466E+01 -4.7696E+01  2.5147E+03

           1    8.60014E+00     1.7222E-01 -9.3302E-04 -1.6056E+00  1.6148E+00
ac ID =   33377                -9.0874E-01  7.7721E+00 -1.1236E-01  7.8258E+00
                               -3.9057E-01  1.2529E+01 -4.7690E+01  2.5147E+03

           1    8.70013E+00     1.8959E-01  1.4539E-02 -1.6544E+00  1.6653E+00
ac ID =   33377                -1.0423E+00  7.8599E+00 -2.4635E-01  7.9325E+00
                               -3.9123E-01  1.2593E+01 -4.7684E+01  2.5147E+03

           1    8.80012E+00     1.9582E-01 -2.6529E-03 -1.6856E+00  1.6970E+00
ac ID =   33377                -8.6860E-01  8.1529E+00 -2.4235E-01  8.2026E+00
                               -3.9183E-01  1.2658E+01 -4.7676E+01  2.5147E+03

           1    8.90011E+00     1.8821E-01  1.4813E-02 -1.6656E+00  1.6763E+00
ac ID =   33377                -1.3619E+00  7.9021E+00  6.3144E-02  8.0189E+00
                               -3.9244E-01  1.2724E+01 -4.7666E+01  2.5147E+03

           1    9.00010E+00     1.9997E-01  9.2782E-04 -1.7012E+00  1.7129E+00
ac ID =   33377                -8.6524E-01  8.2055E+00 -4.1016E-02  8.2510E+00
                               -3.9305E-01  1.2792E+01 -4.7656E+01  2.5147E+03

           1    9.10009E+00     2.1525E-01 -4.6482E-04 -1.7449E+00  1.7581E+00
ac ID =   33377                -6.0859E-01  8.5922E+00 -3.5142E-01  8.6209E+00
                               -3.9365E-01  1.2860E+01 -4.7644E+01  2.5147E+03

           1    9.20008E+00     2.0275E-01  6.5528E-03 -1.7559E+00  1.7675E+00
ac ID =   33377                -9.0819E-01  8.2993E+00 -3.8810E-01  8.3579E+00
                               -3.9424E-01  1.2929E+01 -4.7630E+01  2.5147E+03

           1    9.30007E+00     2.0104E-01 -2.4995E-03 -1.7481E+00  1.7596E+00
ac ID =   33377                -7.7652E-01  7.9708E+00 -2.3010E-01  8.0119E+00
                               -3.9480E-01  1.2999E+01 -4.7616E+01  2.5147E+03

           1    9.40006E+00     2.0254E-01  3.2981E-03 -1.7506E+00  1.7623E+00
ac ID =   33377                -7.8473E-01  8.1199E+00  6.1393E-02  8.1580E+00
                               -3.9537E-01  1.3070E+01 -4.7599E+01  2.5147E+03

           1    9.50005E+00     2.1046E-01  1.4256E-03 -1.7793E+00  1.7917E+00
ac ID =   33377                -9.2479E-01  8.4247E+00  1.0444E-01  8.4760E+00
                               -3.9588E-01  1.3142E+01 -4.7582E+01  2.5147E+03

           1    9.60004E+00     1.9287E-01 -3.8568E-04 -1.8076E+00  1.8179E+00
ac ID =   33377                -1.0688E+00  8.1002E+00 -1.7448E-01  8.1722E+00
                               -3.9635E-01  1.3214E+01 -4.7562E+01  2.5147E+03

           1    9.70003E+00     2.2191E-01  1.5539E-02 -1.8067E+00  1.8204E+00
ac ID =   33377                -1.3978E+00  8.7137E+00 -2.6481E-01  8.8291E+00
                               -3.9687E-01  1.3288E+01 -4.7542E+01  2.5147E+03

           1    9.80002E+00     2.2355E-01  1.9134E-03 -1.7871E+00  1.8011E+00
ac ID =   33377                -9.9167E-01  8.5040E+00  4.1096E-02  8.5617E+00
                               -3.9735E-01  1.3363E+01 -4.7519E+01  2.5147E+03

           1    9.90001E+00     2.1253E-01 -3.7742E-03 -1.8270E+00  1.8393E+00
ac ID =   33377                -8.8063E-01  8.3954E+00  1.9622E-01  8.4437E+00
                               -3.9780E-01  1.3438E+01 -4.7496E+01  2.5147E+03

           1    1.00005E+01     2.2710E-01  1.5587E-02 -1.8634E+00  1.8773E+00
ac ID =   33377                -1.4079E+00  8.6887E+00  2.3316E-01  8.8051E+00
                               -3.9827E-01  1.3515E+01 -4.7470E+01  2.5147E+03

           1    1.01005E+01     2.3070E-01 -2.3881E-03 -1.8833E+00  1.8974E+00
ac ID =   33377                -7.3073E-01  8.6304E+00 -7.1194E-02  8.6615E+00
                               -3.9873E-01  1.3593E+01 -4.7444E+01  2.5147E+03

           1    1.02005E+01     2.3584E-01  7.3204E-03 -1.8944E+00  1.9090E+00
ac ID =   33377                -9.0123E-01  8.6848E+00 -3.2238E-01  8.7374E+00
                               -3.9910E-01  1.3672E+01 -4.7416E+01  2.5147E+03

           1    1.03005E+01     2.4414E-01  7.2007E-03 -1.9018E+00  1.9174E+00
ac ID =   33377                -1.3208E+00  8.7141E+00 -1.3821E-01  8.8147E+00
                               -3.9948E-01  1.3751E+01 -4.7386E+01  2.5147E+03

           1    1.04005E+01     2.2384E-01  6.3430E-03 -1.9307E+00  1.9437E+00
ac ID =   33377                -1.0810E+00  8.6361E+00  9.9093E-02  8.7040E+00
                               -3.9990E-01  1.3832E+01 -4.7355E+01  2.5147E+03

           1    1.05004E+01     2.3555E-01 -2.8913E-03 -1.9279E+00  1.9422E+00
ac ID =   33377                -1.0174E+00  8.7720E+00 -1.2770E-01  8.8317E+00
                               -4.0019E-01  1.3914E+01 -4.7323E+01  2.5147E+03

           1    1.06004E+01     2.3058E-01  1.5656E-02 -1.8970E+00  1.9110E+00
ac ID =   33377                -1.2794E+00  8.5048E+00 -2.1767E-01  8.6033E+00
                               -4.0055E-01  1.3997E+01 -4.7289E+01  2.5147E+03

           1    1.07004E+01     2.3900E-01  1.6916E-02 -1.8900E+00  1.9051E+00
ac ID =   33377                -1.3869E+00  8.2433E+00 -2.7291E-02  8.3592E+00
                               -4.0092E-01  1.4082E+01 -4.7254E+01  2.5147E+03

           1    1.08004E+01     2.4629E-01 -6.9575E-03 -1.8893E+00  1.9053E+00
ac ID =   33377                -8.2408E-01  8.2584E+00 -1.3171E-01  8.3004E+00
                               -4.0116E-01  1.4167E+01 -4.7217E+01  2.5147E+03

           1    1.09004E+01     2.3521E-01  2.1903E-03 -1.9146E+00  1.9290E+00
ac ID =   33377                -1.1144E+00  8.1299E+00 -2.5532E-01  8.2099E+00
                               -4.0144E-01  1.4253E+01 -4.7179E+01  2.5147E+03

           1    1.10004E+01     2.3182E-01  2.1946E-02 -1.9168E+00  1.9309E+00
ac ID =   33377                -1.2055E+00  8.3455E+00 -1.8113E-01  8.4341E+00
                               -4.0176E-01  1.4340E+01 -4.7139E+01  2.5147E+03

           1    1.11004E+01     2.4399E-01 -1.0893E-03 -1.8843E+00  1.9000E+00
ac ID =   33377                -8.7081E-01  8.2783E+00 -1.0045E-01  8.3246E+00
                               -4.0193E-01  1.4428E+01 -4.7098E+01  2.5147E+03

           1    1.12004E+01     2.3906E-01 -6.7595E-03 -1.8640E+00  1.8793E+00
ac ID =   33377                -7.9324E-01  8.3152E+00 -8.3832E-02  8.3534E+00
                               -4.0211E-01  1.4517E+01 -4.7055E+01  2.5147E+03

           1    1.13004E+01     2.2773E-01  1.7277E-02 -1.8466E+00  1.8606E+00
ac ID =   33377                -1.4259E+00  7.9719E+00 -7.6493E-02  8.0988E+00
                               -4.0228E-01  1.4606E+01 -4.7011E+01  2.5147E+03

           1    1.14004E+01     2.3200E-01  1.1503E-02 -1.8298E+00  1.8445E+00
ac ID =   33377                -1.1606E+00  7.9765E+00 -3.4967E-01  8.0680E+00
                               -4.0234E-01  1.4696E+01 -4.6965E+01  2.5147E+03

           1    1.15003E+01     2.3066E-01 -6.7798E-03 -1.8174E+00  1.8320E+00
ac ID =   33377                -9.7304E-01  7.7493E+00 -1.4856E-01  7.8115E+00
                               -4.0238E-01  1.4787E+01 -4.6917E+01  2.5147E+03

           1    1.16003E+01     2.3302E-01  9.1572E-03 -1.8066E+00  1.8216E+00
ac ID =   33377                -1.1144E+00  7.4852E+00  2.1513E-01  7.5707E+00
                               -4.0243E-01  1.4879E+01 -4.6868E+01  2.5147E+03

           1    1.17003E+01     2.3935E-01  1.6097E-02 -1.8091E+00  1.8249E+00
ac ID =   33377                -1.3072E+00  7.4879E+00  1.9549E-01  7.6037E+00
                               -4.0248E-01  1.4971E+01 -4.6817E+01  2.5147E+03

           1    1.18003E+01     2.1667E-01 -1.6383E-02 -1.7744E+00  1.7876E+00
ac ID =   33377                -4.9886E-01  7.3990E+00  6.3770E-02  7.4160E+00
                               -4.0256E-01  1.5064E+01 -4.6764E+01  2.5147E+03

           1    1.19003E+01     2.3698E-01  5.6150E-03 -1.7846E+00  1.8003E+00
ac ID =   33377                -7.9534E-01  7.4838E+00 -1.0826E-01  7.5268E+00
                               -4.0272E-01  1.5156E+01 -4.6709E+01  2.5147E+03

           1    1.20003E+01     2.3973E-01  7.0713E-04 -1.7599E+00  1.7762E+00
ac ID =   33377                -9.6094E-01  7.3401E+00 -4.2872E-02  7.4028E+00
                               -4.0288E-01  1.5249E+01 -4.6653E+01  2.5147E+03

           1    1.21003E+01     2.1580E-01  3.3738E-03 -1.7314E+00  1.7448E+00
ac ID =   33377                -5.2681E-01  6.7117E+00 -2.3250E-02  6.7324E+00
                               -4.0312E-01  1.5343E+01 -4.6595E+01  2.5147E+03

           1    1.22003E+01     2.2247E-01 -7.1206E-03 -1.7036E+00  1.7181E+00
ac ID =   33377                -6.7622E-01  7.0244E+00 -2.5080E-01  7.0613E+00
                               -4.0332E-01  1.5436E+01 -4.6535E+01  2.5147E+03

           1    1.23003E+01     2.1304E-01  3.9397E-03 -1.6592E+00  1.6728E+00
ac ID =   33377                -1.0988E+00  6.1085E+00 -4.0416E-01  6.2197E+00
                               -4.0355E-01  1.5530E+01 -4.6473E+01  2.5147E+03

           1    1.24003E+01     2.2503E-01  1.0885E-02 -1.6181E+00  1.6337E+00
ac ID =   33377                -1.0051E+00  5.8713E+00 -4.5546E-01  5.9741E+00
                               -4.0391E-01  1.5624E+01 -4.6409E+01  2.5147E+03

           1    1.25002E+01     2.2121E-01 -6.6590E-03 -1.6088E+00  1.6239E+00
ac ID =   33377                -4.4852E-01  5.6780E+00 -2.8106E-01  5.7026E+00
                               -4.0417E-01  1.5717E+01 -4.6344E+01  2.5147E+03

           1    1.26002E+01     2.1632E-01  2.9224E-03 -1.5879E+00  1.6025E+00
ac ID =   33377                -1.1623E+00  5.7241E+00  3.4498E-02  5.8410E+00
                               -4.0454E-01  1.5811E+01 -4.6276E+01  2.5147E+03

           1    1.27002E+01     2.1313E-01  5.3565E-03 -1.5389E+00  1.5536E+00
ac ID =   33377                -7.2010E-01  5.3866E+00  1.4807E-01  5.4365E+00
                               -4.0503E-01  1.5905E+01 -4.6207E+01  2.5147E+03

           1    1.28002E+01     2.2020E-01 -9.8353E-03 -1.5083E+00  1.5243E+00
ac ID =   33377                -2.7284E-01  5.5485E+00  2.8876E-01  5.5627E+00
                               -4.0542E-01  1.5999E+01 -4.6137E+01  2.5147E+03

           1    1.29002E+01     2.0481E-01 -3.3591E-03 -1.4575E+00  1.4718E+00
ac ID =   33377                -2.9998E-01  5.0354E+00 -1.3594E-01  5.0462E+00
                               -4.0593E-01  1.6093E+01 -4.6064E+01  2.5147E+03

           1    1.30002E+01     2.0498E-01  2.2119E-02 -1.4348E+00  1.4495E+00
ac ID =   33377                -1.0680E+00  4.6592E+00  2.3890E-01  4.7860E+00
                               -4.0649E-01  1.6187E+01 -4.5990E+01  2.5147E+03

           1    1.31002E+01     1.9350E-01 -1.6655E-02 -1.4007E+00  1.4141E+00
ac ID =   33377                -3.0719E-01  4.2861E+00  9.5931E-02  4.2982E+00
                               -4.0699E-01  1.6280E+01 -4.5915E+01  2.5147E+03

           1    1.32002E+01     2.0025E-01 -9.5951E-04 -1.3426E+00  1.3574E+00
ac ID =   33377                -5.7012E-01  3.9986E+00  9.3921E-02  4.0402E+00
                               -4.0753E-01  1.6374E+01 -4.5838E+01  2.5147E+03

           1    1.33002E+01     1.8845E-01  1.4642E-02 -1.3179E+00  1.3313E+00
ac ID =   33377                -1.2235E+00  3.5675E+00  3.6685E-01  3.7892E+00
                               -4.0810E-01  1.6467E+01 -4.5759E+01  2.5147E+03

           1    1.34002E+01     2.0349E-01  1.3435E-02 -1.2795E+00  1.2956E+00
ac ID =   33377                -7.6847E-01  3.3062E+00  5.3062E-02  3.3948E+00
                               -4.0873E-01  1.6560E+01 -4.5679E+01  2.5147E+03

           1    1.35001E+01     1.7903E-01 -2.3735E-02 -1.2461E+00  1.2591E+00
ac ID =   33377                -4.2184E-01  2.8407E+00 -4.6644E-02  2.8722E+00
                               -4.0919E-01  1.6653E+01 -4.5597E+01  2.5147E+03

           1    1.36001E+01     2.0482E-01  2.4066E-03 -1.2360E+00  1.2528E+00
ac ID =   33377                -7.4430E-01  2.8566E+00 -2.9838E-01  2.9670E+00
                               -4.0983E-01  1.6746E+01 -4.5513E+01  2.5147E+03

           1    1.37001E+01     1.7898E-01  2.8286E-02 -1.1610E+00  1.1750E+00
ac ID =   33377                -7.3173E-01  2.1963E+00 -3.3381E-03  2.3150E+00
                               -4.1052E-01  1.6839E+01 -4.5429E+01  2.5147E+03

           1    1.38001E+01     1.8206E-01 -2.4699E-02 -1.1375E+00  1.1523E+00
ac ID =   33377                -6.1574E-02  1.9062E+00 -1.5475E-01  1.9134E+00
                               -4.1101E-01  1.6932E+01 -4.5343E+01  2.5147E+03

           1    1.39001E+01     1.6182E-01  3.4995E-03 -1.0837E+00  1.0958E+00
ac ID =   33377                -2.9858E-01  1.6518E+00 -4.4669E-01  1.7370E+00
                               -4.1166E-01  1.7024E+01 -4.5256E+01  2.5147E+03

           1    1.40001E+01     1.4606E-01  1.4007E-02 -1.0258E+00  1.0363E+00
ac ID =   33377                -1.0698E+00  7.0780E-01 -2.4640E-01  1.3062E+00
                               -4.1224E-01  1.7117E+01 -4.5167E+01  2.5147E+03

           1    1.41001E+01     1.8433E-01  3.4788E-04 -1.0076E+00  1.0243E+00
ac ID =   33377                -2.3635E-01  1.1402E+00 -2.8807E-01  1.1996E+00
                               -4.1285E-01  1.7209E+01 -4.5078E+01  2.5147E+03

           1    1.42001E+01     1.3276E-01 -1.1243E-02 -9.2951E-01  9.3901E-01
ac ID =   33377                -6.7020E-01  3.4993E-01  4.3797E-01  8.7375E-01
                               -4.1334E-01  1.7301E+01 -4.4987E+01  2.5147E+03

           1    1.43001E+01     1.4219E-01  1.8917E-02 -8.8139E-01  8.9298E-01
ac ID =   33377                -7.2866E-01  5.3879E-01  3.1767E-01  9.6029E-01
                               -4.1402E-01  1.7393E+01 -4.4895E+01  2.5147E+03

           1    1.44001E+01     1.4332E-01 -8.8382E-03 -8.5546E-01  8.6742E-01
ac ID =   33377                -6.6104E-01  3.0171E-01 -1.4673E-01  7.4130E-01
                               -4.1456E-01  1.7485E+01 -4.4802E+01  2.5147E+03

           1    1.45000E+01     1.4278E-01  2.6910E-04 -7.6781E-01  7.8097E-01
ac ID =   33377                -3.5311E-01 -1.2053E-01 -3.6889E-01  5.2468E-01
                               -4.1522E-01  1.7577E+01 -4.4708E+01  2.5147E+03

           1    1.46000E+01     1.3007E-01 -3.1206E-04 -7.4152E-01  7.5284E-01
ac ID =   33377                -1.9368E-01 -3.6270E-01 -6.3004E-02  4.1597E-01
                               -4.1589E-01  1.7668E+01 -4.4613E+01  2.5147E+03

           1    1.47000E+01     9.0482E-02  1.1543E-02 -7.0093E-01  7.0684E-01
ac ID =   33377                -7.9116E-01 -9.4124E-01  8.0084E-02  1.2322E+00
                               -4.1650E-01  1.7759E+01 -4.4517E+01  2.5147E+03

           1    1.48005E+01     1.3048E-01 -1.3496E-02 -6.4377E-01  6.5700E-01
ac ID =   33377                 1.5798E-01 -3.6355E-01  4.4921E-02  3.9893E-01
                               -4.1721E-01  1.7850E+01 -4.4420E+01  2.5147E+03

           1    1.49005E+01     9.4340E-02 -5.1983E-03 -5.9422E-01  6.0168E-01
ac ID =   33377                -4.5743E-01 -1.1018E+00  1.2967E-01  1.2000E+00
                               -4.1781E-01  1.7940E+01 -4.4322E+01  2.5147E+03

           1    1.50005E+01     1.1005E-01  1.6687E-02 -5.5326E-01  5.6434E-01
ac ID =   33377                -5.8813E-01 -1.0568E+00 -9.0429E-02  1.2128E+00
                               -4.1857E-01  1.8031E+01 -4.4223E+01  2.5147E+03

           1    1.51005E+01     1.0192E-01 -1.0233E-03 -5.2101E-01  5.3089E-01
ac ID =   33377                -3.9340E-01 -8.3268E-01 -6.7790E-02  9.2342E-01
                               -4.1926E-01  1.8120E+01 -4.4124E+01  2.5147E+03

           1    1.52005E+01     8.6272E-02 -6.2055E-03 -4.5806E-01  4.6616E-01
ac ID =   33377                -2.8750E-01 -1.4221E+00 -2.1495E-01  1.4667E+00
                               -4.1993E-01  1.8210E+01 -4.4024E+01  2.5147E+03

           1    1.53005E+01     7.4116E-02  8.1306E-03 -3.8243E-01  3.8963E-01
ac ID =   33377                -6.6930E-01 -1.4581E+00 -3.5471E-01  1.6431E+00
                               -4.2067E-01  1.8299E+01 -4.3924E+01  2.5147E+03

           1    1.54005E+01     1.1138E-01  2.1867E-04 -3.6059E-01  3.7740E-01
ac ID =   33377                -3.2370E-01 -5.1824E-01 -1.7929E-01  6.3679E-01
                               -4.2142E-01  1.8388E+01 -4.3823E+01  2.5147E+03

           1    1.55004E+01     1.0028E-01 -8.2111E-03 -3.0430E-01  3.2051E-01
ac ID =   33377                 1.0077E-01  1.4572E-01 -9.0519E-02  1.9895E-01
                               -4.2215E-01  1.8477E+01 -4.3722E+01  2.5147E+03

           1    1.56004E+01     7.8426E-02  2.9078E-03 -2.5260E-01  2.6451E-01
ac ID =   33377                -4.7696E-01 -2.5250E-01 -1.0814E-01  5.5040E-01
                               -4.2285E-01  1.8565E+01 -4.3620E+01  2.5147E+03

           1    1.57004E+01     1.0994E-01  2.6771E-03 -2.2636E-01  2.5166E-01
ac ID =   33377                -1.6522E-01  4.3636E-01 -2.8746E-01  5.4803E-01
                               -4.2364E-01  1.8654E+01 -4.3518E+01  2.5147E+03

           1    1.58004E+01     9.3569E-02 -1.0253E-02 -1.6756E-01  1.9219E-01
ac ID =   33377                 1.2636E-01 -2.8253E-01 -3.2268E-01  4.4711E-01
                               -4.2435E-01  1.8742E+01 -4.3416E+01  2.5147E+03

           1    1.59004E+01     7.3550E-02 -6.1707E-03 -1.1575E-01  1.3728E-01
ac ID =   33377                -1.9646E-01 -6.0122E-01  1.0247E-01  6.4075E-01
                               -4.2503E-01  1.8829E+01 -4.3314E+01  2.5147E+03

           1    1.60004E+01     9.1223E-02  1.5355E-02 -7.7886E-02  1.2093E-01
ac ID =   33377                -4.4033E-01  3.2694E-01  2.1405E-01  5.8873E-01
                               -4.2586E-01  1.8917E+01 -4.3212E+01  2.5147E+03

           1    1.61004E+01     9.6578E-02 -1.0908E-03 -1.5852E-02  9.7876E-02
ac ID =   33377                -1.5151E-01  4.7541E-01  1.2265E-01  5.1382E-01
                               -4.2657E-01  1.9004E+01 -4.3110E+01  2.5147E+03

           1    1.62004E+01     1.0864E-01 -1.8440E-02  2.7922E-02  1.1368E-01
ac ID =   33377                 1.2607E-01  1.0034E+00 -7.5389E-02  1.0141E+00
                               -4.2730E-01  1.9092E+01 -4.3008E+01  2.5147E+03

           1    1.63004E+01     1.1117E-01  3.0797E-02  5.0321E-02  1.2585E-01
ac ID =   33377                -7.8999E-01  1.3058E+00  2.2616E-01  1.5428E+00
                               -4.2813E-01  1.9180E+01 -4.2907E+01  2.5147E+03

           1    1.64004E+01     9.8348E-02 -8.3225E-03  8.2984E-02  1.2895E-01
ac ID =   33377                 2.1407E-01  1.1327E+00  2.9678E-01  1.1903E+00
                               -4.2891E-01  1.9268E+01 -4.2807E+01  2.5147E+03

           1    1.65003E+01     1.0096E-01 -8.1423E-03  1.0771E-01  1.4785E-01
ac ID =   33377                 2.6145E-01  9.7965E-01 -1.3247E-01  1.0226E+00
                               -4.2971E-01  1.9356E+01 -4.2707E+01  2.5147E+03

           1    1.66003E+01     1.1590E-01  9.4102E-04  1.4042E-01  1.8208E-01
ac ID =   33377                -4.0775E-01  1.1258E+00 -2.4797E-01  1.2228E+00
                               -4.3047E-01  1.9445E+01 -4.2608E+01  2.5147E+03

           1    1.67003E+01     1.0716E-01  1.0109E-02  1.5986E-01  1.9272E-01
ac ID =   33377                 1.8992E-01  1.0082E+00 -1.7779E-01  1.0412E+00
                               -4.3140E-01  1.9535E+01 -4.2510E+01  2.5147E+03

           1    1.68003E+01     1.2808E-01 -1.5082E-02  1.7659E-01  2.1867E-01
ac ID =   33377                 2.5875E-01  1.5096E+00  1.6093E-01  1.5401E+00
                               -4.3216E-01  1.9626E+01 -4.2413E+01  2.5147E+03

           1    1.69003E+01     1.2415E-01  4.3402E-03  2.0875E-01  2.4292E-01
ac ID =   33377                -8.4252E-02  1.6905E+00  3.0731E-01  1.7203E+00
                               -4.3303E-01  1.9717E+01 -4.2318E+01  2.5147E+03

           1    1.70003E+01     1.5038E-01  6.7669E-03  2.2189E-01  2.6813E-01
ac ID =   33377                -1.4472E-01  2.0999E+00 -2.3428E-01  2.1179E+00
                               -4.3391E-01  1.9810E+01 -4.2224E+01  2.5147E+03

           1    1.71003E+01     1.1582E-01 -1.5481E-03  2.9203E-01  3.1416E-01
ac ID =   33377                 3.2261E-02  1.1861E+00 -4.2551E-01  1.2606E+00
                               -4.3474E-01  1.9905E+01 -4.2131E+01  2.5147E+03

           1    1.72003E+01     1.4918E-01 -9.4743E-03  3.0031E-01  3.3546E-01
ac ID =   33377                 4.2435E-01  1.5724E+00  1.0897E-01  1.6323E+00
                               -4.3562E-01  2.0001E+01 -4.2040E+01  2.5147E+03

           1    1.73003E+01     1.3655E-01  5.6866E-03  2.7967E-01  3.1128E-01
ac ID =   33377                -3.7147E-01  2.4832E+00 -1.3817E-01  2.5147E+00
                               -4.3655E-01  2.0098E+01 -4.1950E+01  2.5147E+03

           1    1.74003E+01     1.3870E-01  1.6295E-02  2.3360E-01  2.7216E-01
ac ID =   33377                 2.7577E-01  1.7367E+00 -1.1124E+00  2.0808E+00
                               -4.3756E-01  2.0198E+01 -4.1862E+01  2.5147E+03

           1    1.75002E+01     1.6328E-01 -1.1466E-02  3.3681E-01  3.7448E-01
ac ID =   33377                 6.1044E-02  2.3093E+00 -1.0424E+00  2.5343E+00
                               -4.3839E-01  2.0299E+01 -4.1776E+01  2.5147E+03

           1    1.76002E+01     1.7422E-01 -5.8216E-03  3.5247E-01  3.9322E-01
ac ID =   33377                 6.9763E-01  2.1114E+00  9.3169E-03  2.2237E+00
                               -4.3942E-01  2.0403E+01 -4.1693E+01  2.5147E+03

           1    1.77002E+01     1.8212E-01  9.5245E-03  3.2034E-01  3.6862E-01
ac ID =   33377                 5.0525E-02  2.9476E+00  4.2767E-01  2.9789E+00
                               -4.4038E-01  2.0509E+01 -4.1611E+01  2.5147E+03

           1    1.78002E+01     2.1865E-01  1.1444E-02  3.2812E-01  3.9446E-01
ac ID =   33377                 1.7003E-01  3.6379E+00 -2.9015E-01  3.6534E+00
                               -4.4130E-01  2.0618E+01 -4.1531E+01  2.5147E+03

           1    1.79002E+01     2.0757E-01 -1.6810E-02  3.4338E-01  4.0159E-01
ac ID =   33377                 3.5525E-01  3.7391E+00 -1.6499E-01  3.7596E+00
                               -4.4225E-01  2.0730E+01 -4.1454E+01  2.5147E+03

           1    1.80002E+01     2.2349E-01 -2.2439E-03  3.2197E-01  3.9194E-01
ac ID =   33377                 1.6286E-01  4.1745E+00 -1.1815E-01  4.1794E+00
                               -4.4329E-01  2.0845E+01 -4.1380E+01  2.5147E+03

           1    1.81002E+01     2.3305E-01  1.6286E-02  3.1045E-01  3.8854E-01
ac ID =   33377                -1.5738E-01  4.4840E+00  3.0385E-01  4.4970E+00
                               -4.4430E-01  2.0963E+01 -4.1308E+01  2.5147E+03

           1    1.82002E+01     2.7212E-01 -1.3171E-02  2.6585E-01  3.8066E-01
ac ID =   33377                 4.8535E-01  5.4766E+00  2.7358E-01  5.5049E+00
                               -4.4525E-01  2.1085E+01 -4.1238E+01  2.5147E+03

           1    1.83002E+01     2.3604E-01 -1.0271E-02  3.0676E-01  3.8720E-01
ac ID =   33377                 3.8246E-01  4.7112E+00 -7.6122E-02  4.7273E+00
                               -4.4630E-01  2.1210E+01 -4.1172E+01  2.5147E+03

           1    1.84002E+01     2.7809E-01  2.6220E-03  2.8377E-01  3.9732E-01
ac ID =   33377                 1.5209E-01  6.3009E+00 -5.6835E-01  6.3283E+00
                               -4.4738E-01  2.1339E+01 -4.1108E+01  2.5147E+03

           1    1.85001E+01     3.1048E-01  1.3202E-02  2.7827E-01  4.1714E-01
ac ID =   33377                 4.4080E-01  6.3076E+00  2.3989E-02  6.3230E+00
                               -4.4841E-01  2.1472E+01 -4.1048E+01  2.5147E+03

           1    1.86001E+01     2.5125E-01 -1.2668E-02  2.3449E-01  3.4391E-01
ac ID =   33377                 7.7277E-01  5.8191E+00  1.7646E-01  5.8729E+00
                               -4.4939E-01  2.1609E+01 -4.0990E+01  2.5147E+03

           1    1.87001E+01     2.9604E-01  1.1135E-02  1.7149E-01  3.4231E-01
ac ID =   33377                 1.5961E-01  6.6818E+00 -1.7215E-01  6.6859E+00
                               -4.5051E-01  2.1749E+01 -4.0935E+01  2.5147E+03

           1    1.88001E+01     3.3887E-01  1.0924E-02  1.9612E-01  3.9168E-01
ac ID =   33377                 2.3801E-01  7.5099E+00 -3.2943E-01  7.5209E+00
                               -4.5156E-01  2.1893E+01 -4.0883E+01  2.5147E+03

           1    1.89001E+01     3.1568E-01 -6.5130E-03  1.9262E-01  3.6986E-01
ac ID =   33377                 4.0650E-01  7.6075E+00 -5.3680E-01  7.6373E+00
                               -4.5265E-01  2.2042E+01 -4.0833E+01  2.5147E+03

           1    1.90001E+01     2.7740E-01  6.8718E-03  1.3436E-01  3.0830E-01
ac ID =   33377                 2.9986E-01  7.4510E+00  9.4179E-02  7.4576E+00
                               -4.5374E-01  2.2194E+01 -4.0787E+01  2.5147E+03

           1    1.91001E+01     3.3954E-01  1.2241E-02  9.2697E-02  3.5218E-01
ac ID =   33377                 2.4415E-01  8.7582E+00 -2.0418E-01  8.7640E+00
                               -4.5486E-01  2.2349E+01 -4.0743E+01  2.5147E+03

           1    1.92001E+01     3.1816E-01  4.3224E-05  9.5927E-02  3.3230E-01
ac ID =   33377                 1.9036E-01  8.3747E+00 -3.6112E-01  8.3846E+00
                               -4.5589E-01  2.2509E+01 -4.0702E+01  2.5147E+03

           1    1.93001E+01     3.0016E-01 -2.0408E-02  7.4328E-02  3.0990E-01
ac ID =   33377                 8.8184E-01  8.3744E+00  1.3606E-01  8.4218E+00
                               -4.5697E-01  2.2672E+01 -4.0663E+01  2.5147E+03

           1    1.94001E+01     3.2841E-01  1.3674E-02  4.5795E-02  3.3187E-01
ac ID =   33377                -2.3434E-01  8.9568E+00 -1.6738E-01  8.9614E+00
                               -4.5804E-01  2.2838E+01 -4.0627E+01  2.5147E+03

           1    1.95000E+01     2.7293E-01 -1.9404E-02 -3.6717E-03  2.7364E-01
ac ID =   33377                 9.3799E-01  8.5046E+00 -1.6576E-01  8.5578E+00
                               -4.5904E-01  2.3007E+01 -4.0592E+01  2.5147E+03

           1    1.96000E+01     2.8908E-01 -2.6469E-02 -2.8401E-02  2.9167E-01
ac ID =   33377                 6.5164E-01  8.7841E+00 -2.8125E-01  8.8127E+00
                               -4.6004E-01  2.3178E+01 -4.0560E+01  2.5147E+03

           1    1.97005E+01     3.1865E-01  2.4560E-02 -6.9162E-02  3.2699E-01
ac ID =   33377                -2.5992E-02  9.6598E+00  7.6940E-01  9.6905E+00
                               -4.6121E-01  2.3353E+01 -4.0530E+01  2.5147E+03

           1    1.98005E+01     3.2649E-01  8.3625E-03 -1.1998E-01  3.4793E-01
ac ID =   33377                 4.5085E-01  1.0198E+01  2.6501E-01  1.0212E+01
                               -4.6215E-01  2.3530E+01 -4.0502E+01  2.5147E+03

           1    1.99005E+01     2.8230E-01 -2.1257E-02 -1.5195E-01  3.2130E-01
ac ID =   33377                 1.3626E+00  9.9654E+00  3.9647E-01  1.0066E+01
                               -4.6302E-01  2.3709E+01 -4.0475E+01  2.5147E+03

           1    2.00005E+01     3.1897E-01 -9.7398E-03 -1.3984E-01  3.4841E-01
ac ID =   33377                 7.0199E-01  1.0082E+01 -1.6292E-01  1.0108E+01
                               -4.6404E-01  2.3890E+01 -4.0449E+01  2.5147E+03

           1    2.01005E+01     2.7965E-01  2.1472E-02 -1.8572E-01  3.3639E-01
ac ID =   33377                -3.0109E-01  9.3033E+00  2.0150E-01  9.3104E+00
                               -4.6503E-01  2.4072E+01 -4.0425E+01  2.5147E+03

           1    2.02005E+01     2.4541E-01 -2.2307E-04 -2.5904E-01  3.5684E-01
ac ID =   33377                 9.3409E-01  9.1412E+00  1.5493E-01  9.1901E+00
                               -4.6587E-01  2.4256E+01 -4.0401E+01  2.5147E+03

           1    2.03005E+01     2.2287E-01 -2.0856E-02 -2.7344E-01  3.5337E-01
ac ID =   33377                 1.1643E+00  8.6316E+00  6.8331E-01  8.7365E+00
                               -4.6666E-01  2.4440E+01 -4.0378E+01  2.5147E+03

           1    2.04005E+01     2.9555E-01  1.2015E-02 -3.4753E-01  4.5637E-01
ac ID =   33377                 1.7576E-01  9.7939E+00 -9.2368E-02  9.7959E+00
                               -4.6757E-01  2.4625E+01 -4.0355E+01  2.5147E+03

           1    2.05004E+01     2.4008E-01  7.3860E-03 -3.7620E-01  4.4634E-01
ac ID =   33377                 5.4945E-01  9.5775E+00 -7.7313E-01  9.6243E+00
                               -4.6837E-01  2.4811E+01 -4.0333E+01  2.5147E+03

           1    2.06004E+01     2.4862E-01  4.4769E-04 -4.2014E-01  4.8819E-01
ac ID =   33377                 3.6028E-01  9.6965E+00 -1.3905E-01  9.7042E+00
                               -4.6908E-01  2.4997E+01 -4.0310E+01  2.5147E+03

           1    2.07004E+01     2.3641E-01 -9.6654E-03 -4.8716E-01  5.4158E-01
ac ID =   33377                 7.1643E-01  1.0582E+01  1.4919E-01  1.0607E+01
                               -4.6970E-01  2.5183E+01 -4.0287E+01  2.5147E+03

           1    2.08004E+01     2.7546E-01 -2.5845E-02 -5.3355E-01  6.0101E-01
ac ID =   33377                 1.3722E+00  1.0920E+01 -3.4811E-01  1.1012E+01
                               -4.7043E-01  2.5369E+01 -4.0264E+01  2.5147E+03

           1    2.09004E+01     2.6903E-01  1.6851E-02 -5.5100E-01  6.1341E-01
ac ID =   33377                 1.2565E-01  1.0973E+01 -1.2011E-01  1.0974E+01
                               -4.7111E-01  2.5554E+01 -4.0240E+01  2.5147E+03

           1    2.10004E+01     2.7531E-01 -9.7199E-03 -5.8459E-01  6.4625E-01
ac ID =   33377                 6.1516E-01  1.0971E+01  1.2875E-01  1.0989E+01
                               -4.7168E-01  2.5739E+01 -4.0215E+01  2.5147E+03

           1    2.11004E+01     2.4419E-01 -8.4449E-04 -6.7063E-01  7.1370E-01
ac ID =   33377                 3.6424E-01  1.0866E+01  3.4518E-01  1.0878E+01
                               -4.7220E-01  2.5923E+01 -4.0190E+01  2.5147E+03

           1    2.12004E+01     2.3213E-01 -3.1208E-02 -7.1732E-01  7.5459E-01
ac ID =   33377                 1.3254E+00  1.0877E+01 -3.7978E-01  1.0964E+01
                               -4.7263E-01  2.6107E+01 -4.0163E+01  2.5147E+03

           1    2.13004E+01     2.4386E-01  2.4681E-02 -7.2584E-01  7.6611E-01
ac ID =   33377                -9.4381E-02  1.0916E+01  2.0266E-01  1.0919E+01
                               -4.7312E-01  2.6289E+01 -4.0135E+01  2.5147E+03

           1    2.14004E+01     2.8642E-01  1.1374E-02 -7.8241E-01  8.3327E-01
ac ID =   33377                 4.2420E-01  1.1714E+01  5.5231E-01  1.1735E+01
                               -4.7344E-01  2.6471E+01 -4.0106E+01  2.5147E+03

           1    2.15003E+01     3.0621E-01 -1.6235E-02 -8.4088E-01  8.9504E-01
ac ID =   33377                 9.1929E-01  1.3446E+01  2.2565E-02  1.3477E+01
                               -4.7372E-01  2.6651E+01 -4.0075E+01  2.5147E+03

           1    2.16003E+01     2.6754E-01 -1.5151E-03 -9.0710E-01  9.4573E-01
ac ID =   33377                 9.2974E-01  1.2498E+01 -5.6522E-01  1.2545E+01
                               -4.7397E-01  2.6829E+01 -4.0042E+01  2.5147E+03

           1    2.17003E+01     2.3897E-01  2.0191E-03 -9.4003E-01  9.6993E-01
ac ID =   33377                 4.8990E-01  1.2209E+01 -1.6424E-02  1.2219E+01
                               -4.7430E-01  2.7006E+01 -4.0008E+01  2.5147E+03

           1    2.18003E+01     3.0072E-01  2.3399E-02 -9.7309E-01  1.0188E+00
ac ID =   33377                 8.9750E-01  1.3229E+01  2.5932E-01  1.3262E+01
                               -4.7444E-01  2.7182E+01 -3.9972E+01  2.5147E+03

           1    2.19003E+01     2.7663E-01 -1.3530E-02 -9.6483E-01  1.0038E+00
ac ID =   33377                 7.0480E-01  1.2597E+01 -1.7023E-01  1.2618E+01
                               -4.7451E-01  2.7356E+01 -3.9934E+01  2.5147E+03

           1    2.20003E+01     2.8480E-01 -1.2484E-02 -1.0281E+00  1.0669E+00
ac ID =   33377                 9.9600E-01  1.2409E+01  5.6190E-02  1.2449E+01
                               -4.7457E-01  2.7528E+01 -3.9893E+01  2.5147E+03

           1    2.21003E+01     2.8902E-01  1.0634E-02 -1.0551E+00  1.0940E+00
ac ID =   33377                 1.4941E-01  1.4076E+01 -7.6392E-01  1.4097E+01
                               -4.7462E-01  2.7699E+01 -3.9851E+01  2.5147E+03

           1    2.22003E+01     2.9840E-01  1.6780E-02 -1.0711E+00  1.1120E+00
ac ID =   33377                 4.4429E-01  1.3756E+01 -5.2851E-01  1.3774E+01
                               -4.7454E-01  2.7868E+01 -3.9806E+01  2.5147E+03

           1    2.23003E+01     2.7324E-01 -1.2865E-03 -1.1060E+00  1.1393E+00
ac ID =   33377                 7.6346E-01  1.3708E+01  1.2615E+00  1.3787E+01
                               -4.7437E-01  2.8036E+01 -3.9760E+01  2.5147E+03

           1    2.24003E+01     3.1836E-01 -2.7231E-02 -1.0704E+00  1.1170E+00
ac ID =   33377                 1.3619E+00  1.4264E+01  9.3465E-01  1.4359E+01
                               -4.7427E-01  2.8201E+01 -3.9711E+01  2.5147E+03

           1    2.25002E+01     2.9345E-01  1.6869E-02 -1.1032E+00  1.1417E+00
ac ID =   33377                 4.9508E-02  1.3685E+01 -3.5595E-01  1.3690E+01
                               -4.7407E-01  2.8365E+01 -3.9659E+01  2.5147E+03

           1    2.26002E+01     2.9464E-01  1.5617E-02 -1.1182E+00  1.1565E+00
ac ID =   33377                 8.6066E-01  1.3760E+01 -6.5547E-01  1.3802E+01
                               -4.7376E-01  2.8527E+01 -3.9605E+01  2.5147E+03

           1    2.27002E+01     2.9185E-01 -1.5398E-02 -1.1272E+00  1.1645E+00
ac ID =   33377                 1.1601E+00  1.3741E+01  8.8565E-02  1.3790E+01
                               -4.7333E-01  2.8687E+01 -3.9549E+01  2.5147E+03

           1    2.28002E+01     2.9975E-01 -2.3738E-02 -1.1554E+00  1.1939E+00
ac ID =   33377                 1.3279E+00  1.4183E+01  6.5138E-01  1.4260E+01
                               -4.7292E-01  2.8846E+01 -3.9490E+01  2.5147E+03

           1    2.29002E+01     2.9939E-01  2.2042E-02 -1.1255E+00  1.1648E+00
ac ID =   33377                 4.9791E-01  1.4381E+01  9.9076E-01  1.4424E+01
                               -4.7243E-01  2.9003E+01 -3.9429E+01  2.5147E+03

           1    2.30002E+01     3.2444E-01  2.7109E-02 -1.1497E+00  1.1949E+00
ac ID =   33377                -2.2011E-01  1.5003E+01 -2.1573E-01  1.5006E+01
                               -4.7186E-01  2.9157E+01 -3.9366E+01  2.5147E+03

           1    2.31002E+01     3.2632E-01 -1.5800E-02 -1.1320E+00  1.1782E+00
ac ID =   33377                 1.0486E+00  1.4758E+01 -1.0499E+00  1.4832E+01
                               -4.7113E-01  2.9311E+01 -3.9300E+01  2.5147E+03

           1    2.32002E+01     3.0863E-01 -9.4806E-03 -1.1104E+00  1.1525E+00
ac ID =   33377                 8.5608E-01  1.4992E+01  8.0056E-02  1.5016E+01
                               -4.7025E-01  2.9462E+01 -3.9231E+01  2.5147E+03

           1    2.33002E+01     3.3714E-01  2.7275E-02 -1.0933E+00  1.1444E+00
ac ID =   33377                -6.9864E-02  1.5510E+01  7.2547E-01  1.5527E+01
                               -4.6948E-01  2.9612E+01 -3.9160E+01  2.5147E+03

           1    2.34002E+01     3.2515E-01  1.1381E-02 -1.0861E+00  1.1338E+00
ac ID =   33377                 8.2371E-01  1.4921E+01  2.6311E-01  1.4946E+01
                               -4.6865E-01  2.9759E+01 -3.9087E+01  2.5147E+03

           1    2.35001E+01     3.1132E-01 -3.5159E-03 -1.0692E+00  1.1136E+00
ac ID =   33377                 8.2777E-01  1.5188E+01 -1.2732E-01  1.5211E+01
                               -4.6747E-01  2.9905E+01 -3.9011E+01  2.5147E+03

           1    2.36001E+01     3.3876E-01 -6.0153E-03 -1.0725E+00  1.1247E+00
ac ID =   33377                 9.6681E-01  1.5931E+01 -6.4527E-01  1.5973E+01
                               -4.6632E-01  3.0049E+01 -3.8933E+01  2.5147E+03

           1    2.37001E+01     3.1143E-01  1.1147E-02 -1.0194E+00  1.0660E+00
ac ID =   33377                 5.6786E-02  1.5502E+01 -3.5874E-01  1.5506E+01
                               -4.6506E-01  3.0192E+01 -3.8852E+01  2.5147E+03

           1    2.38001E+01     3.3472E-01  1.5281E-02 -9.9444E-01  1.0494E+00
ac ID =   33377                 2.2064E-01  1.6139E+01  8.9490E-02  1.6141E+01
                               -4.6377E-01  3.0332E+01 -3.8769E+01  2.5147E+03

           1    2.39001E+01     3.4529E-01 -3.1584E-02 -9.5405E-01  1.0151E+00
ac ID =   33377                 7.4602E-01  1.5728E+01 -1.0708E-02  1.5746E+01
                               -4.6233E-01  3.0471E+01 -3.8684E+01  2.5147E+03

           1    2.40001E+01     3.5167E-01  3.0527E-02 -9.2572E-01  9.9074E-01
ac ID =   33377                -3.8641E-01  1.5682E+01  2.8611E-02  1.5687E+01
                               -4.6082E-01  3.0608E+01 -3.8597E+01  2.5147E+03

           1    2.41001E+01     3.0433E-01  7.8555E-03 -8.9794E-01  9.4814E-01
ac ID =   33377                 4.8327E-01  1.4928E+01  1.2760E-01  1.4937E+01
                               -4.5921E-01  3.0744E+01 -3.8507E+01  2.5147E+03

           1    2.42001E+01     3.2242E-01  2.6558E-03 -8.5370E-01  9.1256E-01
ac ID =   33377                 6.6858E-01  1.5051E+01 -3.8790E-01  1.5070E+01
                               -4.5760E-01  3.0878E+01 -3.8416E+01  2.5147E+03

           1    2.43001E+01     3.2184E-01 -2.1715E-02 -8.1191E-01  8.7364E-01
ac ID =   33377                 3.8562E-01  1.4836E+01 -1.8805E-02  1.4841E+01
                               -4.5581E-01  3.1010E+01 -3.8324E+01  2.5147E+03

           1    2.44001E+01     2.9625E-01  2.2503E-02 -7.8122E-01  8.3581E-01
ac ID =   33377                 1.6517E-01  1.3966E+01  4.7209E-01  1.3975E+01
                               -4.5401E-01  3.1141E+01 -3.8229E+01  2.5147E+03

           1    2.45005E+01     3.2156E-01 -3.0325E-02 -7.3366E-01  8.0161E-01
ac ID =   33377                 1.0159E+00  1.4034E+01 -1.5424E-01  1.4071E+01
                               -4.5218E-01  3.1271E+01 -3.8133E+01  2.5147E+03

           1    2.46005E+01     3.0168E-01  2.1575E-02 -7.1101E-01  7.7267E-01
ac ID =   33377                 2.1103E-01  1.3242E+01  2.3725E-01  1.3245E+01
                               -4.5032E-01  3.1398E+01 -3.8035E+01  2.5147E+03

           1    2.47005E+01     3.0677E-01  1.3367E-03 -6.7279E-01  7.3943E-01
ac ID =   33377                 1.4380E-01  1.3080E+01 -3.7857E-01  1.3086E+01
                               -4.4837E-01  3.1524E+01 -3.7937E+01  2.5147E+03

           1    2.48005E+01     2.9573E-01 -2.4554E-03 -6.1420E-01  6.8169E-01
ac ID =   33377                 2.9563E-01  1.2524E+01 -4.1238E-01  1.2534E+01
                               -4.4642E-01  3.1649E+01 -3.7837E+01  2.5147E+03

           1    2.49005E+01     3.0080E-01 -3.3462E-02 -5.8616E-01  6.5968E-01
ac ID =   33377                 2.6078E-01  1.2438E+01  2.7060E-01  1.2444E+01
                               -4.4432E-01  3.1772E+01 -3.7736E+01  2.5147E+03

