 LSTC 50th% Full_FE H-III Dummy (Beta Version, February 17, 2019)        
                    ls-dyna smp s R16 R16.0_619_d222963 date 03/18/2025

{BEGIN LEGEND}
 Entity #        Title
    22626                                                                                     
{END LEGEND}




 n o d a l   p r i n t   o u t   f o r   t i m e  s t e p       1                              ( at time 0.0000000E+00 )

 nodal point  x-disp     y-disp      z-disp      x-vel       y-vel       z-vel      x-accl      y-accl      z-accl      x-coor      y-coor      z-coor
    22626  0.00000E+00 0.00000E+00 0.00000E+00 0.00000E+00 0.00000E+00-3.12000E+00 0.00000E+00 0.00000E+00 0.00000E+00 4.79642E+01-2.20298E+01 7.33850E+00



 n o d a l   p r i n t   o u t   f o r   t i m e  s t e p       1                              ( at time 0.0000000E+00 )

 nodal point  x-rot      y-rot       z-rot       x-rot vel   y-rot vel   z-rot vel   x-rot acc   y-rot acc   z-rot acc
    22626  0.00000E+00 0.00000E+00 0.00000E+00 0.00000E+00 0.00000E+00 0.00000E+00 0.00000E+00 0.00000E+00 0.00000E+00



 n o d a l   p r i n t   o u t   f o r   t i m e  s t e p     201                              ( at time 9.9989993E-02 )

 nodal point  x-disp     y-disp      z-disp      x-vel       y-vel       z-vel      x-accl      y-accl      z-accl      x-coor      y-coor      z-coor
    22626  8.34174E-07-4.04498E-06-3.12016E-01 4.76578E-05-4.96436E-04-3.12074E+00 4.76626E-04-4.96485E-03-7.42987E-03 4.79642E+01-2.20298E+01 7.02648E+00



 n o d a l   p r i n t   o u t   f o r   t i m e  s t e p     201                              ( at time 9.9989993E-02 )

 nodal point  x-rot      y-rot       z-rot       x-rot vel   y-rot vel   z-rot vel   x-rot acc   y-rot acc   z-rot acc
    22626  9.60610E-09 3.04078E-08 5.27007E-08 1.30712E-06 2.72203E-06 5.21163E-06 1.30725E-05 2.72230E-05 5.21215E-05



 n o d a l   p r i n t   o u t   f o r   t i m e  s t e p     401                              ( at time 1.9997999E-01 )

 nodal point  x-disp     y-disp      z-disp      x-vel       y-vel       z-vel      x-accl      y-accl      z-accl      x-coor      y-coor      z-coor
    22626 -5.12783E-05-5.21565E-04-6.23853E-01-1.09693E-03-1.11140E-02-3.11558E+00-1.14470E-02-1.06187E-01 5.16228E-02 4.79641E+01-2.20303E+01 6.71465E+00



 n o d a l   p r i n t   o u t   f o r   t i m e  s t e p     401                              ( at time 1.9997999E-01 )

 nodal point  x-rot      y-rot       z-rot       x-rot vel   y-rot vel   z-rot vel   x-rot acc   y-rot acc   z-rot acc
    22626  4.60582E-07 1.32985E-06 2.50233E-06 2.65909E-06 1.90491E-05 3.49518E-05 1.35211E-05 1.63287E-04 2.97431E-04



 n o d a l   p r i n t   o u t   f o r   t i m e  s t e p     601                              ( at time 2.9996998E-01 )

 nodal point  x-disp     y-disp      z-disp      x-vel       y-vel       z-vel      x-accl      y-accl      z-accl      x-coor      y-coor      z-coor
    22626 -2.45838E-05-1.97634E-03-9.35238E-01 1.65957E-03-1.60435E-02-3.11415E+00 2.75678E-02-4.92993E-02 1.43018E-02 4.79642E+01-2.20318E+01 6.40326E+00



 n o d a l   p r i n t   o u t   f o r   t i m e  s t e p     601                              ( at time 2.9996998E-01 )

 nodal point  x-rot      y-rot       z-rot       x-rot vel   y-rot vel   z-rot vel   x-rot acc   y-rot acc   z-rot acc
    22626  6.75136E-07 2.41160E-06 4.82739E-06 8.25268E-06 5.33675E-06 1.46584E-05 5.59415E-05-1.37137E-04-2.02954E-04



 n o d a l   p r i n t   o u t   f o r   t i m e  s t e p     801                              ( at time 3.9995997E-01 )

 nodal point  x-disp     y-disp      z-disp      x-vel       y-vel       z-vel      x-accl      y-accl      z-accl      x-coor      y-coor      z-coor
    22626  5.94499E-05-3.57405E-03-1.24663E+00 1.92860E-04-1.73886E-02-3.11353E+00-1.46686E-02-1.34528E-02 6.17804E-03 4.79642E+01-2.20334E+01 6.09187E+00



 n o d a l   p r i n t   o u t   f o r   t i m e  s t e p     801                              ( at time 3.9995997E-01 )

 nodal point  x-rot      y-rot       z-rot       x-rot vel   y-rot vel   z-rot vel   x-rot acc   y-rot acc   z-rot acc
    22626  1.58180E-06 3.68031E-06 6.68033E-06 6.26634E-06 2.43450E-05 3.83443E-05-1.98654E-05 1.90102E-04 2.36883E-04



 n o d a l   p r i n t   o u t   f o r   t i m e  s t e p    1001                              ( at time 4.9994997E-01 )

 nodal point  x-disp     y-disp      z-disp      x-vel       y-vel       z-vel      x-accl      y-accl      z-accl      x-coor      y-coor      z-coor
    22626  7.27442E-05-5.63144E-03-1.55782E+00 8.89004E-04-2.38468E-02-3.11085E+00 6.96214E-03-6.45881E-02 2.68582E-02 4.79643E+01-2.20354E+01 5.78068E+00



 n o d a l   p r i n t   o u t   f o r   t i m e  s t e p    1001                              ( at time 4.9994997E-01 )

 nodal point  x-rot      y-rot       z-rot       x-rot vel   y-rot vel   z-rot vel   x-rot acc   y-rot acc   z-rot acc
    22626  1.49486E-06 6.64845E-06 1.18370E-05-4.91764E-06 4.37426E-05 7.19312E-05-1.11851E-04 1.93996E-04 3.35903E-04



 n o d a l   p r i n t   o u t   f o r   t i m e  s t e p    1201                              ( at time 5.9993996E-01 )

 nodal point  x-disp     y-disp      z-disp      x-vel       y-vel       z-vel      x-accl      y-accl      z-accl      x-coor      y-coor      z-coor
    22626  5.29608E-05-8.13739E-03-1.86888E+00-5.69121E-04-2.61279E-02-3.11084E+00-1.45827E-02-2.28138E-02 6.43795E-05 4.79642E+01-2.20379E+01 5.46962E+00



 n o d a l   p r i n t   o u t   f o r   t i m e  s t e p    1201                              ( at time 5.9993996E-01 )

 nodal point  x-rot      y-rot       z-rot       x-rot vel   y-rot vel   z-rot vel   x-rot acc   y-rot acc   z-rot acc
    22626  1.26475E-06 9.87486E-06 1.77365E-05-2.14348E-06 2.63308E-05 5.29665E-05 2.77443E-05-1.74136E-04-1.89666E-04



 n o d a l   p r i n t   o u t   f o r   t i m e  s t e p    1401                              ( at time 6.9992995E-01 )

 nodal point  x-disp     y-disp      z-disp      x-vel       y-vel       z-vel      x-accl      y-accl      z-accl      x-coor      y-coor      z-coor
    22626  1.97091E-05-1.10207E-02-2.17976E+00 7.18754E-04-3.22355E-02-3.10769E+00 1.28800E-02-6.10822E-02 3.14863E-02 4.79642E+01-2.20408E+01 5.15874E+00



 n o d a l   p r i n t   o u t   f o r   t i m e  s t e p    1401                              ( at time 6.9992995E-01 )

 nodal point  x-rot      y-rot       z-rot       x-rot vel   y-rot vel   z-rot vel   x-rot acc   y-rot acc   z-rot acc
    22626  1.10132E-06 1.30694E-05 2.27048E-05-2.41305E-06 3.79158E-05 5.94499E-05-2.69589E-06 1.15862E-04 6.48401E-05



 n o d a l   p r i n t   o u t   f o r   t i m e  s t e p    1601                              ( at time 7.9991994E-01 )

 nodal point  x-disp     y-disp      z-disp      x-vel       y-vel       z-vel      x-accl      y-accl      z-accl      x-coor      y-coor      z-coor
    22626  1.33046E-04-1.45710E-02-2.49038E+00 1.36882E-03-3.68153E-02-3.10600E+00 6.50131E-03-4.58019E-02 1.69056E-02 4.79643E+01-2.20444E+01 4.84812E+00



 n o d a l   p r i n t   o u t   f o r   t i m e  s t e p    1601                              ( at time 7.9991994E-01 )

 nodal point  x-rot      y-rot       z-rot       x-rot vel   y-rot vel   z-rot vel   x-rot acc   y-rot acc   z-rot acc
    22626  1.00729E-06 1.72062E-05 2.96654E-05 3.00526E-06 4.87824E-05 7.63513E-05 5.41885E-05 1.08677E-04 1.69031E-04



 n o d a l   p r i n t   o u t   f o r   t i m e  s t e p    1801                              ( at time 8.9990994E-01 )

 nodal point  x-disp     y-disp      z-disp      x-vel       y-vel       z-vel      x-accl      y-accl      z-accl      x-coor      y-coor      z-coor
    22626  2.07377E-04-1.82141E-02-2.80104E+00-5.12630E-04-3.64321E-02-3.10742E+00-1.88164E-02 3.83207E-03-1.42088E-02 4.79644E+01-2.20480E+01 4.53746E+00



 n o d a l   p r i n t   o u t   f o r   t i m e  s t e p    1801                              ( at time 8.9990994E-01 )

 nodal point  x-rot      y-rot       z-rot       x-rot vel   y-rot vel   z-rot vel   x-rot acc   y-rot acc   z-rot acc
    22626  1.02387E-06 2.13201E-05 3.66565E-05-1.83262E-06 3.79406E-05 6.82843E-05-4.83836E-05-1.08429E-04-8.06782E-05



 n o d a l   p r i n t   o u t   f o r   t i m e  s t e p    2001                              ( at time 9.9989993E-01 )

 nodal point  x-disp     y-disp      z-disp      x-vel       y-vel       z-vel      x-accl      y-accl      z-accl      x-coor      y-coor      z-coor
    22626  1.09748E-04-2.19275E-02-3.11175E+00-8.17325E-04-3.83995E-02-3.10755E+00-3.04725E-03-1.96758E-02-1.24705E-03 4.79643E+01-2.20517E+01 4.22675E+00



 n o d a l   p r i n t   o u t   f o r   t i m e  s t e p    2001                              ( at time 9.9989993E-01 )

 nodal point  x-rot      y-rot       z-rot       x-rot vel   y-rot vel   z-rot vel   x-rot acc   y-rot acc   z-rot acc
    22626  8.55818E-07 2.55329E-05 4.38497E-05-9.41887E-07 4.62263E-05 8.59429E-05 8.90817E-06 8.28653E-05 1.76604E-04



 n o d a l   p r i n t   o u t   f o r   t i m e  s t e p    2201                              ( at time 1.0998899E+00 )

 nodal point  x-disp     y-disp      z-disp      x-vel       y-vel       z-vel      x-accl      y-accl      z-accl      x-coor      y-coor      z-coor
    22626  9.18885E-05-2.58760E-02-3.42246E+00-2.19262E-04-4.02537E-02-3.10712E+00 5.98123E-03-1.85435E-02 4.27051E-03 4.79643E+01-2.20557E+01 3.91605E+00



 n o d a l   p r i n t   o u t   f o r   t i m e  s t e p    2201                              ( at time 1.0998899E+00 )

 nodal point  x-rot      y-rot       z-rot       x-rot vel   y-rot vel   z-rot vel   x-rot acc   y-rot acc   z-rot acc
    22626  9.32808E-07 3.03121E-05 5.24790E-05 5.28609E-06 4.64200E-05 7.49896E-05 6.22861E-05 1.93665E-06-1.09544E-04



 n o d a l   p r i n t   o u t   f o r   t i m e  s t e p    2401                              ( at time 1.1998799E+00 )

 nodal point  x-disp     y-disp      z-disp      x-vel       y-vel       z-vel      x-accl      y-accl      z-accl      x-coor      y-coor      z-coor
    22626  1.34271E-04-2.98901E-02-3.73320E+00 7.33882E-04-3.97988E-02-3.10850E+00 9.53239E-03 4.54929E-03-1.37796E-02 4.79643E+01-2.20597E+01 3.60531E+00



 n o d a l   p r i n t   o u t   f o r   t i m e  s t e p    2401                              ( at time 1.1998799E+00 )

 nodal point  x-rot      y-rot       z-rot       x-rot vel   y-rot vel   z-rot vel   x-rot acc   y-rot acc   z-rot acc
    22626  1.33577E-06 3.44643E-05 5.93272E-05 5.04583E-06 3.99478E-05 6.56004E-05-2.40283E-06-6.47287E-05-9.39018E-05



 n o d a l   p r i n t   o u t   f o r   t i m e  s t e p    2601                              ( at time 1.2998699E+00 )

 nodal point  x-disp     y-disp      z-disp      x-vel       y-vel       z-vel      x-accl      y-accl      z-accl      x-coor      y-coor      z-coor
    22626  1.46132E-04-3.37303E-02-4.04413E+00-4.22508E-04-3.65934E-02-3.11133E+00-1.15650E-02 3.20568E-02-2.82936E-02 4.79643E+01-2.20635E+01 3.29437E+00



 n o d a l   p r i n t   o u t   f o r   t i m e  s t e p    2601                              ( at time 1.2998699E+00 )

 nodal point  x-rot      y-rot       z-rot       x-rot vel   y-rot vel   z-rot vel   x-rot acc   y-rot acc   z-rot acc
    22626  1.63797E-06 3.85443E-05 6.61320E-05-2.51831E-06 4.54978E-05 7.99289E-05-7.56490E-05 5.55059E-05 1.43299E-04



 n o d a l   p r i n t   o u t   f o r   t i m e  s t e p    2801                              ( at time 1.3998599E+00 )

 nodal point  x-disp     y-disp      z-disp      x-vel       y-vel       z-vel      x-accl      y-accl      z-accl      x-coor      y-coor      z-coor
    22626  3.21557E-05-3.71241E-02-4.35543E+00-1.31034E-03-3.14322E-02-3.11511E+00-8.87917E-03 5.16174E-02-3.77979E-02 4.79642E+01-2.20669E+01 2.98307E+00



 n o d a l   p r i n t   o u t   f o r   t i m e  s t e p    2801                              ( at time 1.3998599E+00 )

 nodal point  x-rot      y-rot       z-rot       x-rot vel   y-rot vel   z-rot vel   x-rot acc   y-rot acc   z-rot acc
    22626  1.20426E-06 4.29490E-05 7.39881E-05-4.52292E-06 4.45271E-05 7.34737E-05-2.00480E-05-9.70786E-06-6.45577E-05



 n o d a l   p r i n t   o u t   f o r   t i m e  s t e p    3001                              ( at time 1.4998499E+00 )

 nodal point  x-disp     y-disp      z-disp      x-vel       y-vel       z-vel      x-accl      y-accl      z-accl      x-coor      y-coor      z-coor
    22626 -7.75751E-05-4.01687E-02-4.66702E+00-5.00989E-04-2.97689E-02-3.11713E+00 8.09427E-03 1.66345E-02-2.02509E-02 4.79641E+01-2.20700E+01 2.67148E+00



 n o d a l   p r i n t   o u t   f o r   t i m e  s t e p    3001                              ( at time 1.4998499E+00 )

 nodal point  x-rot      y-rot       z-rot       x-rot vel   y-rot vel   z-rot vel   x-rot acc   y-rot acc   z-rot acc
    22626  8.26248E-07 4.68517E-05 8.05197E-05-1.60683E-06 3.18960E-05 5.70200E-05 2.91638E-05-1.26324E-04-1.64554E-04



 n o d a l   p r i n t   o u t   f o r   t i m e  s t e p    3201                              ( at time 1.5998399E+00 )

 nodal point  x-disp     y-disp      z-disp      x-vel       y-vel       z-vel      x-accl      y-accl      z-accl      x-coor      y-coor      z-coor
    22626 -1.24348E-04-4.30592E-02-4.97879E+00-6.96981E-04-2.75090E-02-3.11940E+00-1.96011E-03 2.26014E-02-2.26687E-02 4.79641E+01-2.20728E+01 2.35971E+00



 n o d a l   p r i n t   o u t   f o r   t i m e  s t e p    3201                              ( at time 1.5998399E+00 )

 nodal point  x-rot      y-rot       z-rot       x-rot vel   y-rot vel   z-rot vel   x-rot acc   y-rot acc   z-rot acc
    22626  5.14525E-07 4.99117E-05 8.53934E-05-1.51006E-06 3.26310E-05 4.80883E-05 9.67781E-07 7.35025E-06-8.93259E-05



 n o d a l   p r i n t   o u t   f o r   t i m e  s t e p    3401                              ( at time 1.6998299E+00 )

 nodal point  x-disp     y-disp      z-disp      x-vel       y-vel       z-vel      x-accl      y-accl      z-accl      x-coor      y-coor      z-coor
    22626 -2.10922E-04-4.55735E-02-5.29089E+00-1.12910E-03-2.24393E-02-3.12325E+00-4.32159E-03 5.07020E-02-3.85228E-02 4.79640E+01-2.20754E+01 2.04762E+00



 n o d a l   p r i n t   o u t   f o r   t i m e  s t e p    3401                              ( at time 1.6998299E+00 )

 nodal point  x-rot      y-rot       z-rot       x-rot vel   y-rot vel   z-rot vel   x-rot acc   y-rot acc   z-rot acc
    22626  3.00575E-07 5.29942E-05 9.04289E-05-3.73735E-06 2.97924E-05 4.76510E-05-2.22751E-05-2.83884E-05-4.37351E-06



 n o d a l   p r i n t   o u t   f o r   t i m e  s t e p    3601                              ( at time 1.7998199E+00 )

 nodal point  x-disp     y-disp      z-disp      x-vel       y-vel       z-vel      x-accl      y-accl      z-accl      x-coor      y-coor      z-coor
    22626 -3.12454E-04-4.75643E-02-5.60339E+00-1.32951E-03-1.77186E-02-3.12732E+00-2.00436E-03 4.72111E-02-4.06640E-02 4.79639E+01-2.20774E+01 1.73511E+00



 n o d a l   p r i n t   o u t   f o r   t i m e  s t e p    3601                              ( at time 1.7998199E+00 )

 nodal point  x-rot      y-rot       z-rot       x-rot vel   y-rot vel   z-rot vel   x-rot acc   y-rot acc   z-rot acc
    22626  1.54151E-07 5.57834E-05 9.51886E-05-4.10783E-07 2.14807E-05 4.21632E-05 3.32690E-05-8.31251E-05-5.48834E-05



 n o d a l   p r i n t   o u t   f o r   t i m e  s t e p    3801                              ( at time 1.8998099E+00 )

 nodal point  x-disp     y-disp      z-disp      x-vel       y-vel       z-vel      x-accl      y-accl      z-accl      x-coor      y-coor      z-coor
    22626 -5.00009E-04-4.92019E-02-5.91621E+00-2.16110E-03-1.51669E-02-3.12982E+00-8.31672E-03 2.55198E-02-2.50341E-02 4.79637E+01-2.20790E+01 1.42229E+00



 n o d a l   p r i n t   o u t   f o r   t i m e  s t e p    3801                              ( at time 1.8998099E+00 )

 nodal point  x-rot      y-rot       z-rot       x-rot vel   y-rot vel   z-rot vel   x-rot acc   y-rot acc   z-rot acc
    22626 -9.01663E-08 5.76810E-05 9.86032E-05 1.60596E-06 1.54966E-05 2.74655E-05 2.01695E-05-5.98471E-05-1.46992E-04



 n o d a l   p r i n t   o u t   f o r   t i m e  s t e p    4001                              ( at time 1.9997999E+00 )

 nodal point  x-disp     y-disp      z-disp      x-vel       y-vel       z-vel      x-accl      y-accl      z-accl      x-coor      y-coor      z-coor
    22626 -6.73309E-04-5.05922E-02-6.22929E+00-1.65164E-03-1.28107E-02-3.13210E+00 5.09516E-03 2.35646E-02-2.28166E-02 4.79635E+01-2.20804E+01 1.10921E+00



 n o d a l   p r i n t   o u t   f o r   t i m e  s t e p    4001                              ( at time 1.9997999E+00 )

 nodal point  x-rot      y-rot       z-rot       x-rot vel   y-rot vel   z-rot vel   x-rot acc   y-rot acc   z-rot acc
    22626  1.16318E-07 5.90179E-05 1.00916E-04 3.36148E-06 1.32018E-05 2.01381E-05 1.75570E-05-2.29503E-05-7.32817E-05



 n o d a l   p r i n t   o u t   f o r   t i m e  s t e p    4201                              ( at time 2.0997899E+00 )

 nodal point  x-disp     y-disp      z-disp      x-vel       y-vel       z-vel      x-accl      y-accl      z-accl      x-coor      y-coor      z-coor
    22626 -8.42432E-04-5.16834E-02-6.54262E+00-1.85849E-03-9.15343E-03-3.13518E+00-2.06875E-03 3.65763E-02-3.07996E-02 4.79633E+01-2.20815E+01 7.95877E-01



 n o d a l   p r i n t   o u t   f o r   t i m e  s t e p    4201                              ( at time 2.0997899E+00 )

 nodal point  x-rot      y-rot       z-rot       x-rot vel   y-rot vel   z-rot vel   x-rot acc   y-rot acc   z-rot acc
    22626  4.01896E-07 5.96620E-05 1.02007E-04-1.39480E-06 3.42515E-06 1.67102E-06-4.75676E-05-9.77765E-05-1.84689E-04



 n o d a l   p r i n t   o u t   f o r   t i m e  s t e p    4401                              ( at time 2.1997798E+00 )

 nodal point  x-disp     y-disp      z-disp      x-vel       y-vel       z-vel      x-accl      y-accl      z-accl      x-coor      y-coor      z-coor
    22626 -1.08450E-03-5.23699E-02-6.85629E+00-2.77524E-03-4.41237E-03-3.13894E+00-9.16838E-03 4.74154E-02-3.76358E-02 4.79631E+01-2.20822E+01 4.82212E-01



 n o d a l   p r i n t   o u t   f o r   t i m e  s t e p    4401                              ( at time 2.1997798E+00 )

 nodal point  x-rot      y-rot       z-rot       x-rot vel   y-rot vel   z-rot vel   x-rot acc   y-rot acc   z-rot acc
    22626  2.25228E-07 5.96548E-05 1.01938E-04-1.26335E-06-2.20108E-06-3.05483E-06 1.31468E-06-5.62680E-05-4.72632E-05



 n o d a l   p r i n t   o u t   f o r   t i m e  s t e p    4601                              ( at time 2.2997698E+00 )

 nodal point  x-disp     y-disp      z-disp      x-vel       y-vel       z-vel      x-accl      y-accl      z-accl      x-coor      y-coor      z-coor
    22626 -1.39323E-03-5.25652E-02-7.17034E+00-3.51711E-03-9.02974E-05-3.14227E+00-7.41949E-03 4.32249E-02-3.33080E-02 4.79628E+01-2.20824E+01 1.68163E-01



 n o d a l   p r i n t   o u t   f o r   t i m e  s t e p    4601                              ( at time 2.2997698E+00 )

 nodal point  x-rot      y-rot       z-rot       x-rot vel   y-rot vel   z-rot vel   x-rot acc   y-rot acc   z-rot acc
    22626 -1.64837E-07 5.93420E-05 1.01568E-04-4.55090E-06-9.79808E-06-1.30038E-05-3.28788E-05-7.59775E-05-9.94998E-05



 n o d a l   p r i n t   o u t   f o r   t i m e  s t e p    4801                              ( at time 2.3997598E+00 )

 nodal point  x-disp     y-disp      z-disp      x-vel       y-vel       z-vel      x-accl      y-accl      z-accl      x-coor      y-coor      z-coor
    22626 -1.76192E-03-5.24782E-02-7.48464E+00-3.60515E-03 1.87021E-03-3.14440E+00-8.80505E-04 1.96070E-02-2.12905E-02 4.79624E+01-2.20823E+01-1.46135E-01



 n o d a l   p r i n t   o u t   f o r   t i m e  s t e p    4801                              ( at time 2.3997598E+00 )

 nodal point  x-rot      y-rot       z-rot       x-rot vel   y-rot vel   z-rot vel   x-rot acc   y-rot acc   z-rot acc
    22626 -7.09944E-07 5.80777E-05 9.90831E-05-5.94086E-06-1.61991E-05-3.37241E-05-1.39010E-05-6.40166E-05-2.07224E-04



 n o d a l   p r i n t   o u t   f o r   t i m e  s t e p    5001                              ( at time 2.4997498E+00 )

 nodal point  x-disp     y-disp      z-disp      x-vel       y-vel       z-vel      x-accl      y-accl      z-accl      x-coor      y-coor      z-coor
    22626 -2.15526E-03-5.21709E-02-7.79916E+00-4.23806E-03 4.96133E-03-3.14711E+00-6.32971E-03 3.09143E-02-2.70370E-02 4.79620E+01-2.20820E+01-4.60662E-01



 n o d a l   p r i n t   o u t   f o r   t i m e  s t e p    5001                              ( at time 2.4997498E+00 )

 nodal point  x-rot      y-rot       z-rot       x-rot vel   y-rot vel   z-rot vel   x-rot acc   y-rot acc   z-rot acc
    22626 -1.15715E-06 5.58438E-05 9.51157E-05-3.99397E-06-2.63789E-05-4.86469E-05 1.94709E-05-1.01808E-04-1.49243E-04



 n o d a l   p r i n t   o u t   f o r   t i m e  s t e p    5201                              ( at time 2.5997398E+00 )

 nodal point  x-disp     y-disp      z-disp      x-vel       y-vel       z-vel      x-accl      y-accl      z-accl      x-coor      y-coor      z-coor
    22626 -2.62955E-03-5.14567E-02-8.11403E+00-5.25825E-03 9.27037E-03-3.15070E+00-1.02029E-02 4.30948E-02-3.59476E-02 4.79616E+01-2.20812E+01-7.75527E-01



 n o d a l   p r i n t   o u t   f o r   t i m e  s t e p    5201                              ( at time 2.5997398E+00 )

 nodal point  x-rot      y-rot       z-rot       x-rot vel   y-rot vel   z-rot vel   x-rot acc   y-rot acc   z-rot acc
    22626 -1.52676E-06 5.27386E-05 8.96746E-05-4.76202E-06-3.57959E-05-6.22617E-05-7.68135E-06-9.41794E-05-1.36162E-04



 n o d a l   p r i n t   o u t   f o r   t i m e  s t e p    5401                              ( at time 2.6997298E+00 )

 nodal point  x-disp     y-disp      z-disp      x-vel       y-vel       z-vel      x-accl      y-accl      z-accl      x-coor      y-coor      z-coor
    22626 -3.19963E-03-5.03219E-02-8.42925E+00-6.42164E-03 1.29815E-02-3.15422E+00-1.16351E-02 3.71150E-02-3.51488E-02 4.79610E+01-2.20801E+01-1.09075E+00



 n o d a l   p r i n t   o u t   f o r   t i m e  s t e p    5401                              ( at time 2.6997298E+00 )

 nodal point  x-rot      y-rot       z-rot       x-rot vel   y-rot vel   z-rot vel   x-rot acc   y-rot acc   z-rot acc
    22626 -1.82069E-06 4.89846E-05 8.31678E-05-1.83311E-06-4.13581E-05-6.68083E-05 2.92920E-05-5.56281E-05-4.54698E-05



 n o d a l   p r i n t   o u t   f o r   t i m e  s t e p    5601                              ( at time 2.7997198E+00 )

 nodal point  x-disp     y-disp      z-disp      x-vel       y-vel       z-vel      x-accl      y-accl      z-accl      x-coor      y-coor      z-coor
    22626 -3.91367E-03-4.88977E-02-8.74475E+00-7.68584E-03 1.51458E-02-3.15636E+00-1.26433E-02 2.16449E-02-2.13955E-02 4.79603E+01-2.20787E+01-1.40625E+00



 n o d a l   p r i n t   o u t   f o r   t i m e  s t e p    5601                              ( at time 2.7997198E+00 )

 nodal point  x-rot      y-rot       z-rot       x-rot vel   y-rot vel   z-rot vel   x-rot acc   y-rot acc   z-rot acc
    22626 -1.95082E-06 4.40890E-05 7.50601E-05 4.11111E-07-5.74676E-05-9.86267E-05 2.24445E-05-1.61111E-04-3.18217E-04



 n o d a l   p r i n t   o u t   f o r   t i m e  s t e p    5801                              ( at time 2.8997098E+00 )

 nodal point  x-disp     y-disp      z-disp      x-vel       y-vel       z-vel      x-accl      y-accl      z-accl      x-coor      y-coor      z-coor
    22626 -4.68548E-03-4.73291E-02-9.06045E+00-7.81707E-03 1.61440E-02-3.15804E+00-1.31236E-03 9.98345E-03-1.68341E-02 4.79595E+01-2.20771E+01-1.72195E+00



 n o d a l   p r i n t   o u t   f o r   t i m e  s t e p    5801                              ( at time 2.8997098E+00 )

 nodal point  x-rot      y-rot       z-rot       x-rot vel   y-rot vel   z-rot vel   x-rot acc   y-rot acc   z-rot acc
    22626 -1.74839E-06 3.76498E-05 6.41524E-05 2.35957E-06-6.65461E-05-1.15341E-04 1.94866E-05-9.07937E-05-1.67155E-04



 n o d a l   p r i n t   o u t   f o r   t i m e  s t e p    6001                              ( at time 2.9996998E+00 )

 nodal point  x-disp     y-disp      z-disp      x-vel       y-vel       z-vel      x-accl      y-accl      z-accl      x-coor      y-coor      z-coor
    22626 -5.50621E-03-4.55975E-02-9.37632E+00-8.82893E-03 1.86356E-02-3.16042E+00-1.01197E-02 2.49180E-02-2.37751E-02 4.79587E+01-2.20754E+01-2.03782E+00



 n o d a l   p r i n t   o u t   f o r   t i m e  s t e p    6001                              ( at time 2.9996998E+00 )

 nodal point  x-rot      y-rot       z-rot       x-rot vel   y-rot vel   z-rot vel   x-rot acc   y-rot acc   z-rot acc
    22626 -1.51387E-06 3.07850E-05 5.25868E-05 6.17480E-07-7.07887E-05-1.20933E-04-1.74226E-05-4.24306E-05-5.59270E-05



 n o d a l   p r i n t   o u t   f o r   t i m e  s t e p    6201                              ( at time 3.0996898E+00 )

 nodal point  x-disp     y-disp      z-disp      x-vel       y-vel       z-vel      x-accl      y-accl      z-accl      x-coor      y-coor      z-coor
    22626 -6.47152E-03-4.36162E-02-9.69245E+00-1.04167E-02 2.05577E-02-3.16241E+00-1.58794E-02 1.92234E-02-1.99267E-02 4.79577E+01-2.20734E+01-2.35395E+00



 n o d a l   p r i n t   o u t   f o r   t i m e  s t e p    6201                              ( at time 3.0996898E+00 )

 nodal point  x-rot      y-rot       z-rot       x-rot vel   y-rot vel   z-rot vel   x-rot acc   y-rot acc   z-rot acc
    22626 -1.55799E-06 2.34267E-05 3.99594E-05-1.92575E-06-7.58003E-05-1.33431E-04-2.54349E-05-5.01211E-05-1.24992E-04



 n o d a l   p r i n t   o u t   f o r   t i m e  s t e p    6401                              ( at time 3.1996798E+00 )

 nodal point  x-disp     y-disp      z-disp      x-vel       y-vel       z-vel      x-accl      y-accl      z-accl      x-coor      y-coor      z-coor
    22626 -7.54266E-03-4.15856E-02-1.00087E+01-1.09302E-02 1.97555E-02-3.16297E+00-5.13507E-03-8.02287E-03-5.65108E-03 4.79566E+01-2.20714E+01-2.67020E+00



 n o d a l   p r i n t   o u t   f o r   t i m e  s t e p    6401                              ( at time 3.1996798E+00 )

 nodal point  x-rot      y-rot       z-rot       x-rot vel   y-rot vel   z-rot vel   x-rot acc   y-rot acc   z-rot acc
    22626 -1.69006E-06 1.53564E-05 2.63640E-05-1.56704E-06-8.51985E-05-1.43715E-04 3.58751E-06-9.39905E-05-1.02854E-04



 n o d a l   p r i n t   o u t   f o r   t i m e  s t e p    6601                              ( at time 3.2996698E+00 )

 nodal point  x-disp     y-disp      z-disp      x-vel       y-vel       z-vel      x-accl      y-accl      z-accl      x-coor      y-coor      z-coor
    22626 -8.64861E-03-3.97061E-02-1.03250E+01-1.11985E-02 1.78339E-02-3.16270E+00-2.68392E-03-1.92176E-02 2.70871E-03 4.79555E+01-2.20695E+01-2.98645E+00



 n o d a l   p r i n t   o u t   f o r   t i m e  s t e p    6601                              ( at time 3.2996698E+00 )

 nodal point  x-rot      y-rot       z-rot       x-rot vel   y-rot vel   z-rot vel   x-rot acc   y-rot acc   z-rot acc
    22626 -1.95559E-06 6.65947E-06 1.16020E-05-2.42170E-06-8.94551E-05-1.51675E-04-8.54751E-06-4.25711E-05-7.96048E-05



 n o d a l   p r i n t   o u t   f o r   t i m e  s t e p    6801                              ( at time 3.3996598E+00 )

 nodal point  x-disp     y-disp      z-disp      x-vel       y-vel       z-vel      x-accl      y-accl      z-accl      x-coor      y-coor      z-coor
    22626 -9.79927E-03-3.80147E-02-1.06412E+01-1.17026E-02 1.60346E-02-3.16263E+00-5.04099E-03-1.79951E-02 7.63015E-04 4.79544E+01-2.20678E+01-3.30269E+00



 n o d a l   p r i n t   o u t   f o r   t i m e  s t e p    6801                              ( at time 3.3996598E+00 )

 nodal point  x-rot      y-rot       z-rot       x-rot vel   y-rot vel   z-rot vel   x-rot acc   y-rot acc   z-rot acc
    22626 -2.00456E-06-2.22930E-06-3.69207E-06-2.55785E-06-8.81369E-05-1.53188E-04-1.36160E-06 1.31842E-05-1.51401E-05



 n o d a l   p r i n t   o u t   f o r   t i m e  s t e p    7001                              ( at time 3.4996498E+00 )

 nodal point  x-disp     y-disp      z-disp      x-vel       y-vel       z-vel      x-accl      y-accl      z-accl      x-coor      y-coor      z-coor
    22626 -1.09968E-02-3.64852E-02-1.09574E+01-1.23223E-02 1.44927E-02-3.16281E+00-6.19738E-03-1.54209E-02-1.87893E-03 4.79532E+01-2.20663E+01-3.61893E+00



 n o d a l   p r i n t   o u t   f o r   t i m e  s t e p    7001                              ( at time 3.4996498E+00 )

 nodal point  x-rot      y-rot       z-rot       x-rot vel   y-rot vel   z-rot vel   x-rot acc   y-rot acc   z-rot acc
    22626 -1.99661E-06-1.08887E-05-1.85218E-05 6.21359E-07-8.69886E-05-1.47213E-04 3.17953E-05 1.14842E-05 5.97635E-05



 n o d a l   p r i n t   o u t   f o r   t i m e  s t e p    7201                              ( at time 3.5996397E+00 )

 nodal point  x-disp     y-disp      z-disp      x-vel       y-vel       z-vel      x-accl      y-accl      z-accl      x-coor      y-coor      z-coor
    22626 -1.22515E-02-3.51422E-02-1.12737E+01-1.24128E-02 1.20938E-02-3.16261E+00-9.05682E-04-2.39914E-02 2.06491E-03 4.79519E+01-2.20649E+01-3.93518E+00



 n o d a l   p r i n t   o u t   f o r   t i m e  s t e p    7201                              ( at time 3.5996397E+00 )

 nodal point  x-rot      y-rot       z-rot       x-rot vel   y-rot vel   z-rot vel   x-rot acc   y-rot acc   z-rot acc
    22626 -2.00651E-06-1.95165E-05-3.30057E-05 2.18390E-06-8.48430E-05-1.38875E-04 1.56270E-05 2.14574E-05 8.33833E-05



 n o d a l   p r i n t   o u t   f o r   t i m e  s t e p    7401                              ( at time 3.6996297E+00 )

 nodal point  x-disp     y-disp      z-disp      x-vel       y-vel       z-vel      x-accl      y-accl      z-accl      x-coor      y-coor      z-coor
    22626 -1.34815E-02-3.40985E-02-1.15899E+01-1.21434E-02 8.70105E-03-3.16159E+00 2.69427E-03-3.39308E-02 1.01266E-02 4.79507E+01-2.20639E+01-4.25135E+00



 n o d a l   p r i n t   o u t   f o r   t i m e  s t e p    7401                              ( at time 3.6996297E+00 )

 nodal point  x-rot      y-rot       z-rot       x-rot vel   y-rot vel   z-rot vel   x-rot acc   y-rot acc   z-rot acc
    22626 -1.75139E-06-2.78010E-05-4.67984E-05 3.69986E-06-8.14114E-05-1.36569E-04 1.51610E-05 3.43197E-05 2.30621E-05



 n o d a l   p r i n t   o u t   f o r   t i m e  s t e p    7601                              ( at time 3.7996197E+00 )

 nodal point  x-disp     y-disp      z-disp      x-vel       y-vel       z-vel      x-accl      y-accl      z-accl      x-coor      y-coor      z-coor
    22626 -1.46664E-02-3.33660E-02-1.19059E+01-1.15816E-02 6.01060E-03-3.16088E+00 5.61832E-03-2.69072E-02 7.11751E-03 4.79495E+01-2.20632E+01-4.56744E+00



 n o d a l   p r i n t   o u t   f o r   t i m e  s t e p    7601                              ( at time 3.7996197E+00 )

 nodal point  x-rot      y-rot       z-rot       x-rot vel   y-rot vel   z-rot vel   x-rot acc   y-rot acc   z-rot acc
    22626 -1.28549E-06-3.56155E-05-6.00663E-05 5.22965E-06-7.23740E-05-1.22091E-04 1.52994E-05 9.03833E-05 1.44795E-04



 n o d a l   p r i n t   o u t   f o r   t i m e  s t e p    7801                              ( at time 3.8996097E+00 )

 nodal point  x-disp     y-disp      z-disp      x-vel       y-vel       z-vel      x-accl      y-accl      z-accl      x-coor      y-coor      z-coor
    22626 -1.57937E-02-3.28647E-02-1.22220E+01-1.09431E-02 4.22008E-03-3.16081E+00 6.38599E-03-1.79070E-02 7.70168E-04 4.79484E+01-2.20627E+01-4.88349E+00



 n o d a l   p r i n t   o u t   f o r   t i m e  s t e p    7801                              ( at time 3.8996097E+00 )

 nodal point  x-rot      y-rot       z-rot       x-rot vel   y-rot vel   z-rot vel   x-rot acc   y-rot acc   z-rot acc
    22626 -9.26508E-07-4.22168E-05-7.11865E-05 6.16958E-07-5.77199E-05-9.62560E-05-4.61315E-05 1.46555E-04 2.58377E-04



 n o d a l   p r i n t   o u t   f o r   t i m e  s t e p    8001                              ( at time 3.9995997E+00 )

 nodal point  x-disp     y-disp      z-disp      x-vel       y-vel       z-vel      x-accl      y-accl      z-accl      x-coor      y-coor      z-coor
    22626 -1.68613E-02-3.24944E-02-1.25381E+01-1.03897E-02 3.13795E-03-3.16114E+00 5.53458E-03-1.08224E-02-3.35727E-03 4.79473E+01-2.20623E+01-5.19956E+00



 n o d a l   p r i n t   o u t   f o r   t i m e  s t e p    8001                              ( at time 3.9995997E+00 )

 nodal point  x-rot      y-rot       z-rot       x-rot vel   y-rot vel   z-rot vel   x-rot acc   y-rot acc   z-rot acc
    22626 -7.96721E-07-4.74635E-05-7.98691E-05-2.67574E-07-4.69054E-05-7.99168E-05-8.84621E-06 1.08156E-04 1.63408E-04



 n o d a l   p r i n t   o u t   f o r   t i m e  s t e p    8201                              ( at time 4.0995897E+00 )

 nodal point  x-disp     y-disp      z-disp      x-vel       y-vel       z-vel      x-accl      y-accl      z-accl      x-coor      y-coor      z-coor
    22626 -1.78177E-02-3.22951E-02-1.28541E+01-8.59683E-03 6.35121E-04-3.16064E+00 1.79304E-02-2.50307E-02 5.03828E-03 4.79464E+01-2.20621E+01-5.51562E+00



 n o d a l   p r i n t   o u t   f o r   t i m e  s t e p    8201                              ( at time 4.0995897E+00 )

 nodal point  x-rot      y-rot       z-rot       x-rot vel   y-rot vel   z-rot vel   x-rot acc   y-rot acc   z-rot acc
    22626 -8.06751E-07-5.15911E-05-8.68416E-05-1.65017E-07-3.19867E-05-5.64181E-05 1.02566E-06 1.49201E-04 2.35011E-04



 n o d a l   p r i n t   o u t   f o r   t i m e  s t e p    8401                              ( at time 4.1995797E+00 )

 nodal point  x-disp     y-disp      z-disp      x-vel       y-vel       z-vel      x-accl      y-accl      z-accl      x-coor      y-coor      z-coor
    22626 -1.85988E-02-3.23572E-02-1.31701E+01-6.97433E-03-1.78962E-03-3.16004E+00 1.62267E-02-2.42498E-02 5.96107E-03 4.79456E+01-2.20621E+01-5.83162E+00



 n o d a l   p r i n t   o u t   f o r   t i m e  s t e p    8401                              ( at time 4.1995797E+00 )

 nodal point  x-rot      y-rot       z-rot       x-rot vel   y-rot vel   z-rot vel   x-rot acc   y-rot acc   z-rot acc
    22626 -7.92861E-07-5.39681E-05-9.07960E-05-2.39378E-07-1.40573E-05-2.27876E-05-7.43687E-07 1.79312E-04 3.36339E-04



 n o d a l   p r i n t   o u t   f o r   t i m e  s t e p    8601                              ( at time 4.2995697E+00 )

 nodal point  x-disp     y-disp      z-disp      x-vel       y-vel       z-vel      x-accl      y-accl      z-accl      x-coor      y-coor      z-coor
    22626 -1.92322E-02-3.26559E-02-1.34861E+01-5.56032E-03-3.87927E-03-3.15987E+00 1.41415E-02-2.08987E-02 1.67148E-03 4.79449E+01-2.20624E+01-6.14758E+00



 n o d a l   p r i n t   o u t   f o r   t i m e  s t e p    8601                              ( at time 4.2995697E+00 )

 nodal point  x-rot      y-rot       z-rot       x-rot vel   y-rot vel   z-rot vel   x-rot acc   y-rot acc   z-rot acc
    22626 -8.18318E-07-5.44056E-05-9.16487E-05-5.22791E-07 2.80026E-06 4.68653E-06-2.83441E-06 1.68592E-04 2.74769E-04



 n o d a l   p r i n t   o u t   f o r   t i m e  s t e p    8801                              ( at time 4.3995597E+00 )

 nodal point  x-disp     y-disp      z-disp      x-vel       y-vel       z-vel      x-accl      y-accl      z-accl      x-coor      y-coor      z-coor
    22626 -1.96983E-02-3.30846E-02-1.38021E+01-3.79688E-03-4.73650E-03-3.16048E+00 1.76363E-02-8.57319E-03-6.04214E-03 4.79445E+01-2.20629E+01-6.46356E+00



 n o d a l   p r i n t   o u t   f o r   t i m e  s t e p    8801                              ( at time 4.3995597E+00 )

 nodal point  x-rot      y-rot       z-rot       x-rot vel   y-rot vel   z-rot vel   x-rot acc   y-rot acc   z-rot acc
    22626 -7.94222E-07-5.31265E-05-8.93274E-05 8.32491E-07 2.24014E-05 4.02520E-05 1.35542E-05 1.96031E-04 3.55691E-04



 n o d a l   p r i n t   o u t   f o r   t i m e  s t e p    9001                              ( at time 4.4995497E+00 )

 nodal point  x-disp     y-disp      z-disp      x-vel       y-vel       z-vel      x-accl      y-accl      z-accl      x-coor      y-coor      z-coor
    22626 -1.99958E-02-3.36539E-02-1.41181E+01-2.05643E-03-6.99241E-03-3.16009E+00 1.74061E-02-2.25612E-02 3.86037E-03 4.79442E+01-2.20634E+01-6.77956E+00



 n o d a l   p r i n t   o u t   f o r   t i m e  s t e p    9001                              ( at time 4.4995497E+00 )

 nodal point  x-rot      y-rot       z-rot       x-rot vel   y-rot vel   z-rot vel   x-rot acc   y-rot acc   z-rot acc
    22626 -6.56878E-07-4.96636E-05-8.32223E-05 3.45923E-06 4.39661E-05 7.64428E-05 2.62699E-05 2.15667E-04 3.61942E-04



 n o d a l   p r i n t   o u t   f o r   t i m e  s t e p    9201                              ( at time 4.5995397E+00 )

 nodal point  x-disp     y-disp      z-disp      x-vel       y-vel       z-vel      x-accl      y-accl      z-accl      x-coor      y-coor      z-coor
    22626 -2.01068E-02-3.45077E-02-1.44340E+01-1.19672E-04-9.90006E-03-3.15951E+00 1.93695E-02-2.90795E-02 5.85615E-03 4.79441E+01-2.20643E+01-7.09551E+00



 n o d a l   p r i n t   o u t   f o r   t i m e  s t e p    9201                              ( at time 4.5995397E+00 )

 nodal point  x-rot      y-rot       z-rot       x-rot vel   y-rot vel   z-rot vel   x-rot acc   y-rot acc   z-rot acc
    22626 -3.52755E-07-4.44425E-05-7.41121E-05 4.12817E-06 6.00599E-05 1.03025E-04 6.69010E-06 1.60955E-04 2.65845E-04



 n o d a l   p r i n t   o u t   f o r   t i m e  s t e p    9401                              ( at time 4.6995297E+00 )

 nodal point  x-disp     y-disp      z-disp      x-vel       y-vel       z-vel      x-accl      y-accl      z-accl      x-coor      y-coor      z-coor
    22626 -2.00021E-02-3.55782E-02-1.47499E+01 2.12622E-03-1.15010E-02-3.15936E+00 2.24612E-02-1.60115E-02 1.45927E-03 4.79442E+01-2.20654E+01-7.41142E+00



 n o d a l   p r i n t   o u t   f o r   t i m e  s t e p    9401                              ( at time 4.6995297E+00 )

 nodal point  x-rot      y-rot       z-rot       x-rot vel   y-rot vel   z-rot vel   x-rot acc   y-rot acc   z-rot acc
    22626  2.42755E-08-3.72894E-05-6.16732E-05 2.81210E-06 8.47207E-05 1.45657E-04-1.31620E-05 2.46633E-04 4.26363E-04



 n o d a l   p r i n t   o u t   f o r   t i m e  s t e p    9601                              ( at time 4.7995197E+00 )

 nodal point  x-disp     y-disp      z-disp      x-vel       y-vel       z-vel      x-accl      y-accl      z-accl      x-coor      y-coor      z-coor
    22626 -1.96907E-02-3.68000E-02-1.50658E+01 3.98704E-03-1.27502E-02-3.15962E+00 1.86100E-02-1.24932E-02-2.53941E-03 4.79445E+01-2.20666E+01-7.72733E+00



 n o d a l   p r i n t   o u t   f o r   t i m e  s t e p    9601                              ( at time 4.7995197E+00 )

 nodal point  x-rot      y-rot       z-rot       x-rot vel   y-rot vel   z-rot vel   x-rot acc   y-rot acc   z-rot acc
    22626  3.22958E-07-2.75770E-05-4.50277E-05-4.11150E-07 1.09160E-04 1.86876E-04-3.22358E-05 2.44419E-04 4.12234E-04



 n o d a l   p r i n t   o u t   f o r   t i m e  s t e p    9801                              ( at time 4.8995097E+00 )

 nodal point  x-disp     y-disp      z-disp      x-vel       y-vel       z-vel      x-accl      y-accl      z-accl      x-coor      y-coor      z-coor
    22626 -1.92013E-02-3.81262E-02-1.53818E+01 5.79120E-03-1.38687E-02-3.15986E+00 1.80434E-02-1.11859E-02-2.48457E-03 4.79450E+01-2.20679E+01-8.04328E+00



 n o d a l   p r i n t   o u t   f o r   t i m e  s t e p    9801                              ( at time 4.8995097E+00 )

 nodal point  x-rot      y-rot       z-rot       x-rot vel   y-rot vel   z-rot vel   x-rot acc   y-rot acc   z-rot acc
    22626  3.47009E-07-1.57375E-05-2.46759E-05-8.45442E-07 1.26317E-04 2.16643E-04-4.34336E-06 1.71590E-04 2.97704E-04



 n o d a l   p r i n t   o u t   f o r   t i m e  s t e p   10001                              ( at time 4.9994997E+00 )

 nodal point  x-disp     y-disp      z-disp      x-vel       y-vel       z-vel      x-accl      y-accl      z-accl      x-coor      y-coor      z-coor
    22626 -1.85082E-02-3.96046E-02-1.56977E+01 8.03269E-03-1.57860E-02-3.15970E+00 2.24171E-02-1.91750E-02 1.65002E-03 4.79457E+01-2.20694E+01-8.35923E+00



 n o d a l   p r i n t   o u t   f o r   t i m e  s t e p   10001                              ( at time 4.9994997E+00 )

 nodal point  x-rot      y-rot       z-rot       x-rot vel   y-rot vel   z-rot vel   x-rot acc   y-rot acc   z-rot acc
    22626  2.28099E-07-2.18563E-06-1.43524E-06-7.03859E-07 1.44201E-04 2.47787E-04 1.41597E-06 1.78850E-04 3.11466E-04



 n o d a l   p r i n t   o u t   f o r   t i m e  s t e p   10202                              ( at time 5.0999896E+00 )

 nodal point  x-disp     y-disp      z-disp      x-vel       y-vel       z-vel      x-accl      y-accl      z-accl      x-coor      y-coor      z-coor
    22626 -1.75973E-02-4.12624E-02-1.60152E+01 1.00301E-02-1.70275E-02-3.15982E+00 1.98766E-02-1.23542E-02-1.16730E-03 4.79466E+01-2.20711E+01-8.67674E+00



 n o d a l   p r i n t   o u t   f o r   t i m e  s t e p   10202                              ( at time 5.0999896E+00 )

 nodal point  x-rot      y-rot       z-rot       x-rot vel   y-rot vel   z-rot vel   x-rot acc   y-rot acc   z-rot acc
    22626  9.11366E-08 1.35189E-05 2.53280E-05-2.82241E-06 1.65084E-04 2.82568E-04-2.10823E-05 2.07811E-04 3.46114E-04



 n o d a l   p r i n t   o u t   f o r   t i m e  s t e p   10402                              ( at time 5.1999796E+00 )

 nodal point  x-disp     y-disp      z-disp      x-vel       y-vel       z-vel      x-accl      y-accl      z-accl      x-coor      y-coor      z-coor
    22626 -1.64949E-02-4.29935E-02-1.63312E+01 1.18826E-02-1.72689E-02-3.15956E+00 1.85268E-02-2.41452E-03 2.52271E-03 4.79477E+01-2.20728E+01-8.99270E+00



 n o d a l   p r i n t   o u t   f o r   t i m e  s t e p   10402                              ( at time 5.1999796E+00 )

 nodal point  x-rot      y-rot       z-rot       x-rot vel   y-rot vel   z-rot vel   x-rot acc   y-rot acc   z-rot acc
    22626 -5.15288E-07 3.14017E-05 5.56251E-05-9.76779E-06 1.92701E-04 3.17034E-04-6.94605E-05 2.76204E-04 3.44696E-04



 n o d a l   p r i n t   o u t   f o r   t i m e  s t e p   10602                              ( at time 5.2999696E+00 )

 nodal point  x-disp     y-disp      z-disp      x-vel       y-vel       z-vel      x-accl      y-accl      z-accl      x-coor      y-coor      z-coor
    22626 -1.52545E-02-4.46365E-02-1.66471E+01 1.29727E-02-1.58141E-02-3.15809E+00 1.09019E-02 1.45496E-02 1.47501E-02 4.79489E+01-2.20744E+01-9.30857E+00



 n o d a l   p r i n t   o u t   f o r   t i m e  s t e p   10602                              ( at time 5.2999696E+00 )

 nodal point  x-rot      y-rot       z-rot       x-rot vel   y-rot vel   z-rot vel   x-rot acc   y-rot acc   z-rot acc
    22626 -4.68103E-07 5.26393E-05 8.77675E-05 8.84365E-06 2.38158E-04 3.28731E-04 1.86133E-04 4.54610E-04 1.16984E-04



 n o d a l   p r i n t   o u t   f o r   t i m e  s t e p   10802                              ( at time 5.3999596E+00 )

 nodal point  x-disp     y-disp      z-disp      x-vel       y-vel       z-vel      x-accl      y-accl      z-accl      x-coor      y-coor      z-coor
    22626 -1.38937E-02-4.61885E-02-1.69625E+01 1.42548E-02-1.50094E-02-3.14977E+00 1.28223E-02 8.04754E-03 8.31855E-02 4.79503E+01-2.20760E+01-9.62399E+00



 n o d a l   p r i n t   o u t   f o r   t i m e  s t e p   10802                              ( at time 5.3999596E+00 )

 nodal point  x-rot      y-rot       z-rot       x-rot vel   y-rot vel   z-rot vel   x-rot acc   y-rot acc   z-rot acc
    22626  4.44121E-07 8.16062E-05 1.21935E-04 1.83818E-05 3.46174E-04 3.37601E-04 9.53908E-05 1.08027E-03 8.87128E-05



 n o d a l   p r i n t   o u t   f o r   t i m e  s t e p   11002                              ( at time 5.4999496E+00 )

 nodal point  x-disp     y-disp      z-disp      x-vel       y-vel       z-vel      x-accl      y-accl      z-accl      x-coor      y-coor      z-coor
    22626 -1.24014E-02-4.74568E-02-1.72769E+01 1.59704E-02-1.12224E-02-3.13895E+00 1.71581E-02 3.78740E-02 1.08215E-01 4.79518E+01-2.20772E+01-9.93843E+00



 n o d a l   p r i n t   o u t   f o r   t i m e  s t e p   11002                              ( at time 5.4999496E+00 )

 nodal point  x-rot      y-rot       z-rot       x-rot vel   y-rot vel   z-rot vel   x-rot acc   y-rot acc   z-rot acc
    22626  7.15054E-06 1.22018E-04 1.54262E-04 1.00858E-04 4.80274E-04 3.24967E-04 8.24846E-04 1.34114E-03-1.26361E-04



 n o d a l   p r i n t   o u t   f o r   t i m e  s t e p   11202                              ( at time 5.5999396E+00 )

 nodal point  x-disp     y-disp      z-disp      x-vel       y-vel       z-vel      x-accl      y-accl      z-accl      x-coor      y-coor      z-coor
    22626 -1.08052E-02-4.83256E-02-1.75899E+01 1.64512E-02-6.62335E-03-3.12071E+00 4.80846E-03 4.59954E-02 1.82466E-01 4.79534E+01-2.20781E+01-1.02514E+01



 n o d a l   p r i n t   o u t   f o r   t i m e  s t e p   11202                              ( at time 5.5999396E+00 )

 nodal point  x-rot      y-rot       z-rot       x-rot vel   y-rot vel   z-rot vel   x-rot acc   y-rot acc   z-rot acc
    22626  2.07554E-05 1.79760E-04 1.84831E-04 1.70147E-04 6.69194E-04 2.92172E-04 6.92960E-04 1.88939E-03-3.27976E-04



 n o d a l   p r i n t   o u t   f o r   t i m e  s t e p   11402                              ( at time 5.6999296E+00 )

 nodal point  x-disp     y-disp      z-disp      x-vel       y-vel       z-vel      x-accl      y-accl      z-accl      x-coor      y-coor      z-coor
    22626 -9.05687E-03-4.87110E-02-1.79009E+01 1.75472E-02-3.31405E-04-3.09989E+00 1.09608E-02 6.29255E-02 2.08186E-01 4.79551E+01-2.20785E+01-1.05624E+01



 n o d a l   p r i n t   o u t   f o r   t i m e  s t e p   11402                              ( at time 5.6999296E+00 )

 nodal point  x-rot      y-rot       z-rot       x-rot vel   y-rot vel   z-rot vel   x-rot acc   y-rot acc   z-rot acc
    22626  4.37815E-05 2.57794E-04 2.12385E-04 2.96930E-04 8.99557E-04 2.46095E-04 1.26795E-03 2.30385E-03-4.60823E-04



 n o d a l   p r i n t   o u t   f o r   t i m e  s t e p   11602                              ( at time 5.7999195E+00 )

 nodal point  x-disp     y-disp      z-disp      x-vel       y-vel       z-vel      x-accl      y-accl      z-accl      x-coor      y-coor      z-coor
    22626 -7.23762E-03-4.84295E-02-1.82097E+01 1.87319E-02 6.11230E-03-3.07651E+00 1.18489E-02 6.44435E-02 2.33855E-01 4.79569E+01-2.20782E+01-1.08712E+01



 n o d a l   p r i n t   o u t   f o r   t i m e  s t e p   11602                              ( at time 5.7999195E+00 )

 nodal point  x-rot      y-rot       z-rot       x-rot vel   y-rot vel   z-rot vel   x-rot acc   y-rot acc   z-rot acc
    22626  7.90277E-05 3.58131E-04 2.35060E-04 4.09075E-04 1.12313E-03 1.89468E-04 1.12157E-03 2.23599E-03-5.66325E-04



 n o d a l   p r i n t   o u t   f o r   t i m e  s t e p   11802                              ( at time 5.8999095E+00 )

 nodal point  x-disp     y-disp      z-disp      x-vel       y-vel       z-vel      x-accl      y-accl      z-accl      x-coor      y-coor      z-coor
    22626 -5.25523E-03-4.76820E-02-1.85159E+01 2.01961E-02 1.02794E-02-3.04694E+00 1.46427E-02 4.16754E-02 2.95647E-01 4.79589E+01-2.20775E+01-1.11774E+01



 n o d a l   p r i n t   o u t   f o r   t i m e  s t e p   11802                              ( at time 5.8999095E+00 )

 nodal point  x-rot      y-rot       z-rot       x-rot vel   y-rot vel   z-rot vel   x-rot acc   y-rot acc   z-rot acc
    22626  1.25192E-04 4.86747E-04 2.51975E-04 5.47669E-04 1.42000E-03 1.36850E-04 1.38607E-03 2.96898E-03-5.26234E-04



 n o d a l   p r i n t   o u t   f o r   t i m e  s t e p   12002                              ( at time 5.9998995E+00 )

 nodal point  x-disp     y-disp      z-disp      x-vel       y-vel       z-vel      x-accl      y-accl      z-accl      x-coor      y-coor      z-coor
    22626 -3.11544E-03-4.63910E-02-1.88191E+01 2.24391E-02 1.59897E-02-3.01581E+00 2.24327E-02 5.71086E-02 3.11378E-01 4.79611E+01-2.20762E+01-1.14806E+01



 n o d a l   p r i n t   o u t   f o r   t i m e  s t e p   12002                              ( at time 5.9998995E+00 )

 nodal point  x-rot      y-rot       z-rot       x-rot vel   y-rot vel   z-rot vel   x-rot acc   y-rot acc   z-rot acc
    22626  1.86786E-04 6.42541E-04 2.62218E-04 6.87874E-04 1.72433E-03 7.14493E-05 1.40219E-03 3.04364E-03-6.54071E-04



 n o d a l   p r i n t   o u t   f o r   t i m e  s t e p   12202                              ( at time 6.0998895E+00 )

 nodal point  x-disp     y-disp      z-disp      x-vel       y-vel       z-vel      x-accl      y-accl      z-accl      x-coor      y-coor      z-coor
    22626 -8.39297E-04-4.44889E-02-1.91190E+01 2.34599E-02 2.15314E-02-2.98291E+00 1.02084E-02 5.54228E-02 3.29071E-01 4.79633E+01-2.20743E+01-1.17805E+01



 n o d a l   p r i n t   o u t   f o r   t i m e  s t e p   12202                              ( at time 6.0998895E+00 )

 nodal point  x-rot      y-rot       z-rot       x-rot vel   y-rot vel   z-rot vel   x-rot acc   y-rot acc   z-rot acc
    22626  2.62928E-04 8.31025E-04 2.63880E-04 8.35482E-04 2.03465E-03-1.56925E-05 1.47622E-03 3.10349E-03-8.71502E-04



 n o d a l   p r i n t   o u t   f o r   t i m e  s t e p   12402                              ( at time 6.1998795E+00 )

 nodal point  x-disp     y-disp      z-disp      x-vel       y-vel       z-vel      x-accl      y-accl      z-accl      x-coor      y-coor      z-coor
    22626  1.57883E-03-4.19902E-02-1.94156E+01 2.53266E-02 2.73145E-02-2.94839E+00 1.86698E-02 5.78366E-02 3.45186E-01 4.79658E+01-2.20718E+01-1.20771E+01



 n o d a l   p r i n t   o u t   f o r   t i m e  s t e p   12402                              ( at time 6.1998795E+00 )

 nodal point  x-rot      y-rot       z-rot       x-rot vel   y-rot vel   z-rot vel   x-rot acc   y-rot acc   z-rot acc
    22626  3.54250E-04 1.05078E-03 2.57144E-04 9.90557E-04 2.36774E-03-1.08006E-04 1.55091E-03 3.33123E-03-9.23225E-04



 n o d a l   p r i n t   o u t   f o r   t i m e  s t e p   12602                              ( at time 6.2998695E+00 )

 nodal point  x-disp     y-disp      z-disp      x-vel       y-vel       z-vel      x-accl      y-accl      z-accl      x-coor      y-coor      z-coor
    22626  4.23677E-03-3.89230E-02-1.97086E+01 2.85812E-02 3.34648E-02-2.91176E+00 3.25489E-02 6.15088E-02 3.66339E-01 4.79684E+01-2.20687E+01-1.23701E+01



 n o d a l   p r i n t   o u t   f o r   t i m e  s t e p   12602                              ( at time 6.2998695E+00 )

 nodal point  x-rot      y-rot       z-rot       x-rot vel   y-rot vel   z-rot vel   x-rot acc   y-rot acc   z-rot acc
    22626  4.61908E-04 1.30259E-03 2.40396E-04 1.14564E-03 2.70611E-03-2.20082E-04 1.55102E-03 3.38400E-03-1.12088E-03



 n o d a l   p r i n t   o u t   f o r   t i m e  s t e p   12802                              ( at time 6.3998595E+00 )

 nodal point  x-disp     y-disp      z-disp      x-vel       y-vel       z-vel      x-accl      y-accl      z-accl      x-coor      y-coor      z-coor
    22626  7.22186E-03-3.52425E-02-1.99977E+01 3.17702E-02 3.87383E-02-2.87336E+00 3.18932E-02 5.27405E-02 3.84064E-01 4.79714E+01-2.20650E+01-1.26592E+01



 n o d a l   p r i n t   o u t   f o r   t i m e  s t e p   12802                              ( at time 6.3998595E+00 )

 nodal point  x-rot      y-rot       z-rot       x-rot vel   y-rot vel   z-rot vel   x-rot acc   y-rot acc   z-rot acc
    22626  5.85207E-04 1.58891E-03 2.13414E-04 1.32089E-03 3.01922E-03-2.98824E-04 1.75264E-03 3.13148E-03-7.87500E-04



 n o d a l   p r i n t   o u t   f o r   t i m e  s t e p   13002                              ( at time 6.4998495E+00 )

 nodal point  x-disp     y-disp      z-disp      x-vel       y-vel       z-vel      x-accl      y-accl      z-accl      x-coor      y-coor      z-coor
    22626  1.05638E-02-3.09417E-02-2.02829E+01 3.53018E-02 4.66276E-02-2.83113E+00 3.53196E-02 7.89008E-02 4.22332E-01 4.79747E+01-2.20607E+01-1.29444E+01



 n o d a l   p r i n t   o u t   f o r   t i m e  s t e p   13002                              ( at time 6.4998495E+00 )

 nodal point  x-rot      y-rot       z-rot       x-rot vel   y-rot vel   z-rot vel   x-rot acc   y-rot acc   z-rot acc
    22626  7.25963E-04 1.90922E-03 1.76522E-04 1.48303E-03 3.38147E-03-4.33158E-04 1.62154E-03 3.62281E-03-1.34347E-03



 n o d a l   p r i n t   o u t   f o r   t i m e  s t e p   13202                              ( at time 6.5998395E+00 )

 nodal point  x-disp     y-disp      z-disp      x-vel       y-vel       z-vel      x-accl      y-accl      z-accl      x-coor      y-coor      z-coor
    22626  1.43715E-02-2.59315E-02-2.05639E+01 4.02043E-02 5.47873E-02-2.78856E+00 4.90296E-02 8.16055E-02 4.25780E-01 4.79785E+01-2.20557E+01-1.32254E+01



 n o d a l   p r i n t   o u t   f o r   t i m e  s t e p   13202                              ( at time 6.5998395E+00 )

 nodal point  x-rot      y-rot       z-rot       x-rot vel   y-rot vel   z-rot vel   x-rot acc   y-rot acc   z-rot acc
    22626  8.83710E-04 2.26320E-03 1.28321E-04 1.67851E-03 3.69811E-03-5.57336E-04 1.95506E-03 3.16672E-03-1.24191E-03



 n o d a l   p r i n t   o u t   f o r   t i m e  s t e p   13402                              ( at time 6.6998295E+00 )

 nodal point  x-disp     y-disp      z-disp      x-vel       y-vel       z-vel      x-accl      y-accl      z-accl      x-coor      y-coor      z-coor
    22626  1.87347E-02-2.01195E-02-2.08405E+01 4.62267E-02 6.14860E-02-2.74272E+00 6.02300E-02 6.69935E-02 4.58404E-01 4.79829E+01-2.20499E+01-1.35020E+01



 n o d a l   p r i n t   o u t   f o r   t i m e  s t e p   13402                              ( at time 6.6998295E+00 )

 nodal point  x-rot      y-rot       z-rot       x-rot vel   y-rot vel   z-rot vel   x-rot acc   y-rot acc   z-rot acc
    22626  1.06264E-03 2.65091E-03 6.80407E-05 1.89504E-03 4.03747E-03-6.71638E-04 2.16546E-03 3.39395E-03-1.14314E-03



 n o d a l   p r i n t   o u t   f o r   t i m e  s t e p   13602                              ( at time 6.7998195E+00 )

 nodal point  x-disp     y-disp      z-disp      x-vel       y-vel       z-vel      x-accl      y-accl      z-accl      x-coor      y-coor      z-coor
    22626  2.36916E-02-1.36927E-02-2.11124E+01 5.37212E-02 6.75446E-02-2.69662E+00 7.49531E-02 6.05922E-02 4.61072E-01 4.79879E+01-2.20435E+01-1.37739E+01



 n o d a l   p r i n t   o u t   f o r   t i m e  s t e p   13602                              ( at time 6.7998195E+00 )

 nodal point  x-rot      y-rot       z-rot       x-rot vel   y-rot vel   z-rot vel   x-rot acc   y-rot acc   z-rot acc
    22626  1.26073E-03 3.07178E-03-4.48904E-06 2.08393E-03 4.37428E-03-7.79528E-04 1.88906E-03 3.36840E-03-1.07900E-03



 n o d a l   p r i n t   o u t   f o r   t i m e  s t e p   13802                              ( at time 6.8998095E+00 )

 nodal point  x-disp     y-disp      z-disp      x-vel       y-vel       z-vel      x-accl      y-accl      z-accl      x-coor      y-coor      z-coor
    22626  2.93473E-02-6.57274E-03-2.13796E+01 6.06064E-02 7.51401E-02-2.64791E+00 6.88591E-02 7.59622E-02 4.87115E-01 4.79935E+01-2.20364E+01-1.40411E+01



 n o d a l   p r i n t   o u t   f o r   t i m e  s t e p   13802                              ( at time 6.8998095E+00 )

 nodal point  x-rot      y-rot       z-rot       x-rot vel   y-rot vel   z-rot vel   x-rot acc   y-rot acc   z-rot acc
    22626  1.47963E-03 3.52501E-03-8.80658E-05 2.31357E-03 4.67303E-03-9.00111E-04 2.29664E-03 2.98784E-03-1.20596E-03



 n o d a l   p r i n t   o u t   f o r   t i m e  s t e p   14002                              ( at time 6.9997995E+00 )

 nodal point  x-disp     y-disp      z-disp      x-vel       y-vel       z-vel      x-accl      y-accl      z-accl      x-coor      y-coor      z-coor
    22626  3.57876E-02 1.38070E-03-2.16418E+01 6.86642E-02 8.28641E-02-2.59625E+00 8.05861E-02 7.72477E-02 5.16672E-01 4.80000E+01-2.20284E+01-1.43033E+01



 n o d a l   p r i n t   o u t   f o r   t i m e  s t e p   14002                              ( at time 6.9997995E+00 )

 nodal point  x-rot      y-rot       z-rot       x-rot vel   y-rot vel   z-rot vel   x-rot acc   y-rot acc   z-rot acc
    22626  1.72237E-03 4.00979E-03-1.85449E-04 2.53693E-03 5.00405E-03-1.04124E-03 2.23382E-03 3.31047E-03-1.41142E-03



 n o d a l   p r i n t   o u t   f o r   t i m e  s t e p   14202                              ( at time 7.0997895E+00 )

 nodal point  x-disp     y-disp      z-disp      x-vel       y-vel       z-vel      x-accl      y-accl      z-accl      x-coor      y-coor      z-coor
    22626  4.30163E-02 9.94306E-03-2.18988E+01 7.62250E-02 8.92014E-02-2.54369E+00 7.56149E-02 6.33792E-02 5.25663E-01 4.80072E+01-2.20198E+01-1.45603E+01



 n o d a l   p r i n t   o u t   f o r   t i m e  s t e p   14202                              ( at time 7.0997895E+00 )

 nodal point  x-rot      y-rot       z-rot       x-rot vel   y-rot vel   z-rot vel   x-rot acc   y-rot acc   z-rot acc
    22626  1.98632E-03 4.52568E-03-2.94584E-04 2.74393E-03 5.32971E-03-1.15886E-03 2.07028E-03 3.25693E-03-1.17636E-03



 n o d a l   p r i n t   o u t   f o r   t i m e  s t e p   14402                              ( at time 7.1997794E+00 )

 nodal point  x-disp     y-disp      z-disp      x-vel       y-vel       z-vel      x-accl      y-accl      z-accl      x-coor      y-coor      z-coor
    22626  5.10529E-02 1.92625E-02-2.21504E+01 8.50556E-02 9.61993E-02-2.48780E+00 8.83146E-02 6.99865E-02 5.58926E-01 4.80152E+01-2.20105E+01-1.48119E+01



 n o d a l   p r i n t   o u t   f o r   t i m e  s t e p   14402                              ( at time 7.1997794E+00 )

 nodal point  x-rot      y-rot       z-rot       x-rot vel   y-rot vel   z-rot vel   x-rot acc   y-rot acc   z-rot acc
    22626  2.27448E-03 5.07340E-03-4.17217E-04 3.00511E-03 5.64027E-03-1.28150E-03 2.61205E-03 3.10594E-03-1.22647E-03



 n o d a l   p r i n t   o u t   f o r   t i m e  s t e p   14602                              ( at time 7.2997694E+00 )

 nodal point  x-disp     y-disp      z-disp      x-vel       y-vel       z-vel      x-accl      y-accl      z-accl      x-coor      y-coor      z-coor
    22626  6.00731E-02 2.92312E-02-2.23963E+01 9.49151E-02 1.02644E-01-2.43078E+00 9.86054E-02 6.44528E-02 5.70298E-01 4.80243E+01-2.20006E+01-1.50578E+01



 n o d a l   p r i n t   o u t   f o r   t i m e  s t e p   14602                              ( at time 7.2997694E+00 )

 nodal point  x-rot      y-rot       z-rot       x-rot vel   y-rot vel   z-rot vel   x-rot acc   y-rot acc   z-rot acc
    22626  2.58758E-03 5.65257E-03-5.52650E-04 3.24800E-03 5.94875E-03-1.40706E-03 2.42915E-03 3.08510E-03-1.25579E-03



 n o d a l   p r i n t   o u t   f o r   t i m e  s t e p   14802                              ( at time 7.3997594E+00 )

 nodal point  x-disp     y-disp      z-disp      x-vel       y-vel       z-vel      x-accl      y-accl      z-accl      x-coor      y-coor      z-coor
    22626  7.00333E-02 3.98007E-02-2.26364E+01 1.03546E-01 1.08491E-01-2.37344E+00 8.63203E-02 5.84809E-02 5.73471E-01 4.80342E+01-2.19900E+01-1.52979E+01



 n o d a l   p r i n t   o u t   f o r   t i m e  s t e p   14802                              ( at time 7.3997594E+00 )

 nodal point  x-rot      y-rot       z-rot       x-rot vel   y-rot vel   z-rot vel   x-rot acc   y-rot acc   z-rot acc
    22626  2.92490E-03 6.26120E-03-6.99090E-04 3.49453E-03 6.22092E-03-1.52705E-03 2.46552E-03 2.72204E-03-1.19999E-03



 n o d a l   p r i n t   o u t   f o r   t i m e  s t e p   15002                              ( at time 7.4997494E+00 )

 nodal point  x-disp     y-disp      z-disp      x-vel       y-vel       z-vel      x-accl      y-accl      z-accl      x-coor      y-coor      z-coor
    22626  8.08996E-02 5.09578E-02-2.28707E+01 1.13162E-01 1.14270E-01-2.31402E+00 9.61648E-02 5.77946E-02 5.94242E-01 4.80451E+01-2.19788E+01-1.55322E+01



 n o d a l   p r i n t   o u t   f o r   t i m e  s t e p   15002                              ( at time 7.4997494E+00 )

 nodal point  x-rot      y-rot       z-rot       x-rot vel   y-rot vel   z-rot vel   x-rot acc   y-rot acc   z-rot acc
    22626  3.28846E-03 6.89820E-03-8.56847E-04 3.77133E-03 6.50860E-03-1.64261E-03 2.76825E-03 2.87703E-03-1.15566E-03



 n o d a l   p r i n t   o u t   f o r   t i m e  s t e p   15202                              ( at time 7.5997394E+00 )

 nodal point  x-disp     y-disp      z-disp      x-vel       y-vel       z-vel      x-accl      y-accl      z-accl      x-coor      y-coor      z-coor
    22626  9.27214E-02 6.25919E-02-2.30990E+01 1.22932E-01 1.18287E-01-2.25121E+00 9.77163E-02 4.01749E-02 6.28158E-01 4.80569E+01-2.19672E+01-1.57605E+01



 n o d a l   p r i n t   o u t   f o r   t i m e  s t e p   15202                              ( at time 7.5997394E+00 )

 nodal point  x-rot      y-rot       z-rot       x-rot vel   y-rot vel   z-rot vel   x-rot acc   y-rot acc   z-rot acc
    22626  3.67980E-03 7.56404E-03-1.02609E-03 4.04984E-03 6.79857E-03-1.75519E-03 2.78538E-03 2.89999E-03-1.12600E-03



 n o d a l   p r i n t   o u t   f o r   t i m e  s t e p   15402                              ( at time 7.6997294E+00 )

 nodal point  x-disp     y-disp      z-disp      x-vel       y-vel       z-vel      x-accl      y-accl      z-accl      x-coor      y-coor      z-coor
    22626  1.05472E-01 7.45645E-02-2.33209E+01 1.32293E-01 1.21592E-01-2.18835E+00 9.36111E-02 3.30452E-02 6.28673E-01 4.80697E+01-2.19552E+01-1.59824E+01



 n o d a l   p r i n t   o u t   f o r   t i m e  s t e p   15402                              ( at time 7.6997294E+00 )

 nodal point  x-rot      y-rot       z-rot       x-rot vel   y-rot vel   z-rot vel   x-rot acc   y-rot acc   z-rot acc
    22626  4.09993E-03 8.25576E-03-1.20518E-03 4.34394E-03 7.04678E-03-1.84412E-03 2.94127E-03 2.48240E-03-8.89381E-04



 n o d a l   p r i n t   o u t   f o r   t i m e  s t e p   15602                              ( at time 7.7997194E+00 )

 nodal point  x-disp     y-disp      z-disp      x-vel       y-vel       z-vel      x-accl      y-accl      z-accl      x-coor      y-coor      z-coor
    22626  1.19101E-01 8.69273E-02-2.35365E+01 1.41568E-01 1.24884E-01-2.12338E+00 9.27639E-02 3.29251E-02 6.49699E-01 4.80833E+01-2.19429E+01-1.61980E+01



 n o d a l   p r i n t   o u t   f o r   t i m e  s t e p   15602                              ( at time 7.7997194E+00 )

 nodal point  x-rot      y-rot       z-rot       x-rot vel   y-rot vel   z-rot vel   x-rot acc   y-rot acc   z-rot acc
    22626  4.54926E-03 8.97413E-03-1.39454E-03 4.65149E-03 7.30288E-03-1.93899E-03 3.07587E-03 2.56126E-03-9.48742E-04



 n o d a l   p r i n t   o u t   f o r   t i m e  s t e p   15802                              ( at time 7.8997094E+00 )

 nodal point  x-disp     y-disp      z-disp      x-vel       y-vel       z-vel      x-accl      y-accl      z-accl      x-coor      y-coor      z-coor
    22626  1.33604E-01 9.95499E-02-2.37455E+01 1.49942E-01 1.27883E-01-2.05603E+00 8.37509E-02 2.99977E-02 6.73596E-01 4.80978E+01-2.19302E+01-1.64070E+01



 n o d a l   p r i n t   o u t   f o r   t i m e  s t e p   15802                              ( at time 7.8997094E+00 )

 nodal point  x-rot      y-rot       z-rot       x-rot vel   y-rot vel   z-rot vel   x-rot acc   y-rot acc   z-rot acc
    22626  5.03034E-03 9.71763E-03-1.59337E-03 4.96841E-03 7.55891E-03-2.04637E-03 3.16952E-03 2.56053E-03-1.07395E-03



 n o d a l   p r i n t   o u t   f o r   t i m e  s t e p   16002                              ( at time 7.9996994E+00 )

 nodal point  x-disp     y-disp      z-disp      x-vel       y-vel       z-vel      x-accl      y-accl      z-accl      x-coor      y-coor      z-coor
    22626  1.48975E-01 1.12416E-01-2.39478E+01 1.57749E-01 1.29451E-01-1.98946E+00 7.80756E-02 1.56786E-02 6.65773E-01 4.81132E+01-2.19174E+01-1.66093E+01



 n o d a l   p r i n t   o u t   f o r   t i m e  s t e p   16002                              ( at time 7.9996994E+00 )

 nodal point  x-rot      y-rot       z-rot       x-rot vel   y-rot vel   z-rot vel   x-rot acc   y-rot acc   z-rot acc
    22626  5.54245E-03 1.04848E-02-1.80170E-03 5.27842E-03 7.77914E-03-2.12516E-03 3.10041E-03 2.20248E-03-7.87970E-04



 n o d a l   p r i n t   o u t   f o r   t i m e  s t e p   16202                              ( at time 8.0996894E+00 )

 nodal point  x-disp     y-disp      z-disp      x-vel       y-vel       z-vel      x-accl      y-accl      z-accl      x-coor      y-coor      z-coor
    22626  1.65196E-01 1.25397E-01-2.41433E+01 1.66353E-01 1.30387E-01-1.92238E+00 8.60446E-02 9.36081E-03 6.70842E-01 4.81294E+01-2.19044E+01-1.68048E+01



 n o d a l   p r i n t   o u t   f o r   t i m e  s t e p   16202                              ( at time 8.0996894E+00 )

 nodal point  x-rot      y-rot       z-rot       x-rot vel   y-rot vel   z-rot vel   x-rot acc   y-rot acc   z-rot acc
    22626  6.08613E-03 1.12741E-02-2.01816E-03 5.60354E-03 7.98899E-03-2.21658E-03 3.25146E-03 2.09877E-03-9.14309E-04



 n o d a l   p r i n t   o u t   f o r   t i m e  s t e p   16402                              ( at time 8.1996794E+00 )

 nodal point  x-disp     y-disp      z-disp      x-vel       y-vel       z-vel      x-accl      y-accl      z-accl      x-coor      y-coor      z-coor
    22626  1.82307E-01 1.38560E-01-2.43321E+01 1.74645E-01 1.32572E-01-1.85419E+00 8.29323E-02 2.18509E-02 6.81966E-01 4.81465E+01-2.18912E+01-1.69936E+01



 n o d a l   p r i n t   o u t   f o r   t i m e  s t e p   16402                              ( at time 8.1996794E+00 )

 nodal point  x-rot      y-rot       z-rot       x-rot vel   y-rot vel   z-rot vel   x-rot acc   y-rot acc   z-rot acc
    22626  6.66317E-03 1.20846E-02-2.24284E-03 5.93152E-03 8.21662E-03-2.28960E-03 3.28015E-03 2.27652E-03-7.30280E-04



 n o d a l   p r i n t   o u t   f o r   t i m e  s t e p   16602                              ( at time 8.2996694E+00 )

 nodal point  x-disp     y-disp      z-disp      x-vel       y-vel       z-vel      x-accl      y-accl      z-accl      x-coor      y-coor      z-coor
    22626  2.00191E-01 1.51852E-01-2.45140E+01 1.82854E-01 1.32961E-01-1.78512E+00 8.20952E-02 3.88960E-03 6.90823E-01 4.81644E+01-2.18779E+01-1.71755E+01



 n o d a l   p r i n t   o u t   f o r   t i m e  s t e p   16602                              ( at time 8.2996694E+00 )

 nodal point  x-rot      y-rot       z-rot       x-rot vel   y-rot vel   z-rot vel   x-rot acc   y-rot acc   z-rot acc
    22626  7.27464E-03 1.29148E-02-2.47287E-03 6.28334E-03 8.38073E-03-2.34758E-03 3.51858E-03 1.64124E-03-5.79807E-04



 n o d a l   p r i n t   o u t   f o r   t i m e  s t e p   16802                              ( at time 8.3996594E+00 )

 nodal point  x-disp     y-disp      z-disp      x-vel       y-vel       z-vel      x-accl      y-accl      z-accl      x-coor      y-coor      z-coor
    22626  2.18876E-01 1.65166E-01-2.46890E+01 1.91378E-01 1.31880E-01-1.71631E+00 8.52477E-02-1.08092E-02 6.88098E-01 4.81831E+01-2.18646E+01-1.73505E+01



 n o d a l   p r i n t   o u t   f o r   t i m e  s t e p   16802                              ( at time 8.3996594E+00 )

 nodal point  x-rot      y-rot       z-rot       x-rot vel   y-rot vel   z-rot vel   x-rot acc   y-rot acc   z-rot acc
    22626  7.92052E-03 1.37620E-02-2.71087E-03 6.61784E-03 8.54884E-03-2.41829E-03 3.34529E-03 1.68126E-03-7.07143E-04



 n o d a l   p r i n t   o u t   f o r   t i m e  s t e p   17002                              ( at time 8.4996494E+00 )

 nodal point  x-disp     y-disp      z-disp      x-vel       y-vel       z-vel      x-accl      y-accl      z-accl      x-coor      y-coor      z-coor
    22626  2.38409E-01 1.78236E-01-2.48569E+01 1.98750E-01 1.29949E-01-1.64194E+00 7.37293E-02-1.93067E-02 7.43768E-01 4.82026E+01-2.18516E+01-1.75184E+01



 n o d a l   p r i n t   o u t   f o r   t i m e  s t e p   17002                              ( at time 8.4996494E+00 )

 nodal point  x-rot      y-rot       z-rot       x-rot vel   y-rot vel   z-rot vel   x-rot acc   y-rot acc   z-rot acc
    22626  8.60116E-03 1.46251E-02-2.95488E-03 7.00110E-03 8.70688E-03-2.48544E-03 3.83299E-03 1.58060E-03-6.71600E-04



 n o d a l   p r i n t   o u t   f o r   t i m e  s t e p   17202                              ( at time 8.5996394E+00 )

 nodal point  x-disp     y-disp      z-disp      x-vel       y-vel       z-vel      x-accl      y-accl      z-accl      x-coor      y-coor      z-coor
    22626  2.58656E-01 1.91060E-01-2.50175E+01 2.06116E-01 1.26623E-01-1.57113E+00 7.36718E-02-3.32715E-02 7.08249E-01 4.82228E+01-2.18387E+01-1.76790E+01



 n o d a l   p r i n t   o u t   f o r   t i m e  s t e p   17202                              ( at time 8.5996394E+00 )

 nodal point  x-rot      y-rot       z-rot       x-rot vel   y-rot vel   z-rot vel   x-rot acc   y-rot acc   z-rot acc
    22626  9.32021E-03 1.55022E-02-3.20453E-03 7.37033E-03 8.82443E-03-2.54324E-03 3.69276E-03 1.17560E-03-5.78054E-04



 n o d a l   p r i n t   o u t   f o r   t i m e  s t e p   17402                              ( at time 8.6996293E+00 )

 nodal point  x-disp     y-disp      z-disp      x-vel       y-vel       z-vel      x-accl      y-accl      z-accl      x-coor      y-coor      z-coor
    22626  2.79633E-01 2.03472E-01-2.51708E+01 2.14215E-01 1.21613E-01-1.49486E+00 8.09894E-02-5.00992E-02 7.62737E-01 4.82438E+01-2.18263E+01-1.78323E+01



 n o d a l   p r i n t   o u t   f o r   t i m e  s t e p   17402                              ( at time 8.6996293E+00 )

 nodal point  x-rot      y-rot       z-rot       x-rot vel   y-rot vel   z-rot vel   x-rot acc   y-rot acc   z-rot acc
    22626  1.00747E-02 1.63905E-02-3.46159E-03 7.74361E-03 8.93692E-03-2.61689E-03 3.73310E-03 1.12503E-03-7.36578E-04



 n o d a l   p r i n t   o u t   f o r   t i m e  s t e p   17602                              ( at time 8.7996193E+00 )

 nodal point  x-disp     y-disp      z-disp      x-vel       y-vel       z-vel      x-accl      y-accl      z-accl      x-coor      y-coor      z-coor
    22626  3.01310E-01 2.15339E-01-2.53164E+01 2.20887E-01 1.15919E-01-1.41894E+00 6.67346E-02-5.69464E-02 7.59306E-01 4.82655E+01-2.18145E+01-1.79779E+01



 n o d a l   p r i n t   o u t   f o r   t i m e  s t e p   17602                              ( at time 8.7996193E+00 )

 nodal point  x-rot      y-rot       z-rot       x-rot vel   y-rot vel   z-rot vel   x-rot acc   y-rot acc   z-rot acc
    22626  1.08685E-02 1.72904E-02-3.72469E-03 8.12948E-03 9.04877E-03-2.66444E-03 3.85911E-03 1.11852E-03-4.75507E-04



 n o d a l   p r i n t   o u t   f o r   t i m e  s t e p   17802                              ( at time 8.8996093E+00 )

 nodal point  x-disp     y-disp      z-disp      x-vel       y-vel       z-vel      x-accl      y-accl      z-accl      x-coor      y-coor      z-coor
    22626  3.23683E-01 2.26618E-01-2.54544E+01 2.27462E-01 1.09291E-01-1.34107E+00 6.57546E-02-6.62883E-02 7.78714E-01 4.82879E+01-2.18032E+01-1.81159E+01



 n o d a l   p r i n t   o u t   f o r   t i m e  s t e p   17802                              ( at time 8.8996093E+00 )

 nodal point  x-rot      y-rot       z-rot       x-rot vel   y-rot vel   z-rot vel   x-rot acc   y-rot acc   z-rot acc
    22626  1.17009E-02 1.81997E-02-3.99413E-03 8.51603E-03 9.13055E-03-2.71870E-03 3.86585E-03 8.17924E-04-5.42723E-04



 n o d a l   p r i n t   o u t   f o r   t i m e  s t e p   18002                              ( at time 8.9995993E+00 )

 nodal point  x-disp     y-disp      z-disp      x-vel       y-vel       z-vel      x-accl      y-accl      z-accl      x-coor      y-coor      z-coor
    22626  3.46752E-01 2.37207E-01-2.55845E+01 2.34141E-01 1.02834E-01-1.26170E+00 6.67936E-02-6.45799E-02 7.93776E-01 4.83109E+01-2.17926E+01-1.82460E+01



 n o d a l   p r i n t   o u t   f o r   t i m e  s t e p   18002                              ( at time 8.9995993E+00 )

 nodal point  x-rot      y-rot       z-rot       x-rot vel   y-rot vel   z-rot vel   x-rot acc   y-rot acc   z-rot acc
    22626  1.25733E-02 1.91183E-02-4.26912E-03 8.92777E-03 9.20825E-03-2.77421E-03 4.11778E-03 7.77081E-04-5.55117E-04



 n o d a l   p r i n t   o u t   f o r   t i m e  s t e p   18202                              ( at time 9.0995893E+00 )

 nodal point  x-disp     y-disp      z-disp      x-vel       y-vel       z-vel      x-accl      y-accl      z-accl      x-coor      y-coor      z-coor
    22626  3.70602E-01 2.47215E-01-2.57067E+01 2.41874E-01 9.73513E-02-1.18260E+00 7.73439E-02-5.48287E-02 7.91115E-01 4.83348E+01-2.17826E+01-1.83682E+01



 n o d a l   p r i n t   o u t   f o r   t i m e  s t e p   18202                              ( at time 9.0995893E+00 )

 nodal point  x-rot      y-rot       z-rot       x-rot vel   y-rot vel   z-rot vel   x-rot acc   y-rot acc   z-rot acc
    22626  1.34870E-02 2.00436E-02-4.55012E-03 9.34877E-03 9.29786E-03-2.83912E-03 4.21050E-03 8.96237E-04-6.49151E-04



 n o d a l   p r i n t   o u t   f o r   t i m e  s t e p   18402                              ( at time 9.1995793E+00 )

 nodal point  x-disp     y-disp      z-disp      x-vel       y-vel       z-vel      x-accl      y-accl      z-accl      x-coor      y-coor      z-coor
    22626  3.95108E-01 2.56550E-01-2.58211E+01 2.48156E-01 8.98827E-02-1.10500E+00 6.28217E-02-7.46931E-02 7.76100E-01 4.83593E+01-2.17732E+01-1.84826E+01



 n o d a l   p r i n t   o u t   f o r   t i m e  s t e p   18402                              ( at time 9.1995793E+00 )

 nodal point  x-rot      y-rot       z-rot       x-rot vel   y-rot vel   z-rot vel   x-rot acc   y-rot acc   z-rot acc
    22626  1.44412E-02 2.09780E-02-4.83649E-03 9.73438E-03 9.39375E-03-2.88955E-03 3.85648E-03 9.58940E-04-5.04339E-04



 n o d a l   p r i n t   o u t   f o r   t i m e  s t e p   18602                              ( at time 9.2995693E+00 )

 nodal point  x-disp     y-disp      z-disp      x-vel       y-vel       z-vel      x-accl      y-accl      z-accl      x-coor      y-coor      z-coor
    22626  4.20263E-01 2.65275E-01-2.59277E+01 2.54723E-01 8.38766E-02-1.02934E+00 6.56778E-02-6.00672E-02 7.56705E-01 4.83844E+01-2.17645E+01-1.85892E+01



 n o d a l   p r i n t   o u t   f o r   t i m e  s t e p   18602                              ( at time 9.2995693E+00 )

 nodal point  x-rot      y-rot       z-rot       x-rot vel   y-rot vel   z-rot vel   x-rot acc   y-rot acc   z-rot acc
    22626  1.54350E-02 2.19204E-02-5.12851E-03 1.01377E-02 9.48008E-03-2.94902E-03 4.03370E-03 8.63358E-04-5.94821E-04



 n o d a l   p r i n t   o u t   f o r   t i m e  s t e p   18802                              ( at time 9.3995593E+00 )

 nodal point  x-disp     y-disp      z-disp      x-vel       y-vel       z-vel      x-accl      y-accl      z-accl      x-coor      y-coor      z-coor
    22626  4.46079E-01 2.73415E-01-2.60268E+01 2.61730E-01 7.83725E-02-9.52651E-01 7.00726E-02-5.50471E-02 7.66923E-01 4.84103E+01-2.17564E+01-1.86883E+01



 n o d a l   p r i n t   o u t   f o r   t i m e  s t e p   18802                              ( at time 9.3995593E+00 )

 nodal point  x-rot      y-rot       z-rot       x-rot vel   y-rot vel   z-rot vel   x-rot acc   y-rot acc   z-rot acc
    22626  1.64696E-02 2.28710E-02-5.42669E-03 1.05490E-02 9.54659E-03-3.00932E-03 4.11318E-03 6.65218E-04-6.03067E-04



 n o d a l   p r i n t   o u t   f o r   t i m e  s t e p   19002                              ( at time 9.4995493E+00 )

 nodal point  x-disp     y-disp      z-disp      x-vel       y-vel       z-vel      x-accl      y-accl      z-accl      x-coor      y-coor      z-coor
    22626  4.72563E-01 2.80965E-01-2.61183E+01 2.68629E-01 7.30731E-02-8.77947E-01 6.90011E-02-5.29993E-02 7.47113E-01 4.84367E+01-2.17488E+01-1.87798E+01



 n o d a l   p r i n t   o u t   f o r   t i m e  s t e p   19002                              ( at time 9.4995493E+00 )

 nodal point  x-rot      y-rot       z-rot       x-rot vel   y-rot vel   z-rot vel   x-rot acc   y-rot acc   z-rot acc
    22626  1.75447E-02 2.38295E-02-5.72889E-03 1.09396E-02 9.62757E-03-3.04471E-03 3.90647E-03 8.09913E-04-3.53934E-04



 n o d a l   p r i n t   o u t   f o r   t i m e  s t e p   19202                              ( at time 9.5995393E+00 )

 nodal point  x-disp     y-disp      z-disp      x-vel       y-vel       z-vel      x-accl      y-accl      z-accl      x-coor      y-coor      z-coor
    22626  4.99624E-01 2.88155E-01-2.62024E+01 2.74432E-01 6.95699E-02-8.08017E-01 5.80322E-02-3.50350E-02 6.99364E-01 4.84638E+01-2.17416E+01-1.88639E+01



 n o d a l   p r i n t   o u t   f o r   t i m e  s t e p   19202                              ( at time 9.5995393E+00 )

 nodal point  x-rot      y-rot       z-rot       x-rot vel   y-rot vel   z-rot vel   x-rot acc   y-rot acc   z-rot acc
    22626  1.86586E-02 2.47960E-02-6.03766E-03 1.13356E-02 9.69513E-03-3.10983E-03 3.96066E-03 6.75606E-04-6.51203E-04



 n o d a l   p r i n t   o u t   f o r   t i m e  s t e p   19402                              ( at time 9.6995293E+00 )

 nodal point  x-disp     y-disp      z-disp      x-vel       y-vel       z-vel      x-accl      y-accl      z-accl      x-coor      y-coor      z-coor
    22626  5.27371E-01 2.94859E-01-2.62795E+01 2.81535E-01 6.57882E-02-7.33679E-01 7.10440E-02-3.78210E-02 7.43463E-01 4.84916E+01-2.17349E+01-1.89410E+01



 n o d a l   p r i n t   o u t   f o r   t i m e  s t e p   19402                              ( at time 9.6995293E+00 )

 nodal point  x-rot      y-rot       z-rot       x-rot vel   y-rot vel   z-rot vel   x-rot acc   y-rot acc   z-rot acc
    22626  1.98111E-02 2.57710E-02-6.35015E-03 1.17103E-02 9.77965E-03-3.14682E-03 3.74711E-03 8.45307E-04-3.69926E-04



 n o d a l   p r i n t   o u t   f o r   t i m e  s t e p   19602                              ( at time 9.7995193E+00 )

 nodal point  x-disp     y-disp      z-disp      x-vel       y-vel       z-vel      x-accl      y-accl      z-accl      x-coor      y-coor      z-coor
    22626  5.55823E-01 3.01325E-01-2.63494E+01 2.87394E-01 6.36402E-02-6.63153E-01 5.85904E-02-2.14817E-02 7.05330E-01 4.85200E+01-2.17285E+01-1.90109E+01



 n o d a l   p r i n t   o u t   f o r   t i m e  s t e p   19602                              ( at time 9.7995193E+00 )

 nodal point  x-rot      y-rot       z-rot       x-rot vel   y-rot vel   z-rot vel   x-rot acc   y-rot acc   z-rot acc
    22626  2.10050E-02 2.67517E-02-6.66700E-03 1.21373E-02 9.86212E-03-3.20045E-03 4.27049E-03 8.24779E-04-5.36429E-04



 n o d a l   p r i n t   o u t   f o r   t i m e  s t e p   19802                              ( at time 9.8995093E+00 )

 nodal point  x-disp     y-disp      z-disp      x-vel       y-vel       z-vel      x-accl      y-accl      z-accl      x-coor      y-coor      z-coor
    22626  5.84852E-01 3.07558E-01-2.64124E+01 2.94303E-01 6.05071E-02-5.97755E-01 6.90947E-02-3.13343E-02 6.54038E-01 4.85490E+01-2.17222E+01-1.90739E+01



 n o d a l   p r i n t   o u t   f o r   t i m e  s t e p   19802                              ( at time 9.8995093E+00 )

 nodal point  x-rot      y-rot       z-rot       x-rot vel   y-rot vel   z-rot vel   x-rot acc   y-rot acc   z-rot acc
    22626  2.22385E-02 2.77417E-02-6.99139E-03 1.25017E-02 9.92281E-03-3.24408E-03 3.64458E-03 6.06995E-04-4.36297E-04



 n o d a l   p r i n t   o u t   f o r   t i m e  s t e p   20003                              ( at time 9.9999992E+00 )

 nodal point  x-disp     y-disp      z-disp      x-vel       y-vel       z-vel      x-accl      y-accl      z-accl      x-coor      y-coor      z-coor
[...]
    22626  2.50586E-01 1.50858E-01-6.91065E-02 1.79579E-02 8.02058E-03-6.03432E-03 1.71752E-05 8.67606E-05 3.18388E-04



 n o d a l   p r i n t   o u t   f o r   t i m e  s t e p   45205                              ( at time 2.2599738E+01 )

 nodal point  x-disp     y-disp      z-disp      x-vel       y-vel       z-vel      x-accl      y-accl      z-accl      x-coor      y-coor      z-coor
    22626  4.56856E+00 5.03424E-01-2.11341E+01 2.67504E-01-9.71700E-02 4.45929E-01 1.69239E-02-2.43982E-02-5.11663E-03 5.25327E+01-2.15264E+01-1.37956E+01



 n o d a l   p r i n t   o u t   f o r   t i m e  s t e p   45205                              ( at time 2.2599738E+01 )

 nodal point  x-rot      y-rot       z-rot       x-rot vel   y-rot vel   z-rot vel   x-rot acc   y-rot acc   z-rot acc
    22626  2.52381E-01 1.51661E-01-6.97077E-02 1.79451E-02 8.03890E-03-5.99147E-03-1.27901E-04 1.83208E-04 4.28485E-04



 n o d a l   p r i n t   o u t   f o r   t i m e  s t e p   45405                              ( at time 2.2699728E+01 )

 nodal point  x-disp     y-disp      z-disp      x-vel       y-vel       z-vel      x-accl      y-accl      z-accl      x-coor      y-coor      z-coor
    22626  4.59540E+00 4.93626E-01-2.10895E+01 2.69316E-01-9.88399E-02 4.46082E-01 1.81227E-02-1.67002E-02 1.53171E-03 5.25596E+01-2.15362E+01-1.37510E+01



 n o d a l   p r i n t   o u t   f o r   t i m e  s t e p   45405                              ( at time 2.2699728E+01 )

 nodal point  x-rot      y-rot       z-rot       x-rot vel   y-rot vel   z-rot vel   x-rot acc   y-rot acc   z-rot acc
    22626  2.54175E-01 1.52465E-01-7.03048E-02 1.79425E-02 8.04788E-03-5.95607E-03-2.56887E-05 8.98081E-05 3.54016E-04



 n o d a l   p r i n t   o u t   f o r   t i m e  s t e p   45605                              ( at time 2.2799718E+01 )

 nodal point  x-disp     y-disp      z-disp      x-vel       y-vel       z-vel      x-accl      y-accl      z-accl      x-coor      y-coor      z-coor
    22626  4.62240E+00 4.83635E-01-2.10450E+01 2.70843E-01-1.01048E-01 4.46111E-01 1.52733E-02-2.20838E-02 2.87917E-04 5.25866E+01-2.15462E+01-1.37065E+01



 n o d a l   p r i n t   o u t   f o r   t i m e  s t e p   45605                              ( at time 2.2799718E+01 )

 nodal point  x-rot      y-rot       z-rot       x-rot vel   y-rot vel   z-rot vel   x-rot acc   y-rot acc   z-rot acc
    22626  2.55970E-01 1.53271E-01-7.08980E-02 1.79480E-02 8.06538E-03-5.91453E-03 5.47854E-05 1.75021E-04 4.15473E-04



 n o d a l   p r i n t   o u t   f o r   t i m e  s t e p   45805                              ( at time 2.2899708E+01 )

 nodal point  x-disp     y-disp      z-disp      x-vel       y-vel       z-vel      x-accl      y-accl      z-accl      x-coor      y-coor      z-coor
    22626  4.64955E+00 4.73441E-01-2.10004E+01 2.72186E-01-1.02948E-01 4.44965E-01 1.34227E-02-1.89990E-02-1.14612E-02 5.26137E+01-2.15563E+01-1.36619E+01



 n o d a l   p r i n t   o u t   f o r   t i m e  s t e p   45805                              ( at time 2.2899708E+01 )

 nodal point  x-rot      y-rot       z-rot       x-rot vel   y-rot vel   z-rot vel   x-rot acc   y-rot acc   z-rot acc
    22626  2.57764E-01 1.54078E-01-7.14870E-02 1.79372E-02 8.07834E-03-5.87128E-03-1.08306E-04 1.29571E-04 4.32577E-04



 n o d a l   p r i n t   o u t   f o r   t i m e  s t e p   46005                              ( at time 2.2999698E+01 )

 nodal point  x-disp     y-disp      z-disp      x-vel       y-vel       z-vel      x-accl      y-accl      z-accl      x-coor      y-coor      z-coor
    22626  4.67687E+00 4.63017E-01-2.09559E+01 2.74258E-01-1.05116E-01 4.44551E-01 2.07264E-02-2.16830E-02-4.14231E-03 5.26411E+01-2.15668E+01-1.36174E+01



 n o d a l   p r i n t   o u t   f o r   t i m e  s t e p   46005                              ( at time 2.2999698E+01 )

 nodal point  x-rot      y-rot       z-rot       x-rot vel   y-rot vel   z-rot vel   x-rot acc   y-rot acc   z-rot acc
    22626  2.59558E-01 1.54887E-01-7.20714E-02 1.79490E-02 8.08852E-03-5.82374E-03 1.18177E-04 1.01803E-04 4.75363E-04



 n o d a l   p r i n t   o u t   f o r   t i m e  s t e p   46205                              ( at time 2.3099688E+01 )

 nodal point  x-disp     y-disp      z-disp      x-vel       y-vel       z-vel      x-accl      y-accl      z-accl      x-coor      y-coor      z-coor
    22626  4.70437E+00 4.52387E-01-2.09115E+01 2.75819E-01-1.07430E-01 4.44127E-01 1.56095E-02-2.31488E-02-4.24402E-03 5.26685E+01-2.15774E+01-1.35730E+01



 n o d a l   p r i n t   o u t   f o r   t i m e  s t e p   46205                              ( at time 2.3099688E+01 )

 nodal point  x-rot      y-rot       z-rot       x-rot vel   y-rot vel   z-rot vel   x-rot acc   y-rot acc   z-rot acc
    22626  2.61353E-01 1.55696E-01-7.26516E-02 1.79618E-02 8.10693E-03-5.77936E-03 1.28723E-04 1.84199E-04 4.43945E-04



 n o d a l   p r i n t   o u t   f o r   t i m e  s t e p   46405                              ( at time 2.3199678E+01 )

 nodal point  x-disp     y-disp      z-disp      x-vel       y-vel       z-vel      x-accl      y-accl      z-accl      x-coor      y-coor      z-coor
    22626  4.73202E+00 4.41554E-01-2.08672E+01 2.77458E-01-1.09544E-01 4.42825E-01 1.63934E-02-2.11344E-02-1.30191E-02 5.26962E+01-2.15882E+01-1.35287E+01



 n o d a l   p r i n t   o u t   f o r   t i m e  s t e p   46405                              ( at time 2.3199678E+01 )

 nodal point  x-rot      y-rot       z-rot       x-rot vel   y-rot vel   z-rot vel   x-rot acc   y-rot acc   z-rot acc
    22626  2.63149E-01 1.56507E-01-7.32279E-02 1.79639E-02 8.11581E-03-5.74248E-03 2.06773E-05 8.87818E-05 3.68791E-04



 n o d a l   p r i n t   o u t   f o r   t i m e  s t e p   46605                              ( at time 2.3299668E+01 )

 nodal point  x-disp     y-disp      z-disp      x-vel       y-vel       z-vel      x-accl      y-accl      z-accl      x-coor      y-coor      z-coor
    22626  4.75983E+00 4.30511E-01-2.08229E+01 2.78662E-01-1.11041E-01 4.41846E-01 1.20415E-02-1.49788E-02-9.78578E-03 5.27240E+01-2.15993E+01-1.34844E+01



 n o d a l   p r i n t   o u t   f o r   t i m e  s t e p   46605                              ( at time 2.3299668E+01 )

 nodal point  x-rot      y-rot       z-rot       x-rot vel   y-rot vel   z-rot vel   x-rot acc   y-rot acc   z-rot acc
    22626  2.64946E-01 1.57319E-01-7.37996E-02 1.79743E-02 8.12517E-03-5.69852E-03 1.03724E-04 9.35896E-05 4.39628E-04



 n o d a l   p r i n t   o u t   f o r   t i m e  s t e p   46805                              ( at time 2.3399658E+01 )

 nodal point  x-disp     y-disp      z-disp      x-vel       y-vel       z-vel      x-accl      y-accl      z-accl      x-coor      y-coor      z-coor
    22626  4.78780E+00 4.19336E-01-2.07788E+01 2.80289E-01-1.12616E-01 4.41156E-01 1.62750E-02-1.57475E-02-6.90225E-03 5.27520E+01-2.16105E+01-1.34403E+01



 n o d a l   p r i n t   o u t   f o r   t i m e  s t e p   46805                              ( at time 2.3399658E+01 )

 nodal point  x-rot      y-rot       z-rot       x-rot vel   y-rot vel   z-rot vel   x-rot acc   y-rot acc   z-rot acc
    22626  2.66744E-01 1.58132E-01-7.43672E-02 1.79921E-02 8.13236E-03-5.65866E-03 1.78141E-04 7.19326E-05 3.98633E-04



 n o d a l   p r i n t   o u t   f o r   t i m e  s t e p   47005                              ( at time 2.3499648E+01 )

 nodal point  x-disp     y-disp      z-disp      x-vel       y-vel       z-vel      x-accl      y-accl      z-accl      x-coor      y-coor      z-coor
    22626  4.81590E+00 4.07959E-01-2.07347E+01 2.81894E-01-1.14494E-01 4.39655E-01 1.60458E-02-1.87836E-02-1.50146E-02 5.27801E+01-2.16218E+01-1.33962E+01



 n o d a l   p r i n t   o u t   f o r   t i m e  s t e p   47005                              ( at time 2.3499648E+01 )

 nodal point  x-rot      y-rot       z-rot       x-rot vel   y-rot vel   z-rot vel   x-rot acc   y-rot acc   z-rot acc
    22626  2.68545E-01 1.58946E-01-7.49311E-02 1.80104E-02 8.14313E-03-5.61852E-03 1.83338E-04 1.07652E-04 4.01497E-04



 n o d a l   p r i n t   o u t   f o r   t i m e  s t e p   47205                              ( at time 2.3599638E+01 )

 nodal point  x-disp     y-disp      z-disp      x-vel       y-vel       z-vel      x-accl      y-accl      z-accl      x-coor      y-coor      z-coor
    22626  4.84415E+00 3.96445E-01-2.06908E+01 2.83354E-01-1.15978E-01 4.38315E-01 1.46000E-02-1.48359E-02-1.33958E-02 5.28083E+01-2.16333E+01-1.33523E+01



 n o d a l   p r i n t   o u t   f o r   t i m e  s t e p   47205                              ( at time 2.3599638E+01 )

 nodal point  x-rot      y-rot       z-rot       x-rot vel   y-rot vel   z-rot vel   x-rot acc   y-rot acc   z-rot acc
    22626  2.70345E-01 1.59760E-01-7.54912E-02 1.80155E-02 8.14912E-03-5.57931E-03 5.07627E-05 5.99000E-05 3.92149E-04



 n o d a l   p r i n t   o u t   f o r   t i m e  s t e p   47405                              ( at time 2.3699628E+01 )

 nodal point  x-disp     y-disp      z-disp      x-vel       y-vel       z-vel      x-accl      y-accl      z-accl      x-coor      y-coor      z-coor
    22626  4.87254E+00 3.84813E-01-2.06471E+01 2.84771E-01-1.16580E-01 4.37480E-01 1.41720E-02-6.01973E-03-8.35853E-03 5.28367E+01-2.16450E+01-1.33086E+01



 n o d a l   p r i n t   o u t   f o r   t i m e  s t e p   47405                              ( at time 2.3699628E+01 )

 nodal point  x-rot      y-rot       z-rot       x-rot vel   y-rot vel   z-rot vel   x-rot acc   y-rot acc   z-rot acc
    22626  2.72148E-01 1.60575E-01-7.60474E-02 1.80411E-02 8.15637E-03-5.54937E-03 2.56100E-04 7.25660E-05 2.99420E-04



 n o d a l   p r i n t   o u t   f o r   t i m e  s t e p   47605                              ( at time 2.3799618E+01 )

 nodal point  x-disp     y-disp      z-disp      x-vel       y-vel       z-vel      x-accl      y-accl      z-accl      x-coor      y-coor      z-coor
    22626  4.90104E+00 3.73092E-01-2.06034E+01 2.85401E-01-1.17567E-01 4.35624E-01 6.30597E-03-9.87699E-03-1.85582E-02 5.28652E+01-2.16567E+01-1.32649E+01



 n o d a l   p r i n t   o u t   f o r   t i m e  s t e p   47605                              ( at time 2.3799618E+01 )

 nodal point  x-rot      y-rot       z-rot       x-rot vel   y-rot vel   z-rot vel   x-rot acc   y-rot acc   z-rot acc
    22626  2.73953E-01 1.61391E-01-7.66006E-02 1.80528E-02 8.16354E-03-5.52158E-03 1.17248E-04 7.16359E-05 2.77933E-04



 n o d a l   p r i n t   o u t   f o r   t i m e  s t e p   47805                              ( at time 2.3899608E+01 )

 nodal point  x-disp     y-disp      z-disp      x-vel       y-vel       z-vel      x-accl      y-accl      z-accl      x-coor      y-coor      z-coor
    22626  4.92965E+00 3.61321E-01-2.05599E+01 2.86476E-01-1.17830E-01 4.33942E-01 1.07489E-02-2.62955E-03-1.68226E-02 5.28938E+01-2.16685E+01-1.32214E+01



 n o d a l   p r i n t   o u t   f o r   t i m e  s t e p   47805                              ( at time 2.3899608E+01 )

 nodal point  x-rot      y-rot       z-rot       x-rot vel   y-rot vel   z-rot vel   x-rot acc   y-rot acc   z-rot acc
    22626  2.75759E-01 1.62207E-01-7.71507E-02 1.80712E-02 8.16133E-03-5.48553E-03 1.83413E-04-2.20092E-05 3.60501E-04



 n o d a l   p r i n t   o u t   f o r   t i m e  s t e p   48005                              ( at time 2.3999598E+01 )

 nodal point  x-disp     y-disp      z-disp      x-vel       y-vel       z-vel      x-accl      y-accl      z-accl      x-coor      y-coor      z-coor
    22626  4.95836E+00 3.49531E-01-2.05166E+01 2.87632E-01-1.18093E-01 4.32259E-01 1.15643E-02-2.63258E-03-1.68348E-02 5.29225E+01-2.16803E+01-1.31781E+01



 n o d a l   p r i n t   o u t   f o r   t i m e  s t e p   48005                              ( at time 2.3999598E+01 )

 nodal point  x-rot      y-rot       z-rot       x-rot vel   y-rot vel   z-rot vel   x-rot acc   y-rot acc   z-rot acc
    22626  2.77567E-01 1.63024E-01-7.76981E-02 1.81048E-02 8.16514E-03-5.46209E-03 3.35909E-04 3.80115E-05 2.34426E-04



 n o d a l   p r i n t   o u t   f o r   t i m e  s t e p   48205                              ( at time 2.4099588E+01 )

 nodal point  x-disp     y-disp      z-disp      x-vel       y-vel       z-vel      x-accl      y-accl      z-accl      x-coor      y-coor      z-coor
    22626  4.98714E+00 3.37737E-01-2.04735E+01 2.88200E-01-1.17612E-01 4.30351E-01 5.68054E-03 4.81143E-03-1.90770E-02 5.29513E+01-2.16921E+01-1.31350E+01



 n o d a l   p r i n t   o u t   f o r   t i m e  s t e p   48205                              ( at time 2.4099588E+01 )

 nodal point  x-rot      y-rot       z-rot       x-rot vel   y-rot vel   z-rot vel   x-rot acc   y-rot acc   z-rot acc
    22626  2.79378E-01 1.63840E-01-7.82433E-02 1.81213E-02 8.15976E-03-5.44055E-03 1.65213E-04-5.37515E-05 2.15453E-04



 n o d a l   p r i n t   o u t   f o r   t i m e  s t e p   48405                              ( at time 2.4199578E+01 )

 nodal point  x-disp     y-disp      z-disp      x-vel       y-vel       z-vel      x-accl      y-accl      z-accl      x-coor      y-coor      z-coor
    22626  5.01598E+00 3.26017E-01-2.04306E+01 2.88586E-01-1.16837E-01 4.27924E-01 3.85923E-03 7.74916E-03-2.42779E-02 5.29802E+01-2.17038E+01-1.30921E+01



 n o d a l   p r i n t   o u t   f o r   t i m e  s t e p   48405                              ( at time 2.4199578E+01 )

 nodal point  x-rot      y-rot       z-rot       x-rot vel   y-rot vel   z-rot vel   x-rot acc   y-rot acc   z-rot acc
    22626  2.81191E-01 1.64656E-01-7.87865E-02 1.81438E-02 8.16105E-03-5.42328E-03 2.25293E-04 1.29468E-05 1.72630E-04



 n o d a l   p r i n t   o u t   f o r   t i m e  s t e p   48605                              ( at time 2.4299568E+01 )

 nodal point  x-disp     y-disp      z-disp      x-vel       y-vel       z-vel      x-accl      y-accl      z-accl      x-coor      y-coor      z-coor
    22626  5.04485E+00 3.14383E-01-2.03879E+01 2.88861E-01-1.15754E-01 4.26116E-01 2.75220E-03 1.08343E-02-1.80789E-02 5.30090E+01-2.17154E+01-1.30494E+01



 n o d a l   p r i n t   o u t   f o r   t i m e  s t e p   48605                              ( at time 2.4299568E+01 )

 nodal point  x-rot      y-rot       z-rot       x-rot vel   y-rot vel   z-rot vel   x-rot acc   y-rot acc   z-rot acc
    22626  2.83007E-01 1.65472E-01-7.93278E-02 1.81704E-02 8.15971E-03-5.40823E-03 2.65880E-04-1.34495E-05 1.50571E-04



 n o d a l   p r i n t   o u t   f o r   t i m e  s t e p   48805                              ( at time 2.4399558E+01 )

 nodal point  x-disp     y-disp      z-disp      x-vel       y-vel       z-vel      x-accl      y-accl      z-accl      x-coor      y-coor      z-coor
    22626  5.07377E+00 3.02865E-01-2.03454E+01 2.89477E-01-1.14511E-01 4.23576E-01 6.15594E-03 1.24287E-02-2.53966E-02 5.30380E+01-2.17269E+01-1.30069E+01



 n o d a l   p r i n t   o u t   f o r   t i m e  s t e p   48805                              ( at time 2.4399558E+01 )

 nodal point  x-rot      y-rot       z-rot       x-rot vel   y-rot vel   z-rot vel   x-rot acc   y-rot acc   z-rot acc
    22626  2.84825E-01 1.66287E-01-7.98679E-02 1.81972E-02 8.15210E-03-5.39854E-03 2.67724E-04-7.61240E-05 9.68757E-05



 n o d a l   p r i n t   o u t   f o r   t i m e  s t e p   49006                              ( at time 2.4500048E+01 )

 nodal point  x-disp     y-disp      z-disp      x-vel       y-vel       z-vel      x-accl      y-accl      z-accl      x-coor      y-coor      z-coor
    22626  5.10282E+00 2.91424E-01-2.03029E+01 2.89123E-01-1.13084E-01 4.21632E-01-3.52152E-03 1.42072E-02-1.93473E-02 5.30670E+01-2.17384E+01-1.29644E+01



 n o d a l   p r i n t   o u t   f o r   t i m e  s t e p   49006                              ( at time 2.4500048E+01 )

 nodal point  x-rot      y-rot       z-rot       x-rot vel   y-rot vel   z-rot vel   x-rot acc   y-rot acc   z-rot acc
    22626  2.86655E-01 1.67107E-01-8.04098E-02 1.82200E-02 8.15133E-03-5.38640E-03 2.27157E-04-7.69239E-06 1.20840E-04



 n o d a l   p r i n t   o u t   f o r   t i m e  s t e p   49206                              ( at time 2.4600038E+01 )

 nodal point  x-disp     y-disp      z-disp      x-vel       y-vel       z-vel      x-accl      y-accl      z-accl      x-coor      y-coor      z-coor
    22626  5.13173E+00 2.80222E-01-2.02609E+01 2.89154E-01-1.11149E-01 4.19367E-01 3.06396E-04 1.93513E-02-2.26560E-02 5.30959E+01-2.17496E+01-1.29224E+01



 n o d a l   p r i n t   o u t   f o r   t i m e  s t e p   49206                              ( at time 2.4600038E+01 )

 nodal point  x-rot      y-rot       z-rot       x-rot vel   y-rot vel   z-rot vel   x-rot acc   y-rot acc   z-rot acc
    22626  2.88477E-01 1.67921E-01-8.09481E-02 1.82384E-02 8.14737E-03-5.38127E-03 1.84232E-04-3.95662E-05 5.12461E-05



 n o d a l   p r i n t   o u t   f o r   t i m e  s t e p   49406                              ( at time 2.4700028E+01 )

 nodal point  x-disp     y-disp      z-disp      x-vel       y-vel       z-vel      x-accl      y-accl      z-accl      x-coor      y-coor      z-coor
    22626  5.16063E+00 2.69210E-01-2.02191E+01 2.88687E-01-1.09059E-01 4.17195E-01-4.66816E-03 2.08981E-02-2.17158E-02 5.31248E+01-2.17606E+01-1.28806E+01



 n o d a l   p r i n t   o u t   f o r   t i m e  s t e p   49406                              ( at time 2.4700028E+01 )

 nodal point  x-rot      y-rot       z-rot       x-rot vel   y-rot vel   z-rot vel   x-rot acc   y-rot acc   z-rot acc
    22626  2.90302E-01 1.68736E-01-8.14859E-02 1.82551E-02 8.13728E-03-5.38023E-03 1.66967E-04-1.00855E-04 1.04087E-05



 n o d a l   p r i n t   o u t   f o r   t i m e  s t e p   49606                              ( at time 2.4800018E+01 )

 nodal point  x-disp     y-disp      z-disp      x-vel       y-vel       z-vel      x-accl      y-accl      z-accl      x-coor      y-coor      z-coor
    22626  5.18949E+00 2.58403E-01-2.01775E+01 2.88353E-01-1.07121E-01 4.14920E-01-3.34174E-03 1.93863E-02-2.27600E-02 5.31537E+01-2.17714E+01-1.28390E+01



 n o d a l   p r i n t   o u t   f o r   t i m e  s t e p   49606                              ( at time 2.4800018E+01 )

 nodal point  x-rot      y-rot       z-rot       x-rot vel   y-rot vel   z-rot vel   x-rot acc   y-rot acc   z-rot acc
    22626  2.92129E-01 1.69549E-01-8.20238E-02 1.82800E-02 8.13587E-03-5.37742E-03 2.48667E-04-1.41574E-05 2.81006E-05



 n o d a l   p r i n t   o u t   f o r   t i m e  s t e p   49806                              ( at time 2.4900008E+01 )

 nodal point  x-disp     y-disp      z-disp      x-vel       y-vel       z-vel      x-accl      y-accl      z-accl      x-coor      y-coor      z-coor
    22626  5.21830E+00 2.47799E-01-2.01361E+01 2.88016E-01-1.04914E-01 4.12436E-01-3.37191E-03 2.20648E-02-2.48397E-02 5.31825E+01-2.17820E+01-1.27976E+01



 n o d a l   p r i n t   o u t   f o r   t i m e  s t e p   49806                              ( at time 2.4900008E+01 )

 nodal point  x-rot      y-rot       z-rot       x-rot vel   y-rot vel   z-rot vel   x-rot acc   y-rot acc   z-rot acc
    22626  2.93957E-01 1.70362E-01-8.25615E-02 1.83004E-02 8.12794E-03-5.37843E-03 2.04392E-04-7.93481E-05-1.00594E-05



 n o d a l   p r i n t   o u t   f o r   t i m e  s t e p   50006                              ( at time 2.4999998E+01 )

 nodal point  x-disp     y-disp      z-disp      x-vel       y-vel       z-vel      x-accl      y-accl      z-accl      x-coor      y-coor      z-coor
    22626  5.24706E+00 2.37400E-01-2.00950E+01 2.87271E-01-1.02990E-01 4.10124E-01-7.44858E-03 1.92440E-02-2.31174E-02 5.32112E+01-2.17924E+01-1.27565E+01



 n o d a l   p r i n t   o u t   f o r   t i m e  s t e p   50006                              ( at time 2.4999998E+01 )

 nodal point  x-rot      y-rot       z-rot       x-rot vel   y-rot vel   z-rot vel   x-rot acc   y-rot acc   z-rot acc
    22626  2.95789E-01 1.71174E-01-8.30995E-02 1.83275E-02 8.11498E-03-5.38281E-03 2.70947E-04-1.29605E-04-4.38227E-05
