 LSTC 50th% Full_FE H-III Dummy (Beta Version, February 17, 2019)        
                    ls-dyna smp s R16 R16.0_619_d222963 date 03/18/2025

{BEGIN LEGEND}
 Entity #        Title
    22626                                                                                     
{END LEGEND}




 n o d a l   p r i n t   o u t   f o r   t i m e  s t e p       1                              ( at time 0.0000000E+00 )

 nodal point  x-disp     y-disp      z-disp      x-vel       y-vel       z-vel      x-accl      y-accl      z-accl      x-coor      y-coor      z-coor
    22626  0.00000E+00 0.00000E+00 0.00000E+00 0.00000E+00 0.00000E+00 0.00000E+00 0.00000E+00 0.00000E+00 0.00000E+00 4.65938E+00-2.81908E+01-4.49817E+01



 n o d a l   p r i n t   o u t   f o r   t i m e  s t e p       1                              ( at time 0.0000000E+00 )

 nodal point  x-rot      y-rot       z-rot       x-rot vel   y-rot vel   z-rot vel   x-rot acc   y-rot acc   z-rot acc
    22626  0.00000E+00 0.00000E+00 0.00000E+00 0.00000E+00 0.00000E+00 0.00000E+00 0.00000E+00 0.00000E+00 0.00000E+00



 n o d a l   p r i n t   o u t   f o r   t i m e  s t e p     201                              ( at time 9.9989993E-02 )

 nodal point  x-disp     y-disp      z-disp      x-vel       y-vel       z-vel      x-accl      y-accl      z-accl      x-coor      y-coor      z-coor
    22626  2.73652E-07 1.73562E-06-5.34266E-05 4.19774E-05 2.55500E-04-1.46807E-03 4.19816E-04 2.55526E-03-1.46822E-02 4.65938E+00-2.81908E+01-4.49818E+01



 n o d a l   p r i n t   o u t   f o r   t i m e  s t e p     201                              ( at time 9.9989993E-02 )

 nodal point  x-rot      y-rot       z-rot       x-rot vel   y-rot vel   z-rot vel   x-rot acc   y-rot acc   z-rot acc
    22626 -5.99210E-08-8.39317E-09-5.46712E-09-5.87059E-06-9.70456E-07-9.27758E-07-5.87118E-05-9.70553E-06-9.27851E-06



 n o d a l   p r i n t   o u t   f o r   t i m e  s t e p     401                              ( at time 1.9997999E-01 )

 nodal point  x-disp     y-disp      z-disp      x-vel       y-vel       z-vel      x-accl      y-accl      z-accl      x-coor      y-coor      z-coor
    22626  1.73137E-05 3.61706E-04-6.67538E-04 3.14557E-05 7.80976E-03-1.21508E-02-1.05227E-04 7.55502E-02-1.06838E-01 4.65939E+00-2.81905E+01-4.49824E+01



 n o d a l   p r i n t   o u t   f o r   t i m e  s t e p     401                              ( at time 1.9997999E-01 )

 nodal point  x-rot      y-rot       z-rot       x-rot vel   y-rot vel   z-rot vel   x-rot acc   y-rot acc   z-rot acc
    22626 -2.82057E-06-3.37386E-07-3.34803E-07-3.93732E-05-1.77440E-06-2.30814E-06-3.35060E-04-8.04029E-06-1.38052E-05



 n o d a l   p r i n t   o u t   f o r   t i m e  s t e p     601                              ( at time 2.9996998E-01 )

 nodal point  x-disp     y-disp      z-disp      x-vel       y-vel       z-vel      x-accl      y-accl      z-accl      x-coor      y-coor      z-coor
    22626  2.73883E-05 1.23910E-03-2.33767E-03 4.20426E-04 8.42221E-03-1.92376E-02 3.89010E-03 6.12509E-03-7.08752E-02 4.65940E+00-2.81896E+01-4.49841E+01



 n o d a l   p r i n t   o u t   f o r   t i m e  s t e p     601                              ( at time 2.9996998E-01 )

 nodal point  x-rot      y-rot       z-rot       x-rot vel   y-rot vel   z-rot vel   x-rot acc   y-rot acc   z-rot acc
    22626 -5.39022E-06-3.90686E-07-6.42141E-07-1.54364E-05-5.53562E-06-6.72250E-06 2.39392E-04-3.76160E-05-4.41481E-05



 n o d a l   p r i n t   o u t   f o r   t i m e  s t e p     801                              ( at time 3.9995997E-01 )

 nodal point  x-disp     y-disp      z-disp      x-vel       y-vel       z-vel      x-accl      y-accl      z-accl      x-coor      y-coor      z-coor
    22626  2.60597E-05 2.15559E-03-4.27979E-03-3.15840E-04 1.06405E-02-2.10568E-02-7.36340E-03 2.21847E-02-1.81935E-02 4.65940E+00-2.81887E+01-4.49860E+01



 n o d a l   p r i n t   o u t   f o r   t i m e  s t e p     801                              ( at time 3.9995997E-01 )

 nodal point  x-rot      y-rot       z-rot       x-rot vel   y-rot vel   z-rot vel   x-rot acc   y-rot acc   z-rot acc
    22626 -7.56744E-06-1.25193E-06-9.77698E-07-4.35596E-05-6.20496E-06-1.41362E-06-2.81259E-04-6.69409E-06 5.30941E-05



 n o d a l   p r i n t   o u t   f o r   t i m e  s t e p    1001                              ( at time 4.9994997E-01 )

 nodal point  x-disp     y-disp      z-disp      x-vel       y-vel       z-vel      x-accl      y-accl      z-accl      x-coor      y-coor      z-coor
    22626  3.38745E-06 3.41565E-03-6.73525E-03-2.53103E-04 1.39773E-02-2.85773E-02 6.27432E-04 3.33713E-02-7.52123E-02 4.65938E+00-2.81874E+01-4.49885E+01



 n o d a l   p r i n t   o u t   f o r   t i m e  s t e p    1001                              ( at time 4.9994997E-01 )

 nodal point  x-rot      y-rot       z-rot       x-rot vel   y-rot vel   z-rot vel   x-rot acc   y-rot acc   z-rot acc
    22626 -1.32191E-05-1.18151E-06-9.25667E-07-7.99888E-05 2.82983E-06 4.52542E-06-3.64329E-04 9.03570E-05 5.93963E-05



 n o d a l   p r i n t   o u t   f o r   t i m e  s t e p    1201                              ( at time 5.9993996E-01 )

 nodal point  x-disp     y-disp      z-disp      x-vel       y-vel       z-vel      x-accl      y-accl      z-accl      x-coor      y-coor      z-coor
    22626 -2.70395E-06 4.96395E-03-9.69120E-03 3.30973E-05 1.63043E-02-3.08531E-02 2.86229E-03 2.32729E-02-2.27603E-02 4.65937E+00-2.81859E+01-4.49914E+01



 n o d a l   p r i n t   o u t   f o r   t i m e  s t e p    1201                              ( at time 5.9993996E-01 )

 nodal point  x-rot      y-rot       z-rot       x-rot vel   y-rot vel   z-rot vel   x-rot acc   y-rot acc   z-rot acc
    22626 -1.94724E-05-9.28975E-07-8.75131E-07-5.31737E-05 3.61154E-06-1.35959E-06 2.68178E-04 7.81785E-06-5.88560E-05



 n o d a l   p r i n t   o u t   f o r   t i m e  s t e p    1401                              ( at time 6.9992995E-01 )

 nodal point  x-disp     y-disp      z-disp      x-vel       y-vel       z-vel      x-accl      y-accl      z-accl      x-coor      y-coor      z-coor
    22626 -5.29143E-05 6.76041E-03-1.31351E-02-4.79035E-04 1.92587E-02-3.88367E-02-5.12184E-03 2.95473E-02-7.98445E-02 4.65932E+00-2.81841E+01-4.49949E+01



 n o d a l   p r i n t   o u t   f o r   t i m e  s t e p    1401                              ( at time 6.9992995E-01 )

 nodal point  x-rot      y-rot       z-rot       x-rot vel   y-rot vel   z-rot vel   x-rot acc   y-rot acc   z-rot acc
    22626 -2.46411E-05-9.79534E-07-4.86367E-07-6.15860E-05-4.13561E-07 4.45844E-06-8.41313E-05-4.02550E-05 5.81862E-05



 n o d a l   p r i n t   o u t   f o r   t i m e  s t e p    1601                              ( at time 7.9991994E-01 )

 nodal point  x-disp     y-disp      z-disp      x-vel       y-vel       z-vel      x-accl      y-accl      z-accl      x-coor      y-coor      z-coor
    22626 -8.19553E-05 8.84566E-03-1.74025E-02-4.92519E-04 2.15285E-02-4.47127E-02-1.34849E-04 2.26998E-02-5.87652E-02 4.65929E+00-2.81820E+01-4.49991E+01



 n o d a l   p r i n t   o u t   f o r   t i m e  s t e p    1601                              ( at time 7.9991994E-01 )

 nodal point  x-rot      y-rot       z-rot       x-rot vel   y-rot vel   z-rot vel   x-rot acc   y-rot acc   z-rot acc
    22626 -3.16718E-05-1.06618E-06-3.00925E-07-7.73903E-05-5.98162E-06 2.28022E-06-1.58059E-04-5.56862E-05-2.17844E-05



 n o d a l   p r i n t   o u t   f o r   t i m e  s t e p    1801                              ( at time 8.9990994E-01 )

 nodal point  x-disp     y-disp      z-disp      x-vel       y-vel       z-vel      x-accl      y-accl      z-accl      x-coor      y-coor      z-coor
    22626 -1.17473E-04 1.10330E-02-2.18816E-02-2.85929E-04 2.30803E-02-4.50933E-02 2.06611E-03 1.55196E-02-3.80666E-03 4.65926E+00-2.81798E+01-4.50036E+01



 n o d a l   p r i n t   o u t   f o r   t i m e  s t e p    1801                              ( at time 8.9990994E-01 )

 nodal point  x-rot      y-rot       z-rot       x-rot vel   y-rot vel   z-rot vel   x-rot acc   y-rot acc   z-rot acc
    22626 -3.83052E-05-1.24132E-06-2.09255E-07-6.16571E-05 5.62070E-07 4.55295E-07 1.57348E-04 6.54435E-05-1.82511E-05



 n o d a l   p r i n t   o u t   f o r   t i m e  s t e p    2001                              ( at time 9.9989993E-01 )

 nodal point  x-disp     y-disp      z-disp      x-vel       y-vel       z-vel      x-accl      y-accl      z-accl      x-coor      y-coor      z-coor
    22626 -1.49889E-04 1.34635E-02-2.65682E-02 1.71490E-05 2.53446E-02-4.94111E-02 3.03108E-03 2.26453E-02-4.31828E-02 4.65922E+00-2.81774E+01-4.50083E+01



 n o d a l   p r i n t   o u t   f o r   t i m e  s t e p    2001                              ( at time 9.9989993E-01 )

 nodal point  x-rot      y-rot       z-rot       x-rot vel   y-rot vel   z-rot vel   x-rot acc   y-rot acc   z-rot acc
    22626 -4.50082E-05-1.40746E-06-3.02812E-08-8.00276E-05-1.48465E-06-2.36442E-06-1.83724E-04-2.04692E-05-2.81999E-05



 n o d a l   p r i n t   o u t   f o r   t i m e  s t e p    2201                              ( at time 1.0998899E+00 )

 nodal point  x-disp     y-disp      z-disp      x-vel       y-vel       z-vel      x-accl      y-accl      z-accl      x-coor      y-coor      z-coor
    22626 -1.57230E-04 1.60782E-02-3.18259E-02-3.48904E-04 2.75050E-02-5.53710E-02-3.66090E-03 2.16063E-02-5.96043E-02 4.65922E+00-2.81748E+01-4.50135E+01



 n o d a l   p r i n t   o u t   f o r   t i m e  s t e p    2201                              ( at time 1.0998899E+00 )

 nodal point  x-rot      y-rot       z-rot       x-rot vel   y-rot vel   z-rot vel   x-rot acc   y-rot acc   z-rot acc
    22626 -5.30786E-05-1.80114E-06-2.46388E-07-6.86136E-05-1.03837E-05-5.39960E-07 1.14152E-04-8.89999E-05 1.82464E-05



 n o d a l   p r i n t   o u t   f o r   t i m e  s t e p    2401                              ( at time 1.1998799E+00 )

 nodal point  x-disp     y-disp      z-disp      x-vel       y-vel       z-vel      x-accl      y-accl      z-accl      x-coor      y-coor      z-coor
    22626 -1.83499E-04 1.88733E-02-3.76203E-02-1.58544E-04 2.86113E-02-6.01748E-02 1.90379E-03 1.10637E-02-4.80428E-02 4.65919E+00-2.81720E+01-4.50193E+01



 n o d a l   p r i n t   o u t   f o r   t i m e  s t e p    2401                              ( at time 1.1998799E+00 )

 nodal point  x-rot      y-rot       z-rot       x-rot vel   y-rot vel   z-rot vel   x-rot acc   y-rot acc   z-rot acc
    22626 -5.92638E-05-2.70381E-06-3.53050E-07-5.92750E-05-1.02493E-05-1.71624E-06 9.33951E-05 1.34442E-06-1.17640E-05



 n o d a l   p r i n t   o u t   f o r   t i m e  s t e p    2601                              ( at time 1.2998699E+00 )

 nodal point  x-disp     y-disp      z-disp      x-vel       y-vel       z-vel      x-accl      y-accl      z-accl      x-coor      y-coor      z-coor
    22626 -2.12156E-04 2.18418E-02-4.37739E-02-1.84318E-04 3.06277E-02-6.27291E-02-2.57761E-04 2.01660E-02-2.55464E-02 4.65916E+00-2.81690E+01-4.50255E+01



 n o d a l   p r i n t   o u t   f o r   t i m e  s t e p    2601                              ( at time 1.2998699E+00 )

 nodal point  x-rot      y-rot       z-rot       x-rot vel   y-rot vel   z-rot vel   x-rot acc   y-rot acc   z-rot acc
    22626 -6.56181E-05-3.58110E-06-5.03831E-07-7.77123E-05-4.10271E-06-4.62701E-07-1.84391E-04 6.14721E-05 1.25367E-05



 n o d a l   p r i n t   o u t   f o r   t i m e  s t e p    2801                              ( at time 1.3998599E+00 )

 nodal point  x-disp     y-disp      z-disp      x-vel       y-vel       z-vel      x-accl      y-accl      z-accl      x-coor      y-coor      z-coor
    22626 -2.35886E-04 2.50015E-02-5.01399E-02-3.98027E-04 3.23083E-02-6.52488E-02-2.13731E-03 1.68083E-02-2.51987E-02 4.65914E+00-2.81658E+01-4.50319E+01



 n o d a l   p r i n t   o u t   f o r   t i m e  s t e p    2801                              ( at time 1.3998599E+00 )

 nodal point  x-rot      y-rot       z-rot       x-rot vel   y-rot vel   z-rot vel   x-rot acc   y-rot acc   z-rot acc
    22626 -7.33727E-05-3.93876E-06-4.21210E-07-7.57170E-05-5.54805E-06 3.74889E-06 1.99543E-05-1.44548E-05 4.21201E-05



 n o d a l   p r i n t   o u t   f o r   t i m e  s t e p    3001                              ( at time 1.4998499E+00 )

 nodal point  x-disp     y-disp      z-disp      x-vel       y-vel       z-vel      x-accl      y-accl      z-accl      x-coor      y-coor      z-coor
    22626 -2.75034E-04 2.83702E-02-5.70074E-02-3.86771E-04 3.48946E-02-7.24606E-02 1.12575E-04 2.58657E-02-7.21252E-02 4.65910E+00-2.81625E+01-4.50387E+01



 n o d a l   p r i n t   o u t   f o r   t i m e  s t e p    3001                              ( at time 1.4998499E+00 )

 nodal point  x-rot      y-rot       z-rot       x-rot vel   y-rot vel   z-rot vel   x-rot acc   y-rot acc   z-rot acc
    22626 -8.01737E-05-4.51104E-06-1.84997E-07-5.89913E-05-6.95806E-06-6.36221E-07 1.67274E-04-1.41015E-05-4.38555E-05



 n o d a l   p r i n t   o u t   f o r   t i m e  s t e p    3201                              ( at time 1.5998399E+00 )

 nodal point  x-disp     y-disp      z-disp      x-vel       y-vel       z-vel      x-accl      y-accl      z-accl      x-coor      y-coor      z-coor
    22626 -3.30344E-04 3.20242E-02-6.45533E-02-4.93630E-04 3.80113E-02-7.76503E-02-1.06869E-03 3.11700E-02-5.19027E-02 4.65904E+00-2.81588E+01-4.50463E+01



 n o d a l   p r i n t   o u t   f o r   t i m e  s t e p    3201                              ( at time 1.5998399E+00 )

 nodal point  x-rot      y-rot       z-rot       x-rot vel   y-rot vel   z-rot vel   x-rot acc   y-rot acc   z-rot acc
    22626 -8.53369E-05-5.23227E-06 8.04047E-08-5.42847E-05-9.02581E-06 4.15479E-06 4.70711E-05-2.06795E-05 4.79149E-05



 n o d a l   p r i n t   o u t   f o r   t i m e  s t e p    3401                              ( at time 1.6998299E+00 )

 nodal point  x-disp     y-disp      z-disp      x-vel       y-vel       z-vel      x-accl      y-accl      z-accl      x-coor      y-coor      z-coor
    22626 -3.82332E-04 3.59015E-02-7.24756E-02-6.19661E-04 3.93583E-02-8.04144E-02-1.26044E-03 1.34711E-02-2.76440E-02 4.65899E+00-2.81549E+01-4.50542E+01



 n o d a l   p r i n t   o u t   f o r   t i m e  s t e p    3401                              ( at time 1.6998299E+00 )

 nodal point  x-rot      y-rot       z-rot       x-rot vel   y-rot vel   z-rot vel   x-rot acc   y-rot acc   z-rot acc
    22626 -9.11720E-05-5.87164E-06 4.44765E-07-5.93912E-05-5.15115E-06 5.87097E-06-5.10708E-05 3.87504E-05 1.71635E-05



 n o d a l   p r i n t   o u t   f o r   t i m e  s t e p    3601                              ( at time 1.7998199E+00 )

 nodal point  x-disp     y-disp      z-disp      x-vel       y-vel       z-vel      x-accl      y-accl      z-accl      x-coor      y-coor      z-coor
    22626 -4.37113E-04 3.98679E-02-8.06283E-02-4.37894E-04 4.04097E-02-8.25434E-02 1.81784E-03 1.05153E-02-2.12914E-02 4.65894E+00-2.81510E+01-4.50623E+01



 n o d a l   p r i n t   o u t   f o r   t i m e  s t e p    3601                              ( at time 1.7998199E+00 )

 nodal point  x-rot      y-rot       z-rot       x-rot vel   y-rot vel   z-rot vel   x-rot acc   y-rot acc   z-rot acc
    22626 -9.71375E-05-6.54435E-06 7.28630E-07-5.42045E-05-6.54110E-06 8.03425E-08 5.18719E-05-1.39009E-05-5.79121E-05



 n o d a l   p r i n t   o u t   f o r   t i m e  s t e p    3801                              ( at time 1.8998099E+00 )

 nodal point  x-disp     y-disp      z-disp      x-vel       y-vel       z-vel      x-accl      y-accl      z-accl      x-coor      y-coor      z-coor
    22626 -4.82394E-04 4.40615E-02-8.90642E-02-3.28585E-04 4.32723E-02-8.63888E-02 1.09320E-03 2.86285E-02-3.84582E-02 4.65889E+00-2.81468E+01-4.50708E+01



 n o d a l   p r i n t   o u t   f o r   t i m e  s t e p    3801                              ( at time 1.8998099E+00 )

 nodal point  x-rot      y-rot       z-rot       x-rot vel   y-rot vel   z-rot vel   x-rot acc   y-rot acc   z-rot acc
    22626 -1.02185E-04-7.18572E-06 1.00789E-06-4.94635E-05-1.04448E-05 1.09218E-06 4.74148E-05-3.90410E-05 1.01194E-05



 n o d a l   p r i n t   o u t   f o r   t i m e  s t e p    4001                              ( at time 1.9997999E+00 )

 nodal point  x-disp     y-disp      z-disp      x-vel       y-vel       z-vel      x-accl      y-accl      z-accl      x-coor      y-coor      z-coor
    22626 -5.13999E-04 4.84395E-02-9.79079E-02-3.65636E-04 4.44798E-02-9.02599E-02-3.70548E-04 1.20764E-02-3.87148E-02 4.65886E+00-2.81424E+01-4.50796E+01



 n o d a l   p r i n t   o u t   f o r   t i m e  s t e p    4001                              ( at time 1.9997999E+00 )

 nodal point  x-rot      y-rot       z-rot       x-rot vel   y-rot vel   z-rot vel   x-rot acc   y-rot acc   z-rot acc
    22626 -1.06917E-04-8.33614E-06 1.15567E-06-4.86822E-05-1.42677E-05 1.80305E-06 7.81429E-06-3.82329E-05 7.10941E-06



 n o d a l   p r i n t   o u t   f o r   t i m e  s t e p    4201                              ( at time 2.0997899E+00 )

 nodal point  x-disp     y-disp      z-disp      x-vel       y-vel       z-vel      x-accl      y-accl      z-accl      x-coor      y-coor      z-coor
    22626 -5.50329E-04 5.29377E-02-1.07027E-01-3.26552E-04 4.57522E-02-9.21542E-02 3.90878E-04 1.27253E-02-1.89454E-02 4.65882E+00-2.81379E+01-4.50887E+01



 n o d a l   p r i n t   o u t   f o r   t i m e  s t e p    4201                              ( at time 2.0997899E+00 )

 nodal point  x-rot      y-rot       z-rot       x-rot vel   y-rot vel   z-rot vel   x-rot acc   y-rot acc   z-rot acc
    22626 -1.11279E-04-9.76732E-06 1.26772E-06-4.07030E-05-1.31914E-05 5.29054E-06 7.97999E-05 1.07642E-05 3.48784E-05



 n o d a l   p r i n t   o u t   f o r   t i m e  s t e p    4401                              ( at time 2.1997798E+00 )

 nodal point  x-disp     y-disp      z-disp      x-vel       y-vel       z-vel      x-accl      y-accl      z-accl      x-coor      y-coor      z-coor
    22626 -5.77698E-04 5.76026E-02-1.16294E-01-1.48954E-04 4.72168E-02-9.31235E-02 1.77616E-03 1.46473E-02-9.69389E-03 4.65880E+00-2.81332E+01-4.50980E+01



 n o d a l   p r i n t   o u t   f o r   t i m e  s t e p    4401                              ( at time 2.1997798E+00 )

 nodal point  x-rot      y-rot       z-rot       x-rot vel   y-rot vel   z-rot vel   x-rot acc   y-rot acc   z-rot acc
    22626 -1.15791E-04-1.10036E-05 1.67370E-06-4.93173E-05-1.34894E-05 3.78408E-06-8.61518E-05-2.97975E-06-1.50662E-05



 n o d a l   p r i n t   o u t   f o r   t i m e  s t e p    4601                              ( at time 2.2997698E+00 )

 nodal point  x-disp     y-disp      z-disp      x-vel       y-vel       z-vel      x-accl      y-accl      z-accl      x-coor      y-coor      z-coor
    22626 -5.89250E-04 6.23863E-02-1.25658E-01-1.09057E-04 4.89150E-02-9.47424E-02 3.99008E-04 1.69833E-02-1.61909E-02 4.65879E+00-2.81284E+01-4.51074E+01



 n o d a l   p r i n t   o u t   f o r   t i m e  s t e p    4601                              ( at time 2.2997698E+00 )

 nodal point  x-rot      y-rot       z-rot       x-rot vel   y-rot vel   z-rot vel   x-rot acc   y-rot acc   z-rot acc
    22626 -1.21249E-04-1.21113E-05 2.29841E-06-5.23240E-05-1.03744E-05 7.07661E-06-3.00694E-05 3.11522E-05 3.29286E-05



 n o d a l   p r i n t   o u t   f o r   t i m e  s t e p    4801                              ( at time 2.3997598E+00 )

 nodal point  x-disp     y-disp      z-disp      x-vel       y-vel       z-vel      x-accl      y-accl      z-accl      x-coor      y-coor      z-coor
    22626 -5.95144E-04 6.74342E-02-1.35326E-01 1.01071E-04 5.18019E-02-9.87126E-02 2.10149E-03 2.88724E-02-3.97055E-02 4.65878E+00-2.81234E+01-4.51170E+01



 n o d a l   p r i n t   o u t   f o r   t i m e  s t e p    4801                              ( at time 2.3997598E+00 )

 nodal point  x-rot      y-rot       z-rot       x-rot vel   y-rot vel   z-rot vel   x-rot acc   y-rot acc   z-rot acc
    22626 -1.26250E-04-1.32761E-05 3.60035E-06-5.14373E-05-1.14380E-05 1.64503E-05 8.86771E-06-1.06364E-05 9.37460E-05



 n o d a l   p r i n t   o u t   f o r   t i m e  s t e p    5001                              ( at time 2.4997498E+00 )

 nodal point  x-disp     y-disp      z-disp      x-vel       y-vel       z-vel      x-accl      y-accl      z-accl      x-coor      y-coor      z-coor
    22626 -5.83242E-04 7.27673E-02-1.45334E-01 1.19784E-04 5.43709E-02-1.00652E-01 1.87152E-04 2.56921E-02-1.93920E-02 4.65879E+00-2.81181E+01-4.51271E+01



 n o d a l   p r i n t   o u t   f o r   t i m e  s t e p    5001                              ( at time 2.4997498E+00 )

 nodal point  x-rot      y-rot       z-rot       x-rot vel   y-rot vel   z-rot vel   x-rot acc   y-rot acc   z-rot acc
    22626 -1.31288E-04-1.42885E-05 5.34224E-06-4.75110E-05-8.79084E-06 2.10373E-05 3.92668E-05 2.64740E-05 4.58747E-05



 n o d a l   p r i n t   o u t   f o r   t i m e  s t e p    5201                              ( at time 2.5997398E+00 )

 nodal point  x-disp     y-disp      z-disp      x-vel       y-vel       z-vel      x-accl      y-accl      z-accl      x-coor      y-coor      z-coor
    22626 -5.48629E-04 7.82925E-02-1.55384E-01 4.96391E-04 5.63856E-02-1.00435E-01 3.76645E-03 2.01492E-02 2.17050E-03 4.65883E+00-2.81125E+01-4.51371E+01



 n o d a l   p r i n t   o u t   f o r   t i m e  s t e p    5201                              ( at time 2.5997398E+00 )

 nodal point  x-rot      y-rot       z-rot       x-rot vel   y-rot vel   z-rot vel   x-rot acc   y-rot acc   z-rot acc
    22626 -1.36155E-04-1.47556E-05 7.77577E-06-5.13961E-05-1.47999E-06 3.06834E-05-3.88547E-05 7.31159E-05 9.64711E-05



 n o d a l   p r i n t   o u t   f o r   t i m e  s t e p    5401                              ( at time 2.6997298E+00 )

 nodal point  x-disp     y-disp      z-disp      x-vel       y-vel       z-vel      x-accl      y-accl      z-accl      x-coor      y-coor      z-coor
    22626 -4.77243E-04 8.40417E-02-1.65431E-01 1.00376E-03 5.89885E-02-1.00761E-01 5.07415E-03 2.60317E-02-3.26420E-03 4.65890E+00-2.81068E+01-4.51472E+01



 n o d a l   p r i n t   o u t   f o r   t i m e  s t e p    5401                              ( at time 2.6997298E+00 )

 nodal point  x-rot      y-rot       z-rot       x-rot vel   y-rot vel   z-rot vel   x-rot acc   y-rot acc   z-rot acc
    22626 -1.41943E-04-1.49292E-05 1.13012E-05-6.65628E-05 2.74011E-07 3.94676E-05-1.51682E-04 1.75417E-05 8.78505E-05



 n o d a l   p r i n t   o u t   f o r   t i m e  s t e p    5601                              ( at time 2.7997198E+00 )

 nodal point  x-disp     y-disp      z-disp      x-vel       y-vel       z-vel      x-accl      y-accl      z-accl      x-coor      y-coor      z-coor
    22626 -3.50006E-04 9.01321E-02-1.75561E-01 1.50932E-03 6.27349E-02-1.01973E-01 5.05614E-03 3.74677E-02-1.21199E-02 4.65903E+00-2.81007E+01-4.51573E+01



 n o d a l   p r i n t   o u t   f o r   t i m e  s t e p    5601                              ( at time 2.7997198E+00 )

 nodal point  x-rot      y-rot       z-rot       x-rot vel   y-rot vel   z-rot vel   x-rot acc   y-rot acc   z-rot acc
    22626 -1.47784E-04-1.49169E-05 1.53466E-05-4.42566E-05 2.67608E-06 4.32823E-05 2.23084E-04 2.40231E-05 3.81511E-05



 n o d a l   p r i n t   o u t   f o r   t i m e  s t e p    5801                              ( at time 2.8997098E+00 )

 nodal point  x-disp     y-disp      z-disp      x-vel       y-vel       z-vel      x-accl      y-accl      z-accl      x-coor      y-coor      z-coor
    22626 -1.68341E-04 9.66075E-02-1.85907E-01 2.10224E-03 6.73189E-02-1.04879E-01 5.92979E-03 4.58446E-02-2.90693E-02 4.65921E+00-2.80942E+01-4.51676E+01



 n o d a l   p r i n t   o u t   f o r   t i m e  s t e p    5801                              ( at time 2.8997098E+00 )

 nodal point  x-rot      y-rot       z-rot       x-rot vel   y-rot vel   z-rot vel   x-rot acc   y-rot acc   z-rot acc
    22626 -1.52510E-04-1.47417E-05 2.03073E-05-5.61634E-05 4.89940E-07 6.07042E-05-1.19080E-04-2.18636E-05 1.74236E-04



 n o d a l   p r i n t   o u t   f o r   t i m e  s t e p    6001                              ( at time 2.9996998E+00 )

 nodal point  x-disp     y-disp      z-disp      x-vel       y-vel       z-vel      x-accl      y-accl      z-accl      x-coor      y-coor      z-coor
    22626  7.06201E-05 1.03550E-01-1.96442E-01 2.72359E-03 7.17662E-02-1.05472E-01 6.21411E-03 4.44771E-02-5.92208E-03 4.65945E+00-2.80873E+01-4.51782E+01



 n o d a l   p r i n t   o u t   f o r   t i m e  s t e p    6001                              ( at time 2.9996998E+00 )

 nodal point  x-rot      y-rot       z-rot       x-rot vel   y-rot vel   z-rot vel   x-rot acc   y-rot acc   z-rot acc
    22626 -1.59146E-04-1.45037E-05 2.64552E-05-7.34568E-05 1.25443E-06 6.76397E-05-1.72952E-04 7.64565E-06 6.93624E-05



 n o d a l   p r i n t   o u t   f o r   t i m e  s t e p    6201                              ( at time 3.0996898E+00 )

 nodal point  x-disp     y-disp      z-disp      x-vel       y-vel       z-vel      x-accl      y-accl      z-accl      x-coor      y-coor      z-coor
    22626  3.89746E-04 1.11005E-01-2.06977E-01 3.53712E-03 7.75653E-02-1.05675E-01 8.13619E-03 5.79972E-02-2.03250E-03 4.65976E+00-2.80798E+01-4.51887E+01



 n o d a l   p r i n t   o u t   f o r   t i m e  s t e p    6201                              ( at time 3.0996898E+00 )

 nodal point  x-rot      y-rot       z-rot       x-rot vel   y-rot vel   z-rot vel   x-rot acc   y-rot acc   z-rot acc
    22626 -1.66903E-04-1.39692E-05 3.37541E-05-7.67852E-05 3.85749E-06 8.34029E-05-3.32865E-05 2.60332E-05 1.57647E-04



 n o d a l   p r i n t   o u t   f o r   t i m e  s t e p    6401                              ( at time 3.1996798E+00 )

 nodal point  x-disp     y-disp      z-disp      x-vel       y-vel       z-vel      x-accl      y-accl      z-accl      x-coor      y-coor      z-coor
    22626  7.69618E-04 1.19191E-01-2.17707E-01 4.08516E-03 8.57583E-02-1.09068E-01 5.48094E-03 8.19379E-02-3.39356E-02 4.66014E+00-2.80716E+01-4.51994E+01



 n o d a l   p r i n t   o u t   f o r   t i m e  s t e p    6401                              ( at time 3.1996798E+00 )

 nodal point  x-rot      y-rot       z-rot       x-rot vel   y-rot vel   z-rot vel   x-rot acc   y-rot acc   z-rot acc
    22626 -1.76761E-04-1.28732E-05 4.29792E-05-1.06766E-04 1.39672E-05 1.04440E-04-2.99838E-04 1.01107E-04 2.10397E-04



 n o d a l   p r i n t   o u t   f o r   t i m e  s t e p    6601                              ( at time 3.2996698E+00 )

 nodal point  x-disp     y-disp      z-disp      x-vel       y-vel       z-vel      x-accl      y-accl      z-accl      x-coor      y-coor      z-coor
    22626  1.18774E-03 1.28200E-01-2.28780E-01 4.41479E-03 9.47926E-02-1.12449E-01 3.29659E-03 9.03520E-02-3.38162E-02 4.66056E+00-2.80626E+01-4.52105E+01



 n o d a l   p r i n t   o u t   f o r   t i m e  s t e p    6601                              ( at time 3.2996698E+00 )

 nodal point  x-rot      y-rot       z-rot       x-rot vel   y-rot vel   z-rot vel   x-rot acc   y-rot acc   z-rot acc
    22626 -1.89129E-04-1.11428E-05 5.44642E-05-1.47079E-04 2.36787E-05 1.23581E-04-4.03167E-04 9.71255E-05 1.91427E-04



 n o d a l   p r i n t   o u t   f o r   t i m e  s t e p    6801                              ( at time 3.3996598E+00 )

 nodal point  x-disp     y-disp      z-disp      x-vel       y-vel       z-vel      x-accl      y-accl      z-accl      x-coor      y-coor      z-coor
    22626  1.65356E-03 1.38113E-01-2.40068E-01 4.83006E-03 1.03464E-01-1.12653E-01 4.15307E-03 8.67260E-02-2.03771E-03 4.66103E+00-2.80527E+01-4.52218E+01



 n o d a l   p r i n t   o u t   f o r   t i m e  s t e p    6801                              ( at time 3.3996598E+00 )

 nodal point  x-rot      y-rot       z-rot       x-rot vel   y-rot vel   z-rot vel   x-rot acc   y-rot acc   z-rot acc
    22626 -2.05585E-04-9.16516E-06 6.83176E-05-1.79864E-04 2.32975E-05 1.57840E-04-3.27884E-04-3.81312E-06 3.42627E-04



 n o d a l   p r i n t   o u t   f o r   t i m e  s t e p    7001                              ( at time 3.4996498E+00 )

 nodal point  x-disp     y-disp      z-disp      x-vel       y-vel       z-vel      x-accl      y-accl      z-accl      x-coor      y-coor      z-coor
    22626  2.20259E-03 1.48967E-01-2.51364E-01 5.54191E-03 1.13557E-01-1.13176E-01 7.11928E-03 1.00938E-01-5.22584E-03 4.66158E+00-2.80419E+01-4.52331E+01



 n o d a l   p r i n t   o u t   f o r   t i m e  s t e p    7001                              ( at time 3.4996498E+00 )

 nodal point  x-rot      y-rot       z-rot       x-rot vel   y-rot vel   z-rot vel   x-rot acc   y-rot acc   z-rot acc
    22626 -2.27547E-04-6.38169E-06 8.51902E-05-2.62849E-04 3.21180E-05 1.88378E-04-8.29932E-04 8.82146E-05 3.05406E-04



 n o d a l   p r i n t   o u t   f o r   t i m e  s t e p    7201                              ( at time 3.5996397E+00 )

 nodal point  x-disp     y-disp      z-disp      x-vel       y-vel       z-vel      x-accl      y-accl      z-accl      x-coor      y-coor      z-coor
    22626  2.79479E-03 1.60837E-01-2.62630E-01 6.35782E-03 1.24123E-01-1.12279E-01 8.15993E-03 1.05673E-01 8.97126E-03 4.66217E+00-2.80300E+01-4.52444E+01



 n o d a l   p r i n t   o u t   f o r   t i m e  s t e p    7201                              ( at time 3.5996397E+00 )

 nodal point  x-rot      y-rot       z-rot       x-rot vel   y-rot vel   z-rot vel   x-rot acc   y-rot acc   z-rot acc
    22626 -2.56704E-04-2.38603E-06 1.05474E-04-3.25724E-04 4.65290E-05 2.12954E-04-6.28820E-04 1.44124E-04 2.45785E-04



 n o d a l   p r i n t   o u t   f o r   t i m e  s t e p    7401                              ( at time 3.6996297E+00 )

 nodal point  x-disp     y-disp      z-disp      x-vel       y-vel       z-vel      x-accl      y-accl      z-accl      x-coor      y-coor      z-coor
    22626  3.44648E-03 1.73846E-01-2.73882E-01 6.93937E-03 1.36002E-01-1.11384E-01 5.81601E-03 1.18803E-01 8.94642E-03 4.66282E+00-2.80170E+01-4.52556E+01



 n o d a l   p r i n t   o u t   f o r   t i m e  s t e p    7401                              ( at time 3.6996297E+00 )

 nodal point  x-rot      y-rot       z-rot       x-rot vel   y-rot vel   z-rot vel   x-rot acc   y-rot acc   z-rot acc
    22626 -2.92690E-04 2.07488E-06 1.28686E-04-3.73642E-04 4.24275E-05 2.48118E-04-4.79220E-04-4.10193E-05 3.51676E-04



 n o d a l   p r i n t   o u t   f o r   t i m e  s t e p    7601                              ( at time 3.7996197E+00 )

 nodal point  x-disp     y-disp      z-disp      x-vel       y-vel       z-vel      x-accl      y-accl      z-accl      x-coor      y-coor      z-coor
    22626  4.20415E-03 1.88025E-01-2.85116E-01 7.84342E-03 1.47731E-01-1.12072E-01 9.04142E-03 1.17295E-01-6.88220E-03 4.66358E+00-2.80028E+01-4.52668E+01



 n o d a l   p r i n t   o u t   f o r   t i m e  s t e p    7601                              ( at time 3.7996197E+00 )

 nodal point  x-rot      y-rot       z-rot       x-rot vel   y-rot vel   z-rot vel   x-rot acc   y-rot acc   z-rot acc
    22626 -3.38067E-04 7.36956E-06 1.55070E-04-5.19445E-04 5.84652E-05 2.83494E-04-1.45819E-03 1.60393E-04 3.53792E-04



 n o d a l   p r i n t   o u t   f o r   t i m e  s t e p    7801                              ( at time 3.8996097E+00 )

 nodal point  x-disp     y-disp      z-disp      x-vel       y-vel       z-vel      x-accl      y-accl      z-accl      x-coor      y-coor      z-coor
    22626  5.05285E-03 2.03343E-01-2.96176E-01 9.63236E-03 1.60687E-01-1.09193E-01 1.78912E-02 1.29576E-01 2.87952E-02 4.66443E+00-2.79875E+01-4.52779E+01



 n o d a l   p r i n t   o u t   f o r   t i m e  s t e p    7801                              ( at time 3.8996097E+00 )

 nodal point  x-rot      y-rot       z-rot       x-rot vel   y-rot vel   z-rot vel   x-rot acc   y-rot acc   z-rot acc
    22626 -3.94978E-04 1.28050E-05 1.85288E-04-6.35139E-04 6.19476E-05 3.18785E-04-1.15705E-03 3.48284E-05 3.52944E-04



 n o d a l   p r i n t   o u t   f o r   t i m e  s t e p    8001                              ( at time 3.9995997E+00 )

 nodal point  x-disp     y-disp      z-disp      x-vel       y-vel       z-vel      x-accl      y-accl      z-accl      x-coor      y-coor      z-coor
    22626  6.01197E-03 2.19973E-01-3.06865E-01 9.13848E-03 1.73082E-01-1.04449E-01-4.93929E-03 1.23960E-01 4.74470E-02 4.66539E+00-2.79709E+01-4.52886E+01



 n o d a l   p r i n t   o u t   f o r   t i m e  s t e p    8001                              ( at time 3.9995997E+00 )

 nodal point  x-rot      y-rot       z-rot       x-rot vel   y-rot vel   z-rot vel   x-rot acc   y-rot acc   z-rot acc
    22626 -4.64285E-04 1.86806E-05 2.17036E-04-7.52121E-04 6.21710E-05 3.33934E-04-1.16994E-03 2.23344E-06 1.51512E-04



 n o d a l   p r i n t   o u t   f o r   t i m e  s t e p    8201                              ( at time 4.0995897E+00 )

 nodal point  x-disp     y-disp      z-disp      x-vel       y-vel       z-vel      x-accl      y-accl      z-accl      x-coor      y-coor      z-coor
    22626  7.07653E-03 2.37914E-01-3.17311E-01 1.13487E-02 1.86282E-01-1.04264E-01 2.21040E-02 1.32014E-01 1.84554E-03 4.66645E+00-2.79529E+01-4.52990E+01



 n o d a l   p r i n t   o u t   f o r   t i m e  s t e p    8201                              ( at time 4.0995897E+00 )

 nodal point  x-rot      y-rot       z-rot       x-rot vel   y-rot vel   z-rot vel   x-rot acc   y-rot acc   z-rot acc
    22626 -5.45548E-04 2.52816E-05 2.52151E-04-8.61310E-04 6.69094E-05 3.67687E-04-1.09200E-03 4.73894E-05 3.37556E-04



 n o d a l   p r i n t   o u t   f o r   t i m e  s t e p    8401                              ( at time 4.1995797E+00 )

 nodal point  x-disp     y-disp      z-disp      x-vel       y-vel       z-vel      x-accl      y-accl      z-accl      x-coor      y-coor      z-coor
    22626  8.28868E-03 2.57287E-01-3.27595E-01 1.28599E-02 2.02132E-01-1.00811E-01 1.51141E-02 1.58519E-01 3.45328E-02 4.66766E+00-2.79335E+01-4.53093E+01



 n o d a l   p r i n t   o u t   f o r   t i m e  s t e p    8401                              ( at time 4.1995797E+00 )

 nodal point  x-rot      y-rot       z-rot       x-rot vel   y-rot vel   z-rot vel   x-rot acc   y-rot acc   z-rot acc
    22626 -6.40404E-04 3.22671E-05 2.90314E-04-1.03496E-03 8.02238E-05 3.81882E-04-1.73664E-03 1.33157E-04 1.41969E-04



 n o d a l   p r i n t   o u t   f o r   t i m e  s t e p    8601                              ( at time 4.2995697E+00 )

 nodal point  x-disp     y-disp      z-disp      x-vel       y-vel       z-vel      x-accl      y-accl      z-accl      x-coor      y-coor      z-coor
    22626  9.49819E-03 2.78221E-01-3.37461E-01 1.31244E-02 2.17983E-01-9.63375E-02 2.64484E-03 1.58525E-01 4.47421E-02 4.66887E+00-2.79126E+01-4.53192E+01



 n o d a l   p r i n t   o u t   f o r   t i m e  s t e p    8601                              ( at time 4.2995697E+00 )

 nodal point  x-rot      y-rot       z-rot       x-rot vel   y-rot vel   z-rot vel   x-rot acc   y-rot acc   z-rot acc
    22626 -7.50397E-04 3.92653E-05 3.31942E-04-1.18122E-03 7.13412E-05 4.45983E-04-1.46279E-03-8.88351E-05 6.41073E-04



 n o d a l   p r i n t   o u t   f o r   t i m e  s t e p    8801                              ( at time 4.3995597E+00 )

 nodal point  x-disp     y-disp      z-disp      x-vel       y-vel       z-vel      x-accl      y-accl      z-accl      x-coor      y-coor      z-coor
    22626  1.09656E-02 3.00614E-01-3.46779E-01 1.43238E-02 2.31792E-01-9.04689E-02 1.19952E-02 1.38109E-01 5.86925E-02 4.67034E+00-2.78902E+01-4.53285E+01



 n o d a l   p r i n t   o u t   f o r   t i m e  s t e p    8801                              ( at time 4.3995597E+00 )

 nodal point  x-rot      y-rot       z-rot       x-rot vel   y-rot vel   z-rot vel   x-rot acc   y-rot acc   z-rot acc
    22626 -8.74615E-04 4.81603E-05 3.74382E-04-1.31824E-03 8.68019E-05 4.51722E-04-1.37029E-03 1.54622E-04 5.74009E-05



 n o d a l   p r i n t   o u t   f o r   t i m e  s t e p    9001                              ( at time 4.4995497E+00 )

 nodal point  x-disp     y-disp      z-disp      x-vel       y-vel       z-vel      x-accl      y-accl      z-accl      x-coor      y-coor      z-coor
    22626  1.24871E-02 3.24667E-01-3.55549E-01 1.68875E-02 2.46513E-01-8.57817E-02 2.56399E-02 1.47220E-01 4.68760E-02 4.67186E+00-2.78662E+01-4.53373E+01



 n o d a l   p r i n t   o u t   f o r   t i m e  s t e p    9001                              ( at time 4.4995497E+00 )

 nodal point  x-rot      y-rot       z-rot       x-rot vel   y-rot vel   z-rot vel   x-rot acc   y-rot acc   z-rot acc
    22626 -1.01504E-03 5.70624E-05 4.20483E-04-1.46431E-03 8.56116E-05 4.60561E-04-1.46093E-03-1.19034E-05 8.83928E-05



 n o d a l   p r i n t   o u t   f o r   t i m e  s t e p    9201                              ( at time 4.5995397E+00 )

 nodal point  x-disp     y-disp      z-disp      x-vel       y-vel       z-vel      x-accl      y-accl      z-accl      x-coor      y-coor      z-coor
    22626  1.41225E-02 3.50396E-01-3.63961E-01 1.64813E-02 2.66935E-01-7.98147E-02-4.06284E-03 2.04235E-01 5.96765E-02 4.67350E+00-2.78404E+01-4.53457E+01



 n o d a l   p r i n t   o u t   f o r   t i m e  s t e p    9201                              ( at time 4.5995397E+00 )

 nodal point  x-rot      y-rot       z-rot       x-rot vel   y-rot vel   z-rot vel   x-rot acc   y-rot acc   z-rot acc
    22626 -1.17347E-03 6.63070E-05 4.68477E-04-1.63297E-03 9.67002E-05 4.85085E-04-1.68669E-03 1.10897E-04 2.45272E-04



 n o d a l   p r i n t   o u t   f o r   t i m e  s t e p    9401                              ( at time 4.6995297E+00 )

 nodal point  x-disp     y-disp      z-disp      x-vel       y-vel       z-vel      x-accl      y-accl      z-accl      x-coor      y-coor      z-coor
    22626  1.59120E-02 3.77626E-01-3.71687E-01 1.73030E-02 2.81152E-01-7.48901E-02 8.21789E-03 1.42192E-01 4.92509E-02 4.67529E+00-2.78132E+01-4.53534E+01



 n o d a l   p r i n t   o u t   f o r   t i m e  s t e p    9401                              ( at time 4.6995297E+00 )

 nodal point  x-rot      y-rot       z-rot       x-rot vel   y-rot vel   z-rot vel   x-rot acc   y-rot acc   z-rot acc
    22626 -1.34826E-03 7.58585E-05 5.18429E-04-1.83642E-03 9.84264E-05 5.09283E-04-2.03473E-03 1.72638E-05 2.41997E-04



 n o d a l   p r i n t   o u t   f o r   t i m e  s t e p    9601                              ( at time 4.7995197E+00 )

 nodal point  x-disp     y-disp      z-disp      x-vel       y-vel       z-vel      x-accl      y-accl      z-accl      x-coor      y-coor      z-coor
    22626  1.78111E-02 4.06694E-01-3.78871E-01 1.90414E-02 2.98659E-01-6.74328E-02 1.73860E-02 1.75088E-01 7.45800E-02 4.67719E+00-2.77841E+01-4.53606E+01



 n o d a l   p r i n t   o u t   f o r   t i m e  s t e p    9601                              ( at time 4.7995197E+00 )

 nodal point  x-rot      y-rot       z-rot       x-rot vel   y-rot vel   z-rot vel   x-rot acc   y-rot acc   z-rot acc
    22626 -1.54286E-03 8.60561E-05 5.68697E-04-2.03466E-03 1.14822E-04 4.88224E-04-1.98259E-03 1.63975E-04-2.10613E-04



 n o d a l   p r i n t   o u t   f o r   t i m e  s t e p    9801                              ( at time 4.8995097E+00 )

 nodal point  x-disp     y-disp      z-disp      x-vel       y-vel       z-vel      x-accl      y-accl      z-accl      x-coor      y-coor      z-coor
    22626  1.97386E-02 4.37413E-01-3.85210E-01 1.94212E-02 3.17147E-01-5.93062E-02 3.79809E-03 1.84892E-01 8.12744E-02 4.67911E+00-2.77534E+01-4.53669E+01



 n o d a l   p r i n t   o u t   f o r   t i m e  s t e p    9801                              ( at time 4.8995097E+00 )

 nodal point  x-rot      y-rot       z-rot       x-rot vel   y-rot vel   z-rot vel   x-rot acc   y-rot acc   z-rot acc
    22626 -1.75447E-03 9.56806E-05 6.21718E-04-2.19563E-03 8.98491E-05 5.38525E-04-1.60990E-03-2.49757E-04 5.03061E-04



 n o d a l   p r i n t   o u t   f o r   t i m e  s t e p   10001                              ( at time 4.9994997E+00 )

 nodal point  x-disp     y-disp      z-disp      x-vel       y-vel       z-vel      x-accl      y-accl      z-accl      x-coor      y-coor      z-coor
    22626  2.17998E-02 4.69870E-01-3.90944E-01 2.13398E-02 3.33893E-01-5.20695E-02 1.91879E-02 1.67484E-01 7.23746E-02 4.68117E+00-2.77210E+01-4.53727E+01



 n o d a l   p r i n t   o u t   f o r   t i m e  s t e p   10001                              ( at time 4.9994997E+00 )

 nodal point  x-rot      y-rot       z-rot       x-rot vel   y-rot vel   z-rot vel   x-rot acc   y-rot acc   z-rot acc
    22626 -1.98567E-03 1.07810E-04 6.75058E-04-2.39495E-03 1.25893E-04 5.44426E-04-1.99342E-03 3.60475E-04 5.90195E-05



 n o d a l   p r i n t   o u t   f o r   t i m e  s t e p   10202                              ( at time 5.0999896E+00 )

 nodal point  x-disp     y-disp      z-disp      x-vel       y-vel       z-vel      x-accl      y-accl      z-accl      x-coor      y-coor      z-coor
    22626  2.40328E-02 5.04268E-01-3.95851E-01 2.19313E-02 3.51339E-01-4.56677E-02 5.88659E-03 1.73608E-01 6.37059E-02 4.68341E+00-2.76866E+01-4.53776E+01



 n o d a l   p r i n t   o u t   f o r   t i m e  s t e p   10202                              ( at time 5.0999896E+00 )

 nodal point  x-rot      y-rot       z-rot       x-rot vel   y-rot vel   z-rot vel   x-rot acc   y-rot acc   z-rot acc
    22626 -2.23824E-03 1.17898E-04 7.28007E-04-2.60142E-03 8.31829E-05 5.40696E-04-2.05455E-03-4.25021E-04-3.71172E-05



 n o d a l   p r i n t   o u t   f o r   t i m e  s t e p   10402                              ( at time 5.1999796E+00 )

 nodal point  x-disp     y-disp      z-disp      x-vel       y-vel       z-vel      x-accl      y-accl      z-accl      x-coor      y-coor      z-coor
    22626  2.61392E-02 5.40413E-01-4.00034E-01 2.31204E-02 3.71430E-01-3.62064E-02 1.18915E-02 2.00929E-01 9.46214E-02 4.68551E+00-2.76504E+01-4.53818E+01



 n o d a l   p r i n t   o u t   f o r   t i m e  s t e p   10402                              ( at time 5.1999796E+00 )

 nodal point  x-rot      y-rot       z-rot       x-rot vel   y-rot vel   z-rot vel   x-rot acc   y-rot acc   z-rot acc
    22626 -2.50856E-03 1.29153E-04 7.83685E-04-2.82959E-03 1.35158E-04 5.47741E-04-2.28197E-03 5.19800E-04 7.04608E-05



 n o d a l   p r i n t   o u t   f o r   t i m e  s t e p   10602                              ( at time 5.2999696E+00 )

 nodal point  x-disp     y-disp      z-disp      x-vel       y-vel       z-vel      x-accl      y-accl      z-accl      x-coor      y-coor      z-coor
    22626  2.86510E-02 5.78205E-01-4.03252E-01 2.54660E-02 3.87392E-01-2.89848E-02 2.34587E-02 1.59634E-01 7.22242E-02 4.68803E+00-2.76126E+01-4.53850E+01



 n o d a l   p r i n t   o u t   f o r   t i m e  s t e p   10602                              ( at time 5.2999696E+00 )

 nodal point  x-rot      y-rot       z-rot       x-rot vel   y-rot vel   z-rot vel   x-rot acc   y-rot acc   z-rot acc
    22626 -2.79861E-03 1.43992E-04 8.33718E-04-3.02233E-03 1.27812E-04 4.96305E-04-1.92759E-03-7.34710E-05-5.14415E-04



 n o d a l   p r i n t   o u t   f o r   t i m e  s t e p   10802                              ( at time 5.3999596E+00 )

 nodal point  x-disp     y-disp      z-disp      x-vel       y-vel       z-vel      x-accl      y-accl      z-accl      x-coor      y-coor      z-coor
    22626  3.09169E-02 6.17855E-01-4.05631E-01 2.50374E-02 4.00831E-01-1.97996E-02-4.28617E-03 1.34399E-01 9.18612E-02 4.69029E+00-2.75730E+01-4.53874E+01



 n o d a l   p r i n t   o u t   f o r   t i m e  s t e p   10802                              ( at time 5.3999596E+00 )

 nodal point  x-rot      y-rot       z-rot       x-rot vel   y-rot vel   z-rot vel   x-rot acc   y-rot acc   z-rot acc
    22626 -3.10926E-03 1.54992E-04 8.87534E-04-3.18789E-03 1.51922E-04 5.17191E-04-1.65580E-03 2.41129E-04 2.08876E-04



 n o d a l   p r i n t   o u t   f o r   t i m e  s t e p   11002                              ( at time 5.4999496E+00 )

 nodal point  x-disp     y-disp      z-disp      x-vel       y-vel       z-vel      x-accl      y-accl      z-accl      x-coor      y-coor      z-coor
    22626  3.35075E-02 6.58921E-01-4.07185E-01 2.57435E-02 4.22572E-01-1.23632E-02 7.06114E-03 2.17434E-01 7.43713E-02 4.69288E+00-2.75319E+01-4.53889E+01



 n o d a l   p r i n t   o u t   f o r   t i m e  s t e p   11002                              ( at time 5.4999496E+00 )

 nodal point  x-rot      y-rot       z-rot       x-rot vel   y-rot vel   z-rot vel   x-rot acc   y-rot acc   z-rot acc
    22626 -3.43892E-03 1.69434E-04 9.38681E-04-3.42174E-03 1.42897E-04 4.98442E-04-2.33869E-03-9.02616E-05-1.87501E-04



 n o d a l   p r i n t   o u t   f o r   t i m e  s t e p   11202                              ( at time 5.5999396E+00 )

 nodal point  x-disp     y-disp      z-disp      x-vel       y-vel       z-vel      x-accl      y-accl      z-accl      x-coor      y-coor      z-coor
    22626  3.61430E-02 7.01814E-01-4.07811E-01 2.32906E-02 4.34946E-01 7.98775E-04-2.45309E-02 1.23752E-01 1.31633E-01 4.69552E+00-2.74890E+01-4.53895E+01



 n o d a l   p r i n t   o u t   f o r   t i m e  s t e p   11202                              ( at time 5.5999396E+00 )

 nodal point  x-rot      y-rot       z-rot       x-rot vel   y-rot vel   z-rot vel   x-rot acc   y-rot acc   z-rot acc
    22626 -3.78909E-03 1.81194E-04 9.85775E-04-3.61315E-03 1.11672E-04 4.98507E-04-1.91434E-03-3.12284E-04 6.43260E-07



 n o d a l   p r i n t   o u t   f o r   t i m e  s t e p   11402                              ( at time 5.6999296E+00 )

 nodal point  x-disp     y-disp      z-disp      x-vel       y-vel       z-vel      x-accl      y-accl      z-accl      x-coor      y-coor      z-coor
    22626  3.87820E-02 7.46249E-01-4.07181E-01 3.08400E-02 4.53730E-01 1.06415E-02 7.55011E-02 1.87860E-01 9.84366E-02 4.69816E+00-2.74446E+01-4.53889E+01



 n o d a l   p r i n t   o u t   f o r   t i m e  s t e p   11402                              ( at time 5.6999296E+00 )

 nodal point  x-rot      y-rot       z-rot       x-rot vel   y-rot vel   z-rot vel   x-rot acc   y-rot acc   z-rot acc
    22626 -4.15879E-03 1.95736E-04 1.03339E-03-3.79777E-03 1.66221E-04 4.36657E-04-1.84639E-03 5.45544E-04-6.18558E-04



 n o d a l   p r i n t   o u t   f o r   t i m e  s t e p   11602                              ( at time 5.7999195E+00 )

 nodal point  x-disp     y-disp      z-disp      x-vel       y-vel       z-vel      x-accl      y-accl      z-accl      x-coor      y-coor      z-coor
    22626  4.16325E-02 7.92230E-01-4.05491E-01 2.63764E-02 4.67422E-01 2.38074E-02-4.46409E-02 1.36936E-01 1.31673E-01 4.70101E+00-2.73986E+01-4.53872E+01



 n o d a l   p r i n t   o u t   f o r   t i m e  s t e p   11602                              ( at time 5.7999195E+00 )

 nodal point  x-rot      y-rot       z-rot       x-rot vel   y-rot vel   z-rot vel   x-rot acc   y-rot acc   z-rot acc
    22626 -4.54692E-03 2.08845E-04 1.08030E-03-3.95780E-03 1.08476E-04 4.86311E-04-1.60042E-03-5.77507E-04 4.96589E-04



 n o d a l   p r i n t   o u t   f o r   t i m e  s t e p   11802                              ( at time 5.8999095E+00 )

 nodal point  x-disp     y-disp      z-disp      x-vel       y-vel       z-vel      x-accl      y-accl      z-accl      x-coor      y-coor      z-coor
    22626  4.43817E-02 8.39801E-01-4.02749E-01 2.94542E-02 4.85032E-01 3.28887E-02 3.07815E-02 1.76121E-01 9.08218E-02 4.70376E+00-2.73510E+01-4.53845E+01



 n o d a l   p r i n t   o u t   f o r   t i m e  s t e p   11802                              ( at time 5.8999095E+00 )

 nodal point  x-rot      y-rot       z-rot       x-rot vel   y-rot vel   z-rot vel   x-rot acc   y-rot acc   z-rot acc
    22626 -4.95499E-03 2.22068E-04 1.12429E-03-4.20139E-03 1.55847E-04 4.14346E-04-2.43616E-03 4.73756E-04-7.19719E-04



 n o d a l   p r i n t   o u t   f o r   t i m e  s t e p   12002                              ( at time 5.9998995E+00 )

 nodal point  x-disp     y-disp      z-disp      x-vel       y-vel       z-vel      x-accl      y-accl      z-accl      x-coor      y-coor      z-coor
    22626  4.73849E-02 8.88939E-01-3.98930E-01 2.86368E-02 5.00740E-01 4.38495E-02-8.17508E-03 1.57093E-01 1.09619E-01 4.70676E+00-2.73019E+01-4.53806E+01



 n o d a l   p r i n t   o u t   f o r   t i m e  s t e p   12002                              ( at time 5.9998995E+00 )

 nodal point  x-rot      y-rot       z-rot       x-rot vel   y-rot vel   z-rot vel   x-rot acc   y-rot acc   z-rot acc
    22626 -5.38371E-03 2.37134E-04 1.16437E-03-4.42048E-03 1.23906E-04 4.34089E-04-2.19111E-03-3.19439E-04 1.97447E-04



 n o d a l   p r i n t   o u t   f o r   t i m e  s t e p   12202                              ( at time 6.0998895E+00 )

 nodal point  x-disp     y-disp      z-disp      x-vel       y-vel       z-vel      x-accl      y-accl      z-accl      x-coor      y-coor      z-coor
    22626  5.01643E-02 9.39691E-01-3.93865E-01 2.88597E-02 5.16724E-01 5.63717E-02 2.22935E-03 1.59852E-01 1.25234E-01 4.70954E+00-2.72511E+01-4.53756E+01



 n o d a l   p r i n t   o u t   f o r   t i m e  s t e p   12202                              ( at time 6.0998895E+00 )

 nodal point  x-rot      y-rot       z-rot       x-rot vel   y-rot vel   z-rot vel   x-rot acc   y-rot acc   z-rot acc
    22626 -5.83162E-03 2.49766E-04 1.20689E-03-4.61315E-03 1.21659E-04 3.93690E-04-1.92691E-03-2.24727E-05-4.04029E-04



 n o d a l   p r i n t   o u t   f o r   t i m e  s t e p   12402                              ( at time 6.1998795E+00 )

 nodal point  x-disp     y-disp      z-disp      x-vel       y-vel       z-vel      x-accl      y-accl      z-accl      x-coor      y-coor      z-coor
    22626  5.32878E-02 9.91919E-01-3.87717E-01 2.98059E-02 5.29003E-01 6.68341E-02 9.46288E-03 1.22805E-01 1.04634E-01 4.71266E+00-2.71989E+01-4.53694E+01



 n o d a l   p r i n t   o u t   f o r   t i m e  s t e p   12402                              ( at time 6.1998795E+00 )

 nodal point  x-rot      y-rot       z-rot       x-rot vel   y-rot vel   z-rot vel   x-rot acc   y-rot acc   z-rot acc
    22626 -6.29801E-03 2.65189E-04 1.24350E-03-4.74618E-03 1.44873E-04 3.70457E-04-1.33038E-03 2.32161E-04-2.32356E-04



 n o d a l   p r i n t   o u t   f o r   t i m e  s t e p   12602                              ( at time 6.2998695E+00 )

 nodal point  x-disp     y-disp      z-disp      x-vel       y-vel       z-vel      x-accl      y-accl      z-accl      x-coor      y-coor      z-coor
    22626  5.61933E-02 1.04583E+00-3.80426E-01 2.86804E-02 5.49720E-01 7.88413E-02-1.12554E-02 2.07189E-01 1.20084E-01 4.71557E+00-2.71450E+01-4.53621E+01



 n o d a l   p r i n t   o u t   f o r   t i m e  s t e p   12602                              ( at time 6.2998695E+00 )

 nodal point  x-rot      y-rot       z-rot       x-rot vel   y-rot vel   z-rot vel   x-rot acc   y-rot acc   z-rot acc
    22626 -6.78308E-03 2.80606E-04 1.28382E-03-4.99778E-03 1.75514E-04 3.76587E-04-2.51625E-03 3.06441E-04 6.13088E-05



 n o d a l   p r i n t   o u t   f o r   t i m e  s t e p   12802                              ( at time 6.3998595E+00 )

 nodal point  x-disp     y-disp      z-disp      x-vel       y-vel       z-vel      x-accl      y-accl      z-accl      x-coor      y-coor      z-coor
    22626  5.92443E-02 1.10131E+00-3.71845E-01 3.03014E-02 5.62460E-01 9.24529E-02 1.62109E-02 1.27418E-01 1.36130E-01 4.71862E+00-2.70895E+01-4.53536E+01



 n o d a l   p r i n t   o u t   f o r   t i m e  s t e p   12802                              ( at time 6.3998595E+00 )

 nodal point  x-rot      y-rot       z-rot       x-rot vel   y-rot vel   z-rot vel   x-rot acc   y-rot acc   z-rot acc
    22626 -7.28754E-03 2.97842E-04 1.31697E-03-5.14425E-03 1.94704E-04 3.20741E-04-1.46487E-03 1.91923E-04-5.58516E-04



 n o d a l   p r i n t   o u t   f o r   t i m e  s t e p   13002                              ( at time 6.4998495E+00 )

 nodal point  x-disp     y-disp      z-disp      x-vel       y-vel       z-vel      x-accl      y-accl      z-accl      x-coor      y-coor      z-coor
    22626  6.21870E-02 1.15825E+00-3.62006E-01 3.04161E-02 5.78205E-01 1.04622E-01 1.14695E-03 1.57459E-01 1.21700E-01 4.72156E+00-2.70326E+01-4.53437E+01



 n o d a l   p r i n t   o u t   f o r   t i m e  s t e p   13002                              ( at time 6.4998495E+00 )

 nodal point  x-rot      y-rot       z-rot       x-rot vel   y-rot vel   z-rot vel   x-rot acc   y-rot acc   z-rot acc
    22626 -7.80891E-03 3.14554E-04 1.35469E-03-5.34490E-03 1.70745E-04 4.23768E-04-2.00667E-03-2.39617E-04 1.03038E-03



 n o d a l   p r i n t   o u t   f o r   t i m e  s t e p   13202                              ( at time 6.5998395E+00 )

 nodal point  x-disp     y-disp      z-disp      x-vel       y-vel       z-vel      x-accl      y-accl      z-accl      x-coor      y-coor      z-coor
    22626  6.53135E-02 1.21681E+00-3.50678E-01 3.23387E-02 5.92430E-01 1.19654E-01 1.92281E-02 1.42271E-01 1.50334E-01 4.72469E+00-2.69740E+01-4.53324E+01



 n o d a l   p r i n t   o u t   f o r   t i m e  s t e p   13202                              ( at time 6.5998395E+00 )

 nodal point  x-rot      y-rot       z-rot       x-rot vel   y-rot vel   z-rot vel   x-rot acc   y-rot acc   z-rot acc
    22626 -8.35050E-03 3.33958E-04 1.38978E-03-5.51840E-03 2.05356E-04 2.78474E-04-1.73516E-03 3.46144E-04-1.45309E-03



 n o d a l   p r i n t   o u t   f o r   t i m e  s t e p   13402                              ( at time 6.6998295E+00 )

 nodal point  x-disp     y-disp      z-disp      x-vel       y-vel       z-vel      x-accl      y-accl      z-accl      x-coor      y-coor      z-coor
    22626  6.83997E-02 1.27686E+00-3.38138E-01 2.73380E-02 6.08518E-01 1.32198E-01-5.00122E-02 1.60895E-01 1.25455E-01 4.72777E+00-2.69140E+01-4.53199E+01



 n o d a l   p r i n t   o u t   f o r   t i m e  s t e p   13402                              ( at time 6.6998295E+00 )

 nodal point  x-rot      y-rot       z-rot       x-rot vel   y-rot vel   z-rot vel   x-rot acc   y-rot acc   z-rot acc
    22626 -8.90788E-03 3.54928E-04 1.41808E-03-5.67337E-03 1.82834E-04 3.68023E-04-1.54991E-03-2.25240E-04 8.95583E-04



 n o d a l   p r i n t   o u t   f o r   t i m e  s t e p   13602                              ( at time 6.7998195E+00 )

 nodal point  x-disp     y-disp      z-disp      x-vel       y-vel       z-vel      x-accl      y-accl      z-accl      x-coor      y-coor      z-coor
    22626  7.13871E-02 1.33851E+00-3.24089E-01 3.49405E-02 6.25199E-01 1.48148E-01 7.60326E-02 1.66821E-01 1.59521E-01 4.73076E+00-2.68523E+01-4.53058E+01



 n o d a l   p r i n t   o u t   f o r   t i m e  s t e p   13602                              ( at time 6.7998195E+00 )

 nodal point  x-rot      y-rot       z-rot       x-rot vel   y-rot vel   z-rot vel   x-rot acc   y-rot acc   z-rot acc
    22626 -9.48565E-03 3.76234E-04 1.45297E-03-5.89754E-03 2.61896E-04 3.07843E-04-2.24191E-03 7.90700E-04-6.01854E-04



 n o d a l   p r i n t   o u t   f o r   t i m e  s t e p   13802                              ( at time 6.8998095E+00 )

 nodal point  x-disp     y-disp      z-disp      x-vel       y-vel       z-vel      x-accl      y-accl      z-accl      x-coor      y-coor      z-coor
    22626  7.47327E-02 1.40173E+00-3.08700E-01 3.06056E-02 6.39848E-01 1.59369E-01-4.33530E-02 1.46512E-01 1.12222E-01 4.73411E+00-2.67891E+01-4.52904E+01



 n o d a l   p r i n t   o u t   f o r   t i m e  s t e p   13802                              ( at time 6.8998095E+00 )

 nodal point  x-rot      y-rot       z-rot       x-rot vel   y-rot vel   z-rot vel   x-rot acc   y-rot acc   z-rot acc
    22626 -1.00798E-02 4.02401E-04 1.48124E-03-6.03293E-03 2.53102E-04 3.18631E-04-1.35402E-03-8.79482E-05 1.07887E-04



 n o d a l   p r i n t   o u t   f o r   t i m e  s t e p   14002                              ( at time 6.9997995E+00 )

 nodal point  x-disp     y-disp      z-disp      x-vel       y-vel       z-vel      x-accl      y-accl      z-accl      x-coor      y-coor      z-coor
    22626  7.76047E-02 1.46650E+00-2.91790E-01 2.99568E-02 6.55316E-01 1.76821E-01-6.48890E-03 1.54688E-01 1.74529E-01 4.73698E+00-2.67243E+01-4.52735E+01



 n o d a l   p r i n t   o u t   f o r   t i m e  s t e p   14002                              ( at time 6.9997995E+00 )

 nodal point  x-rot      y-rot       z-rot       x-rot vel   y-rot vel   z-rot vel   x-rot acc   y-rot acc   z-rot acc
    22626 -1.06907E-02 4.24510E-04 1.51496E-03-6.22985E-03 2.37875E-04 3.14603E-04-1.96940E-03-1.52282E-04-4.02817E-05



 n o d a l   p r i n t   o u t   f o r   t i m e  s t e p   14202                              ( at time 7.0997895E+00 )

 nodal point  x-disp     y-disp      z-disp      x-vel       y-vel       z-vel      x-accl      y-accl      z-accl      x-coor      y-coor      z-coor
    22626  8.08615E-02 1.53287E+00-2.73371E-01 3.37666E-02 6.71079E-01 1.89557E-01 3.81016E-02 1.57646E-01 1.27373E-01 4.74024E+00-2.66580E+01-4.52551E+01



 n o d a l   p r i n t   o u t   f o r   t i m e  s t e p   14202                              ( at time 7.0997895E+00 )

 nodal point  x-rot      y-rot       z-rot       x-rot vel   y-rot vel   z-rot vel   x-rot acc   y-rot acc   z-rot acc
    22626 -1.13186E-02 4.52869E-04 1.54148E-03-6.38487E-03 3.08300E-04 2.50214E-04-1.55042E-03 7.04317E-04-6.43955E-04



 n o d a l   p r i n t   o u t   f o r   t i m e  s t e p   14402                              ( at time 7.1997794E+00 )

 nodal point  x-disp     y-disp      z-disp      x-vel       y-vel       z-vel      x-accl      y-accl      z-accl      x-coor      y-coor      z-coor
    22626  8.40760E-02 1.60079E+00-2.53475E-01 3.04372E-02 6.85721E-01 2.06531E-01-3.32969E-02 1.46441E-01 1.69763E-01 4.74345E+00-2.65900E+01-4.52352E+01



 n o d a l   p r i n t   o u t   f o r   t i m e  s t e p   14402                              ( at time 7.1997794E+00 )

 nodal point  x-rot      y-rot       z-rot       x-rot vel   y-rot vel   z-rot vel   x-rot acc   y-rot acc   z-rot acc
    22626 -1.19638E-02 4.82242E-04 1.57042E-03-6.55653E-03 2.73709E-04 3.05135E-04-1.71677E-03-3.45950E-04 5.49263E-04



 n o d a l   p r i n t   o u t   f o r   t i m e  s t e p   14602                              ( at time 7.2997694E+00 )

 nodal point  x-disp     y-disp      z-disp      x-vel       y-vel       z-vel      x-accl      y-accl      z-accl      x-coor      y-coor      z-coor
    22626  8.71969E-02 1.67021E+00-2.31955E-01 3.34748E-02 7.01159E-01 2.23394E-01 3.03787E-02 1.54392E-01 1.68641E-01 4.74657E+00-2.65206E+01-4.52137E+01



 n o d a l   p r i n t   o u t   f o r   t i m e  s t e p   14602                              ( at time 7.2997694E+00 )

 nodal point  x-rot      y-rot       z-rot       x-rot vel   y-rot vel   z-rot vel   x-rot acc   y-rot acc   z-rot acc
    22626 -1.26253E-02 5.10819E-04 1.59803E-03-6.67163E-03 3.11516E-04 2.29058E-04-1.15105E-03 3.78112E-04-7.60842E-04



 n o d a l   p r i n t   o u t   f o r   t i m e  s t e p   14802                              ( at time 7.3997594E+00 )

 nodal point  x-disp     y-disp      z-disp      x-vel       y-vel       z-vel      x-accl      y-accl      z-accl      x-coor      y-coor      z-coor
    22626  9.03864E-02 1.74108E+00-2.08729E-01 3.09809E-02 7.16329E-01 2.41183E-01-2.49412E-02 1.51719E-01 1.77914E-01 4.74976E+00-2.64498E+01-4.51904E+01



 n o d a l   p r i n t   o u t   f o r   t i m e  s t e p   14802                              ( at time 7.3997594E+00 )

 nodal point  x-rot      y-rot       z-rot       x-rot vel   y-rot vel   z-rot vel   x-rot acc   y-rot acc   z-rot acc
    22626 -1.33014E-02 5.42227E-04 1.62290E-03-6.84536E-03 3.15097E-04 2.55733E-04-1.73746E-03 3.58104E-05 2.66774E-04



 n o d a l   p r i n t   o u t   f o r   t i m e  s t e p   15002                              ( at time 7.4997494E+00 )

 nodal point  x-disp     y-disp      z-disp      x-vel       y-vel       z-vel      x-accl      y-accl      z-accl      x-coor      y-coor      z-coor
    22626  9.36080E-02 1.81362E+00-1.83900E-01 3.33748E-02 7.33183E-01 2.55910E-01 2.39413E-02 1.68556E-01 1.47285E-01 4.75298E+00-2.63772E+01-4.51656E+01



 n o d a l   p r i n t   o u t   f o r   t i m e  s t e p   15002                              ( at time 7.4997494E+00 )

 nodal point  x-rot      y-rot       z-rot       x-rot vel   y-rot vel   z-rot vel   x-rot acc   y-rot acc   z-rot acc
    22626 -1.39942E-02 5.74235E-04 1.64803E-03-7.02401E-03 3.01289E-04 2.07151E-04-1.78666E-03-1.38090E-04-4.85865E-04



 n o d a l   p r i n t   o u t   f o r   t i m e  s t e p   15202                              ( at time 7.5997394E+00 )

 nodal point  x-disp     y-disp      z-disp      x-vel       y-vel       z-vel      x-accl      y-accl      z-accl      x-coor      y-coor      z-coor
    22626  9.70358E-02 1.88755E+00-1.57421E-01 3.33231E-02 7.48491E-01 2.73828E-01-5.17421E-04 1.53087E-01 1.79192E-01 4.75641E+00-2.63033E+01-4.51391E+01



 n o d a l   p r i n t   o u t   f o r   t i m e  s t e p   15202                              ( at time 7.5997394E+00 )

 nodal point  x-rot      y-rot       z-rot       x-rot vel   y-rot vel   z-rot vel   x-rot acc   y-rot acc   z-rot acc
    22626 -1.47009E-02 6.07538E-04 1.66977E-03-7.12502E-03 3.17848E-04 2.37353E-04-1.01020E-03 1.65608E-04 3.02053E-04



 n o d a l   p r i n t   o u t   f o r   t i m e  s t e p   15402                              ( at time 7.6997294E+00 )

 nodal point  x-disp     y-disp      z-disp      x-vel       y-vel       z-vel      x-accl      y-accl      z-accl      x-coor      y-coor      z-coor
    22626  1.00188E-01 1.96312E+00-1.29248E-01 3.29426E-02 7.61694E-01 2.90481E-01-3.80517E-03 1.32050E-01 1.66547E-01 4.75956E+00-2.62277E+01-4.51110E+01



 n o d a l   p r i n t   o u t   f o r   t i m e  s t e p   15402                              ( at time 7.6997294E+00 )

 nodal point  x-rot      y-rot       z-rot       x-rot vel   y-rot vel   z-rot vel   x-rot acc   y-rot acc   z-rot acc
    22626 -1.54215E-02 6.38338E-04 1.69303E-03-7.24490E-03 3.20139E-04 2.10930E-04-1.19892E-03 2.29114E-05-2.64259E-04



 n o d a l   p r i n t   o u t   f o r   t i m e  s t e p   15602                              ( at time 7.7997194E+00 )

 nodal point  x-disp     y-disp      z-disp      x-vel       y-vel       z-vel      x-accl      y-accl      z-accl      x-coor      y-coor      z-coor
    22626  1.03647E-01 2.04022E+00-9.95235E-02 3.48616E-02 7.80234E-01 3.04572E-01 1.91923E-02 1.85421E-01 1.40927E-01 4.76302E+00-2.61506E+01-4.50812E+01



 n o d a l   p r i n t   o u t   f o r   t i m e  s t e p   15602                              ( at time 7.7997194E+00 )

 nodal point  x-rot      y-rot       z-rot       x-rot vel   y-rot vel   z-rot vel   x-rot acc   y-rot acc   z-rot acc
    22626 -1.61541E-02 6.73245E-04 1.71143E-03-7.41024E-03 3.98464E-04 1.73704E-04-1.65365E-03 7.83332E-04-3.72301E-04



 n o d a l   p r i n t   o u t   f o r   t i m e  s t e p   15802                              ( at time 7.8997094E+00 )

 nodal point  x-disp     y-disp      z-disp      x-vel       y-vel       z-vel      x-accl      y-accl      z-accl      x-coor      y-coor      z-coor
    22626  1.07019E-01 2.11895E+00-6.82603E-02 3.17702E-02 7.97176E-01 3.22616E-01-3.09174E-02 1.69434E-01 1.80456E-01 4.76639E+00-2.60719E+01-4.50500E+01



 n o d a l   p r i n t   o u t   f o r   t i m e  s t e p   15802                              ( at time 7.8997094E+00 )

 nodal point  x-rot      y-rot       z-rot       x-rot vel   y-rot vel   z-rot vel   x-rot acc   y-rot acc   z-rot acc
    22626 -1.69012E-02 7.08559E-04 1.73097E-03-7.51981E-03 3.11793E-04 1.92849E-04-1.09573E-03-8.66804E-04 1.91472E-04



 n o d a l   p r i n t   o u t   f o r   t i m e  s t e p   16002                              ( at time 7.9996994E+00 )

 nodal point  x-disp     y-disp      z-disp      x-vel       y-vel       z-vel      x-accl      y-accl      z-accl      x-coor      y-coor      z-coor
    22626  1.10277E-01 2.19921E+00-3.54286E-02 3.36977E-02 8.09750E-01 3.34608E-01 1.92765E-02 1.25752E-01 1.19929E-01 4.76965E+00-2.59916E+01-4.50171E+01



 n o d a l   p r i n t   o u t   f o r   t i m e  s t e p   16002                              ( at time 7.9996994E+00 )

 nodal point  x-rot      y-rot       z-rot       x-rot vel   y-rot vel   z-rot vel   x-rot acc   y-rot acc   z-rot acc
    22626 -1.76560E-02 7.40347E-04 1.74655E-03-7.59975E-03 3.68144E-04 1.40797E-04-7.99562E-04 5.63568E-04-5.20572E-04



 n o d a l   p r i n t   o u t   f o r   t i m e  s t e p   16202                              ( at time 8.0996894E+00 )

 nodal point  x-disp     y-disp      z-disp      x-vel       y-vel       z-vel      x-accl      y-accl      z-accl      x-coor      y-coor      z-coor
    22626  1.13751E-01 2.28106E+00-1.14675E-03 3.44674E-02 8.25792E-01 3.51442E-01 7.69835E-03 1.60432E-01 1.68359E-01 4.77313E+00-2.59098E+01-4.49829E+01



 n o d a l   p r i n t   o u t   f o r   t i m e  s t e p   16202                              ( at time 8.0996894E+00 )

 nodal point  x-rot      y-rot       z-rot       x-rot vel   y-rot vel   z-rot vel   x-rot acc   y-rot acc   z-rot acc
    22626 -1.84220E-02 7.79688E-04 1.76479E-03-7.72864E-03 3.78105E-04 2.24962E-04-1.28895E-03 9.96153E-05 8.41737E-04



 n o d a l   p r i n t   o u t   f o r   t i m e  s t e p   16402                              ( at time 8.1996794E+00 )

 nodal point  x-disp     y-disp      z-disp      x-vel       y-vel       z-vel      x-accl      y-accl      z-accl      x-coor      y-coor      z-coor
    22626  1.17210E-01 2.36466E+00 3.48276E-02 3.33054E-02 8.42852E-01 3.67288E-01-1.16210E-02 1.70618E-01 1.58476E-01 4.77658E+00-2.58262E+01-4.49469E+01



 n o d a l   p r i n t   o u t   f o r   t i m e  s t e p   16402                              ( at time 8.1996794E+00 )

 nodal point  x-rot      y-rot       z-rot       x-rot vel   y-rot vel   z-rot vel   x-rot acc   y-rot acc   z-rot acc
    22626 -1.91983E-02 8.14666E-04 1.78121E-03-7.82150E-03 3.42506E-04 1.30187E-04-9.28725E-04-3.56018E-04-9.47846E-04



 n o d a l   p r i n t   o u t   f o r   t i m e  s t e p   16602                              ( at time 8.2996694E+00 )

 nodal point  x-disp     y-disp      z-disp      x-vel       y-vel       z-vel      x-accl      y-accl      z-accl      x-coor      y-coor      z-coor
    22626  1.20531E-01 2.44947E+00 7.22555E-02 3.47162E-02 8.59411E-01 3.81571E-01 1.41094E-02 1.65604E-01 1.42850E-01 4.77991E+00-2.57414E+01-4.49095E+01



 n o d a l   p r i n t   o u t   f o r   t i m e  s t e p   16602                              ( at time 8.2996694E+00 )

 nodal point  x-rot      y-rot       z-rot       x-rot vel   y-rot vel   z-rot vel   x-rot acc   y-rot acc   z-rot acc
    22626 -1.99835E-02 8.51929E-04 1.79481E-03-7.92416E-03 4.07821E-04 1.61652E-04-1.02675E-03 6.53214E-04 3.14684E-04



 n o d a l   p r i n t   o u t   f o r   t i m e  s t e p   16802                              ( at time 8.3996594E+00 )

 nodal point  x-disp     y-disp      z-disp      x-vel       y-vel       z-vel      x-accl      y-accl      z-accl      x-coor      y-coor      z-coor
    22626  1.24093E-01 2.53607E+00 1.11325E-01 3.40985E-02 8.70624E-01 3.99637E-01-6.17786E-03 1.12141E-01 1.80671E-01 4.78347E+00-2.56548E+01-4.48704E+01



 n o d a l   p r i n t   o u t   f o r   t i m e  s t e p   16802                              ( at time 8.3996594E+00 )

 nodal point  x-rot      y-rot       z-rot       x-rot vel   y-rot vel   z-rot vel   x-rot acc   y-rot acc   z-rot acc
    22626 -2.07770E-02 8.91785E-04 1.81009E-03-7.92860E-03 3.67731E-04 1.14651E-04-4.44006E-05-4.00946E-04-4.70058E-04



 n o d a l   p r i n t   o u t   f o r   t i m e  s t e p   17002                              ( at time 8.4996494E+00 )

 nodal point  x-disp     y-disp      z-disp      x-vel       y-vel       z-vel      x-accl      y-accl      z-accl      x-coor      y-coor      z-coor
    22626  1.27467E-01 2.62406E+00 1.51940E-01 3.34848E-02 8.90367E-01 4.14828E-01-6.13785E-03 1.97457E-01 1.51931E-01 4.78684E+00-2.55668E+01-4.48298E+01



 n o d a l   p r i n t   o u t   f o r   t i m e  s t e p   17002                              ( at time 8.4996494E+00 )

 nodal point  x-rot      y-rot       z-rot       x-rot vel   y-rot vel   z-rot vel   x-rot acc   y-rot acc   z-rot acc
    22626 -2.15768E-02 9.28905E-04 1.82145E-03-8.03338E-03 3.89427E-04 1.20675E-04-1.04783E-03 2.16982E-04 6.02438E-05



 n o d a l   p r i n t   o u t   f o r   t i m e  s t e p   17202                              ( at time 8.5996394E+00 )

 nodal point  x-disp     y-disp      z-disp      x-vel       y-vel       z-vel      x-accl      y-accl      z-accl      x-coor      y-coor      z-coor
    22626  1.30859E-01 2.71356E+00 1.94188E-01 3.48709E-02 9.01120E-01 4.30523E-01 1.38626E-02 1.07538E-01 1.56962E-01 4.79023E+00-2.54773E+01-4.47875E+01



 n o d a l   p r i n t   o u t   f o r   t i m e  s t e p   17202                              ( at time 8.5996394E+00 )

 nodal point  x-rot      y-rot       z-rot       x-rot vel   y-rot vel   z-rot vel   x-rot acc   y-rot acc   z-rot acc
    22626 -2.23828E-02 9.68212E-04 1.83458E-03-8.07494E-03 4.10722E-04 1.22483E-04-4.15710E-04 2.12971E-04 1.80875E-05



 n o d a l   p r i n t   o u t   f o r   t i m e  s t e p   17402                              ( at time 8.6996293E+00 )

 nodal point  x-disp     y-disp      z-disp      x-vel       y-vel       z-vel      x-accl      y-accl      z-accl      x-coor      y-coor      z-coor
    22626  1.34317E-01 2.80456E+00 2.37912E-01 3.44589E-02 9.18297E-01 4.44837E-01-4.12088E-03 1.71783E-01 1.43154E-01 4.79369E+00-2.53863E+01-4.47438E+01



 n o d a l   p r i n t   o u t   f o r   t i m e  s t e p   17402                              ( at time 8.6996293E+00 )

 nodal point  x-rot      y-rot       z-rot       x-rot vel   y-rot vel   z-rot vel   x-rot acc   y-rot acc   z-rot acc
    22626 -2.31944E-02 1.00716E-03 1.84468E-03-8.17567E-03 4.02051E-04 8.61121E-05-1.00735E-03-8.67164E-05-3.63746E-04



 n o d a l   p r i n t   o u t   f o r   t i m e  s t e p   17602                              ( at time 8.7996193E+00 )

 nodal point  x-disp     y-disp      z-disp      x-vel       y-vel       z-vel      x-accl      y-accl      z-accl      x-coor      y-coor      z-coor
    22626  1.37763E-01 2.89702E+00 2.83333E-01 3.42021E-02 9.31352E-01 4.63116E-01-2.56795E-03 1.30568E-01 1.82815E-01 4.79714E+00-2.52938E+01-4.46984E+01



 n o d a l   p r i n t   o u t   f o r   t i m e  s t e p   17602                              ( at time 8.7996193E+00 )

 nodal point  x-rot      y-rot       z-rot       x-rot vel   y-rot vel   z-rot vel   x-rot acc   y-rot acc   z-rot acc
    22626 -2.40126E-02 1.04711E-03 1.85285E-03-8.21075E-03 3.95334E-04 9.65779E-05-3.50883E-04-6.71738E-05 1.04669E-04



 n o d a l   p r i n t   o u t   f o r   t i m e  s t e p   17802                              ( at time 8.8996093E+00 )

 nodal point  x-disp     y-disp      z-disp      x-vel       y-vel       z-vel      x-accl      y-accl      z-accl      x-coor      y-coor      z-coor
    22626  1.41239E-01 2.99027E+00 3.30734E-01 3.67852E-02 9.36950E-01 4.84346E-01 2.58340E-02 5.59857E-02 2.12317E-01 4.80061E+00-2.52006E+01-4.46510E+01



 n o d a l   p r i n t   o u t   f o r   t i m e  s t e p   17802                              ( at time 8.8996093E+00 )

 nodal point  x-rot      y-rot       z-rot       x-rot vel   y-rot vel   z-rot vel   x-rot acc   y-rot acc   z-rot acc
    22626 -2.48313E-02 1.08864E-03 1.86268E-03-8.21735E-03 4.24825E-04 6.36309E-05-6.59350E-05 2.94939E-04-3.29503E-04



 n o d a l   p r i n t   o u t   f o r   t i m e  s t e p   18002                              ( at time 8.9995993E+00 )

 nodal point  x-disp     y-disp      z-disp      x-vel       y-vel       z-vel      x-accl      y-accl      z-accl      x-coor      y-coor      z-coor
    22626  1.44954E-01 3.08492E+00 3.79874E-01 3.61199E-02 9.53016E-01 5.02497E-01-6.65423E-03 1.60675E-01 1.81525E-01 4.80433E+00-2.51059E+01-4.46018E+01



 n o d a l   p r i n t   o u t   f o r   t i m e  s t e p   18002                              ( at time 8.9995993E+00 )

 nodal point  x-rot      y-rot       z-rot       x-rot vel   y-rot vel   z-rot vel   x-rot acc   y-rot acc   z-rot acc
    22626 -2.56618E-02 1.13229E-03 1.87254E-03-8.36799E-03 4.11912E-04 8.98495E-05-1.50656E-03-1.29145E-04 2.62212E-04



 n o d a l   p r i n t   o u t   f o r   t i m e  s t e p   18202                              ( at time 9.0995893E+00 )

 nodal point  x-disp     y-disp      z-disp      x-vel       y-vel       z-vel      x-accl      y-accl      z-accl      x-coor      y-coor      z-coor
    22626  1.48457E-01 3.18055E+00 4.31397E-01 3.44335E-02 9.61376E-01 5.24642E-01-1.68651E-02 8.36099E-02 2.21479E-01 4.80783E+00-2.50103E+01-4.45503E+01



 n o d a l   p r i n t   o u t   f o r   t i m e  s t e p   18202                              ( at time 9.0995893E+00 )

 nodal point  x-rot      y-rot       z-rot       x-rot vel   y-rot vel   z-rot vel   x-rot acc   y-rot acc   z-rot acc
    22626 -2.64963E-02 1.17368E-03 1.88236E-03-8.35370E-03 4.18920E-04 9.73256E-05 1.42879E-04 7.00877E-05 7.47687E-05



 n o d a l   p r i n t   o u t   f o r   t i m e  s t e p   18402                              ( at time 9.1995793E+00 )

 nodal point  x-disp     y-disp      z-disp      x-vel       y-vel       z-vel      x-accl      y-accl      z-accl      x-coor      y-coor      z-coor
    22626  1.52204E-01 3.27737E+00 4.84549E-01 3.95848E-02 9.74847E-01 5.40020E-01 5.15180E-02 1.34723E-01 1.53793E-01 4.81158E+00-2.49135E+01-4.44972E+01



 n o d a l   p r i n t   o u t   f o r   t i m e  s t e p   18402                              ( at time 9.1995793E+00 )

 nodal point  x-rot      y-rot       z-rot       x-rot vel   y-rot vel   z-rot vel   x-rot acc   y-rot acc   z-rot acc
    22626 -2.73343E-02 1.21746E-03 1.89061E-03-8.43674E-03 4.46889E-04 5.76972E-05-8.30460E-04 2.79724E-04-3.96324E-04



 n o d a l   p r i n t   o u t   f o r   t i m e  s t e p   18602                              ( at time 9.2995693E+00 )

 nodal point  x-disp     y-disp      z-disp      x-vel       y-vel       z-vel      x-accl      y-accl      z-accl      x-coor      y-coor      z-coor
    22626  1.55962E-01 3.37537E+00 5.39802E-01 3.79319E-02 9.84982E-01 5.63278E-01-1.65306E-02 1.01354E-01 2.32604E-01 4.81534E+00-2.48155E+01-4.44419E+01



 n o d a l   p r i n t   o u t   f o r   t i m e  s t e p   18602                              ( at time 9.2995693E+00 )

 nodal point  x-rot      y-rot       z-rot       x-rot vel   y-rot vel   z-rot vel   x-rot acc   y-rot acc   z-rot acc
    22626 -2.81779E-02 1.25999E-03 1.90013E-03-8.48021E-03 4.47809E-04 1.07612E-04-4.34748E-04 9.20065E-06 4.99200E-04



 n o d a l   p r i n t   o u t   f o r   t i m e  s t e p   18802                              ( at time 9.3995593E+00 )

 nodal point  x-disp     y-disp      z-disp      x-vel       y-vel       z-vel      x-accl      y-accl      z-accl      x-coor      y-coor      z-coor
    22626  1.59785E-01 3.47461E+00 5.97157E-01 3.89489E-02 9.97762E-01 5.83349E-01 1.01705E-02 1.27818E-01 2.00726E-01 4.81916E+00-2.47162E+01-4.43846E+01



 n o d a l   p r i n t   o u t   f o r   t i m e  s t e p   18802                              ( at time 9.3995593E+00 )

 nodal point  x-rot      y-rot       z-rot       x-rot vel   y-rot vel   z-rot vel   x-rot acc   y-rot acc   z-rot acc
    22626 -2.90290E-02 1.30325E-03 1.90837E-03-8.55940E-03 4.05911E-04 5.54700E-05-7.92040E-04-4.19027E-04-5.21474E-04



 n o d a l   p r i n t   o u t   f o r   t i m e  s t e p   19002                              ( at time 9.4995493E+00 )

 nodal point  x-disp     y-disp      z-disp      x-vel       y-vel       z-vel      x-accl      y-accl      z-accl      x-coor      y-coor      z-coor
    22626  1.63756E-01 3.57502E+00 6.56403E-01 3.70538E-02 1.01069E+00 6.01968E-01-1.89526E-02 1.29263E-01 1.86215E-01 4.82313E+00-2.46158E+01-4.43253E+01



 n o d a l   p r i n t   o u t   f o r   t i m e  s t e p   19002                              ( at time 9.4995493E+00 )

 nodal point  x-rot      y-rot       z-rot       x-rot vel   y-rot vel   z-rot vel   x-rot acc   y-rot acc   z-rot acc
    22626 -2.98883E-02 1.34365E-03 1.91440E-03-8.58933E-03 3.90134E-04 5.76572E-05-2.99246E-04-1.57790E-04 2.18733E-05



 n o d a l   p r i n t   o u t   f o r   t i m e  s t e p   19202                              ( at time 9.5995393E+00 )

 nodal point  x-disp     y-disp      z-disp      x-vel       y-vel       z-vel      x-accl      y-accl      z-accl      x-coor      y-coor      z-coor
    22626  1.67555E-01 3.67643E+00 7.17435E-01 4.02144E-02 1.02151E+00 6.21855E-01 3.16085E-02 1.08256E-01 1.98890E-01 4.82693E+00-2.45144E+01-4.42643E+01



 n o d a l   p r i n t   o u t   f o r   t i m e  s t e p   19202                              ( at time 9.5995393E+00 )

 nodal point  x-rot      y-rot       z-rot       x-rot vel   y-rot vel   z-rot vel   x-rot acc   y-rot acc   z-rot acc
    22626 -3.07521E-02 1.38680E-03 1.92049E-03-8.68040E-03 4.60840E-04 3.83329E-05-9.10805E-04 7.07126E-04-1.93261E-04



 n o d a l   p r i n t   o u t   f o r   t i m e  s t e p   19402                              ( at time 9.6995293E+00 )

 nodal point  x-disp     y-disp      z-disp      x-vel       y-vel       z-vel      x-accl      y-accl      z-accl      x-coor      y-coor      z-coor
    22626  1.71668E-01 3.77934E+00 7.80960E-01 4.05234E-02 1.03647E+00 6.47655E-01 3.09033E-03 1.49611E-01 2.58022E-01 4.83104E+00-2.44115E+01-4.42008E+01



 n o d a l   p r i n t   o u t   f o r   t i m e  s t e p   19402                              ( at time 9.6995293E+00 )

 nodal point  x-rot      y-rot       z-rot       x-rot vel   y-rot vel   z-rot vel   x-rot acc   y-rot acc   z-rot acc
    22626 -3.16277E-02 1.43006E-03 1.92456E-03-8.80696E-03 3.96041E-04 4.62425E-05-1.26580E-03-6.48054E-04 7.91043E-05



 n o d a l   p r i n t   o u t   f o r   t i m e  s t e p   19602                              ( at time 9.7995193E+00 )

 nodal point  x-disp     y-disp      z-disp      x-vel       y-vel       z-vel      x-accl      y-accl      z-accl      x-coor      y-coor      z-coor
    22626  1.75524E-01 3.88352E+00 8.46519E-01 3.82572E-02 1.04820E+00 6.63913E-01-2.26639E-02 1.17342E-01 1.62600E-01 4.83490E+00-2.43073E+01-4.41352E+01



 n o d a l   p r i n t   o u t   f o r   t i m e  s t e p   19602                              ( at time 9.7995193E+00 )

 nodal point  x-rot      y-rot       z-rot       x-rot vel   y-rot vel   z-rot vel   x-rot acc   y-rot acc   z-rot acc
    22626 -3.25083E-02 1.46853E-03 1.92989E-03-8.83807E-03 3.96720E-04 3.71778E-05-3.11084E-04 6.79236E-06-9.06565E-05



 n o d a l   p r i n t   o u t   f o r   t i m e  s t e p   19802                              ( at time 9.8995093E+00 )

 nodal point  x-disp     y-disp      z-disp      x-vel       y-vel       z-vel      x-accl      y-accl      z-accl      x-coor      y-coor      z-coor
    22626  1.79620E-01 3.98901E+00 9.14129E-01 4.13182E-02 1.06258E+00 6.86267E-01 3.06129E-02 1.43763E-01 2.23559E-01 4.83899E+00-2.42018E+01-4.40676E+01



 n o d a l   p r i n t   o u t   f o r   t i m e  s t e p   19802                              ( at time 9.8995093E+00 )

 nodal point  x-rot      y-rot       z-rot       x-rot vel   y-rot vel   z-rot vel   x-rot acc   y-rot acc   z-rot acc
    22626 -3.33987E-02 1.51046E-03 1.92905E-03-8.96304E-03 4.19261E-04 4.16381E-05-1.24978E-03 2.25427E-04 4.46080E-05



 n o d a l   p r i n t   o u t   f o r   t i m e  s t e p   20003                              ( at time 9.9999992E+00 )

 nodal point  x-disp     y-disp      z-disp      x-vel       y-vel       z-vel      x-accl      y-accl      z-accl      x-coor      y-coor      z-coor
[...]
    22626 -2.29987E-01 1.08279E-02-1.77308E-03-1.86987E-02 1.15678E-03-7.98196E-04 4.18202E-05-1.87090E-04-9.77536E-05



 n o d a l   p r i n t   o u t   f o r   t i m e  s t e p   45205                              ( at time 2.2599738E+01 )

 nodal point  x-disp     y-disp      z-disp      x-vel       y-vel       z-vel      x-accl      y-accl      z-accl      x-coor      y-coor      z-coor
    22626  1.04956E+00 2.39248E+01 1.98394E+01 8.53685E-02 1.92465E+00 1.15976E+00 2.33342E-02 4.31959E-02-1.01335E-01 5.70893E+00-4.26606E+00-2.51424E+01



 n o d a l   p r i n t   o u t   f o r   t i m e  s t e p   45205                              ( at time 2.2599738E+01 )

 nodal point  x-rot      y-rot       z-rot       x-rot vel   y-rot vel   z-rot vel   x-rot acc   y-rot acc   z-rot acc
    22626 -2.31858E-01 1.09438E-02-1.85141E-03-1.87065E-02 1.16949E-03-7.75067E-04-7.87598E-05 1.27100E-04 2.31306E-04



 n o d a l   p r i n t   o u t   f o r   t i m e  s t e p   45405                              ( at time 2.2699728E+01 )

 nodal point  x-disp     y-disp      z-disp      x-vel       y-vel       z-vel      x-accl      y-accl      z-accl      x-coor      y-coor      z-coor
    22626  1.05800E+00 2.41174E+01 1.99547E+01 8.35412E-02 1.92781E+00 1.14813E+00-1.82746E-02 3.16273E-02-1.16266E-01 5.71737E+00-4.07346E+00-2.50270E+01



 n o d a l   p r i n t   o u t   f o r   t i m e  s t e p   45405                              ( at time 2.2699728E+01 )

 nodal point  x-rot      y-rot       z-rot       x-rot vel   y-rot vel   z-rot vel   x-rot acc   y-rot acc   z-rot acc
    22626 -2.33728E-01 1.10613E-02-1.92843E-03-1.86966E-02 1.17708E-03-7.74016E-04 9.94017E-05 7.59228E-05 1.05140E-05



 n o d a l   p r i n t   o u t   f o r   t i m e  s t e p   45605                              ( at time 2.2799718E+01 )

 nodal point  x-disp     y-disp      z-disp      x-vel       y-vel       z-vel      x-accl      y-accl      z-accl      x-coor      y-coor      z-coor
    22626  1.06624E+00 2.43103E+01 2.00690E+01 8.15108E-02 1.93008E+00 1.13769E+00-2.03067E-02 2.26638E-02-1.04411E-01 5.72562E+00-3.88058E+00-2.49127E+01



 n o d a l   p r i n t   o u t   f o r   t i m e  s t e p   45605                              ( at time 2.2799718E+01 )

 nodal point  x-rot      y-rot       z-rot       x-rot vel   y-rot vel   z-rot vel   x-rot acc   y-rot acc   z-rot acc
    22626 -2.35596E-01 1.11773E-02-2.00776E-03-1.86850E-02 1.15390E-03-7.82184E-04 1.15830E-04-2.31775E-04-8.16891E-05



 n o d a l   p r i n t   o u t   f o r   t i m e  s t e p   45805                              ( at time 2.2899708E+01 )

 nodal point  x-disp     y-disp      z-disp      x-vel       y-vel       z-vel      x-accl      y-accl      z-accl      x-coor      y-coor      z-coor
    22626  1.07446E+00 2.45034E+01 2.01823E+01 8.37849E-02 1.93284E+00 1.12764E+00 2.27437E-02 2.76095E-02-1.00542E-01 5.73384E+00-3.68746E+00-2.47994E+01



 n o d a l   p r i n t   o u t   f o r   t i m e  s t e p   45805                              ( at time 2.2899708E+01 )

 nodal point  x-rot      y-rot       z-rot       x-rot vel   y-rot vel   z-rot vel   x-rot acc   y-rot acc   z-rot acc
    22626 -2.37464E-01 1.12931E-02-2.08468E-03-1.86744E-02 1.17193E-03-7.57078E-04 1.06313E-04 1.80240E-04 2.51086E-04



 n o d a l   p r i n t   o u t   f o r   t i m e  s t e p   46005                              ( at time 2.2999698E+01 )

 nodal point  x-disp     y-disp      z-disp      x-vel       y-vel       z-vel      x-accl      y-accl      z-accl      x-coor      y-coor      z-coor
    22626  1.08274E+00 2.46968E+01 2.02945E+01 8.18539E-02 1.93661E+00 1.11791E+00-1.93113E-02 3.77177E-02-9.73195E-02 5.74212E+00-3.49399E+00-2.46872E+01



 n o d a l   p r i n t   o u t   f o r   t i m e  s t e p   46005                              ( at time 2.2999698E+01 )

 nodal point  x-rot      y-rot       z-rot       x-rot vel   y-rot vel   z-rot vel   x-rot acc   y-rot acc   z-rot acc
    22626 -2.39330E-01 1.14107E-02-2.16059E-03-1.86612E-02 1.16368E-03-7.73239E-04 1.31496E-04-8.24680E-05-1.61618E-04



 n o d a l   p r i n t   o u t   f o r   t i m e  s t e p   46205                              ( at time 2.3099688E+01 )

 nodal point  x-disp     y-disp      z-disp      x-vel       y-vel       z-vel      x-accl      y-accl      z-accl      x-coor      y-coor      z-coor
    22626  1.09086E+00 2.48905E+01 2.04059E+01 8.00676E-02 1.93745E+00 1.10978E+00-1.78650E-02 8.39565E-03-8.12358E-02 5.75023E+00-3.30036E+00-2.45759E+01



 n o d a l   p r i n t   o u t   f o r   t i m e  s t e p   46205                              ( at time 2.3099688E+01 )

 nodal point  x-rot      y-rot       z-rot       x-rot vel   y-rot vel   z-rot vel   x-rot acc   y-rot acc   z-rot acc
    22626 -2.41196E-01 1.15276E-02-2.23813E-03-1.86484E-02 1.17098E-03-7.73040E-04 1.28574E-04 7.30377E-05 1.98685E-06



 n o d a l   p r i n t   o u t   f o r   t i m e  s t e p   46405                              ( at time 2.3199678E+01 )

 nodal point  x-disp     y-disp      z-disp      x-vel       y-vel       z-vel      x-accl      y-accl      z-accl      x-coor      y-coor      z-coor
    22626  1.09887E+00 2.50844E+01 2.05163E+01 7.97861E-02 1.94091E+00 1.10002E+00-2.81516E-03 3.45584E-02-9.76914E-02 5.75824E+00-3.10644E+00-2.44654E+01



 n o d a l   p r i n t   o u t   f o r   t i m e  s t e p   46405                              ( at time 2.3199678E+01 )

 nodal point  x-rot      y-rot       z-rot       x-rot vel   y-rot vel   z-rot vel   x-rot acc   y-rot acc   z-rot acc
    22626 -2.43061E-01 1.16463E-02-2.31457E-03-1.86492E-02 1.18821E-03-7.59204E-04-8.47581E-06 1.72274E-04 1.38369E-04



 n o d a l   p r i n t   o u t   f o r   t i m e  s t e p   46605                              ( at time 2.3299668E+01 )

 nodal point  x-disp     y-disp      z-disp      x-vel       y-vel       z-vel      x-accl      y-accl      z-accl      x-coor      y-coor      z-coor
    22626  1.10686E+00 2.52785E+01 2.06259E+01 7.97378E-02 1.94146E+00 1.09119E+00-4.83745E-04 5.55696E-03-8.82187E-02 5.76623E+00-2.91235E+00-2.43558E+01



 n o d a l   p r i n t   o u t   f o r   t i m e  s t e p   46605                              ( at time 2.3299668E+01 )

 nodal point  x-rot      y-rot       z-rot       x-rot vel   y-rot vel   z-rot vel   x-rot acc   y-rot acc   z-rot acc
    22626 -2.44925E-01 1.17649E-02-2.39045E-03-1.86287E-02 1.18247E-03-7.60688E-04 2.05342E-04-5.73432E-05-1.48423E-05



 n o d a l   p r i n t   o u t   f o r   t i m e  s t e p   46805                              ( at time 2.3399658E+01 )

 nodal point  x-disp     y-disp      z-disp      x-vel       y-vel       z-vel      x-accl      y-accl      z-accl      x-coor      y-coor      z-coor
    22626  1.11482E+00 2.54727E+01 2.07346E+01 7.93049E-02 1.94248E+00 1.08436E+00-4.32911E-03 1.01933E-02-6.83561E-02 5.77419E+00-2.71817E+00-2.42471E+01



 n o d a l   p r i n t   o u t   f o r   t i m e  s t e p   46805                              ( at time 2.3399658E+01 )

 nodal point  x-rot      y-rot       z-rot       x-rot vel   y-rot vel   z-rot vel   x-rot acc   y-rot acc   z-rot acc
    22626 -2.46787E-01 1.18844E-02-2.46581E-03-1.86199E-02 1.20221E-03-7.50940E-04 8.80926E-05 1.97418E-04 9.74922E-05



 n o d a l   p r i n t   o u t   f o r   t i m e  s t e p   47005                              ( at time 2.3499648E+01 )

 nodal point  x-disp     y-disp      z-disp      x-vel       y-vel       z-vel      x-accl      y-accl      z-accl      x-coor      y-coor      z-coor
    22626  1.12276E+00 2.56670E+01 2.08427E+01 7.99723E-02 1.94510E+00 1.07731E+00 6.67424E-03 2.61402E-02-7.05199E-02 5.78213E+00-2.52380E+00-2.41391E+01



 n o d a l   p r i n t   o u t   f o r   t i m e  s t e p   47005                              ( at time 2.3499648E+01 )

 nodal point  x-rot      y-rot       z-rot       x-rot vel   y-rot vel   z-rot vel   x-rot acc   y-rot acc   z-rot acc
    22626 -2.48651E-01 1.20050E-02-2.54152E-03-1.86254E-02 1.20835E-03-7.68469E-04-5.52884E-05 6.13623E-05-1.75304E-04



 n o d a l   p r i n t   o u t   f o r   t i m e  s t e p   47205                              ( at time 2.3599638E+01 )

 nodal point  x-disp     y-disp      z-disp      x-vel       y-vel       z-vel      x-accl      y-accl      z-accl      x-coor      y-coor      z-coor
    22626  1.13074E+00 2.58615E+01 2.09499E+01 7.97887E-02 1.94376E+00 1.06931E+00-1.83618E-03-1.33243E-02-7.99577E-02 5.79012E+00-2.32938E+00-2.40318E+01



 n o d a l   p r i n t   o u t   f o r   t i m e  s t e p   47205                              ( at time 2.3599638E+01 )

 nodal point  x-rot      y-rot       z-rot       x-rot vel   y-rot vel   z-rot vel   x-rot acc   y-rot acc   z-rot acc
    22626 -2.50513E-01 1.21266E-02-2.61857E-03-1.86140E-02 1.22323E-03-7.65483E-04 1.13876E-04 1.48784E-04 2.98638E-05



 n o d a l   p r i n t   o u t   f o r   t i m e  s t e p   47405                              ( at time 2.3699628E+01 )

 nodal point  x-disp     y-disp      z-disp      x-vel       y-vel       z-vel      x-accl      y-accl      z-accl      x-coor      y-coor      z-coor
    22626  1.13874E+00 2.60559E+01 2.10566E+01 7.99707E-02 1.94528E+00 1.06302E+00 1.82019E-03 1.51612E-02-6.29268E-02 5.79811E+00-2.13493E+00-2.39251E+01



 n o d a l   p r i n t   o u t   f o r   t i m e  s t e p   47405                              ( at time 2.3699628E+01 )

 nodal point  x-rot      y-rot       z-rot       x-rot vel   y-rot vel   z-rot vel   x-rot acc   y-rot acc   z-rot acc
    22626 -2.52375E-01 1.22484E-02-2.69481E-03-1.86262E-02 1.21810E-03-7.70646E-04-1.21884E-04-5.12426E-05-5.16413E-05



 n o d a l   p r i n t   o u t   f o r   t i m e  s t e p   47605                              ( at time 2.3799618E+01 )

 nodal point  x-disp     y-disp      z-disp      x-vel       y-vel       z-vel      x-accl      y-accl      z-accl      x-coor      y-coor      z-coor
    22626  1.14665E+00 2.62504E+01 2.11626E+01 7.88029E-02 1.94495E+00 1.05759E+00-1.16787E-02-3.26670E-03-5.43583E-02 5.80603E+00-1.94043E+00-2.38191E+01



 n o d a l   p r i n t   o u t   f o r   t i m e  s t e p   47605                              ( at time 2.3799618E+01 )

 nodal point  x-rot      y-rot       z-rot       x-rot vel   y-rot vel   z-rot vel   x-rot acc   y-rot acc   z-rot acc
    22626 -2.54237E-01 1.23714E-02-2.77214E-03-1.86300E-02 1.24833E-03-7.79900E-04-3.78345E-05 3.02284E-04-9.25499E-05



 n o d a l   p r i n t   o u t   f o r   t i m e  s t e p   47805                              ( at time 2.3899608E+01 )

 nodal point  x-disp     y-disp      z-disp      x-vel       y-vel       z-vel      x-accl      y-accl      z-accl      x-coor      y-coor      z-coor
    22626  1.15453E+00 2.64448E+01 2.12681E+01 7.95154E-02 1.94411E+00 1.05169E+00 7.12520E-03-8.43960E-03-5.89425E-02 5.81391E+00-1.74601E+00-2.37136E+01



 n o d a l   p r i n t   o u t   f o r   t i m e  s t e p   47805                              ( at time 2.3899608E+01 )

 nodal point  x-rot      y-rot       z-rot       x-rot vel   y-rot vel   z-rot vel   x-rot acc   y-rot acc   z-rot acc
    22626 -2.56098E-01 1.24969E-02-2.85122E-03-1.86073E-02 1.26032E-03-7.96270E-04 2.26965E-04 1.19950E-04-1.63708E-04



 n o d a l   p r i n t   o u t   f o r   t i m e  s t e p   48005                              ( at time 2.3999598E+01 )

 nodal point  x-disp     y-disp      z-disp      x-vel       y-vel       z-vel      x-accl      y-accl      z-accl      x-coor      y-coor      z-coor
    22626  1.16250E+00 2.66392E+01 2.13730E+01 7.95714E-02 1.94401E+00 1.04756E+00 5.60644E-04-1.03724E-03-4.13774E-02 5.82187E+00-1.55164E+00-2.36087E+01



 n o d a l   p r i n t   o u t   f o r   t i m e  s t e p   48005                              ( at time 2.3999598E+01 )

 nodal point  x-rot      y-rot       z-rot       x-rot vel   y-rot vel   z-rot vel   x-rot acc   y-rot acc   z-rot acc
    22626 -2.57960E-01 1.26218E-02-2.93094E-03-1.86117E-02 1.25464E-03-8.02253E-04-4.44663E-05-5.68414E-05-5.98447E-05



 n o d a l   p r i n t   o u t   f o r   t i m e  s t e p   48205                              ( at time 2.4099588E+01 )

 nodal point  x-disp     y-disp      z-disp      x-vel       y-vel       z-vel      x-accl      y-accl      z-accl      x-coor      y-coor      z-coor
    22626  1.17043E+00 2.68335E+01 2.14775E+01 7.86264E-02 1.94314E+00 1.04198E+00-9.45073E-03-8.66612E-03-5.57688E-02 5.82981E+00-1.35731E+00-2.35043E+01



 n o d a l   p r i n t   o u t   f o r   t i m e  s t e p   48205                              ( at time 2.4099588E+01 )

 nodal point  x-rot      y-rot       z-rot       x-rot vel   y-rot vel   z-rot vel   x-rot acc   y-rot acc   z-rot acc
    22626 -2.59823E-01 1.27477E-02-3.01276E-03-1.86222E-02 1.25855E-03-8.30088E-04-1.04988E-04 3.90865E-05-2.78373E-04



 n o d a l   p r i n t   o u t   f o r   t i m e  s t e p   48405                              ( at time 2.4199578E+01 )

 nodal point  x-disp     y-disp      z-disp      x-vel       y-vel       z-vel      x-accl      y-accl      z-accl      x-coor      y-coor      z-coor
    22626  1.17834E+00 2.70278E+01 2.15814E+01 7.94283E-02 1.94149E+00 1.03792E+00 8.01995E-03-1.64813E-02-4.05750E-02 5.83771E+00-1.16307E+00-2.34003E+01



 n o d a l   p r i n t   o u t   f o r   t i m e  s t e p   48405                              ( at time 2.4199578E+01 )

 nodal point  x-rot      y-rot       z-rot       x-rot vel   y-rot vel   z-rot vel   x-rot acc   y-rot acc   z-rot acc
    22626 -2.61684E-01 1.28746E-02-3.09659E-03-1.86044E-02 1.26675E-03-8.56972E-04 1.78126E-04 8.20784E-05-2.68865E-04



 n o d a l   p r i n t   o u t   f o r   t i m e  s t e p   48605                              ( at time 2.4299568E+01 )

 nodal point  x-disp     y-disp      z-disp      x-vel       y-vel       z-vel      x-accl      y-accl      z-accl      x-coor      y-coor      z-coor
    22626  1.18637E+00 2.72218E+01 2.16850E+01 8.03237E-02 1.94030E+00 1.03406E+00 8.95426E-03-1.19471E-02-3.86428E-02 5.84574E+00-9.68998E-01-2.32967E+01



 n o d a l   p r i n t   o u t   f o r   t i m e  s t e p   48605                              ( at time 2.4299568E+01 )

 nodal point  x-rot      y-rot       z-rot       x-rot vel   y-rot vel   z-rot vel   x-rot acc   y-rot acc   z-rot acc
    22626 -2.63545E-01 1.30020E-02-3.18271E-03-1.86229E-02 1.26766E-03-8.77493E-04-1.84326E-04 9.01952E-06-2.05233E-04



 n o d a l   p r i n t   o u t   f o r   t i m e  s t e p   48805                              ( at time 2.4399558E+01 )

 nodal point  x-disp     y-disp      z-disp      x-vel       y-vel       z-vel      x-accl      y-accl      z-accl      x-coor      y-coor      z-coor
    22626  1.19440E+00 2.74158E+01 2.17882E+01 7.99001E-02 1.93962E+00 1.03077E+00-4.23664E-03-6.72402E-03-3.28440E-02 5.85377E+00-7.74988E-01-2.31935E+01



 n o d a l   p r i n t   o u t   f o r   t i m e  s t e p   48805                              ( at time 2.4399558E+01 )

 nodal point  x-rot      y-rot       z-rot       x-rot vel   y-rot vel   z-rot vel   x-rot acc   y-rot acc   z-rot acc
    22626 -2.65407E-01 1.31285E-02-3.27244E-03-1.86181E-02 1.27155E-03-8.96352E-04 4.73714E-05 3.89887E-05-1.88608E-04



 n o d a l   p r i n t   o u t   f o r   t i m e  s t e p   49006                              ( at time 2.4500048E+01 )

 nodal point  x-disp     y-disp      z-disp      x-vel       y-vel       z-vel      x-accl      y-accl      z-accl      x-coor      y-coor      z-coor
    22626  1.20242E+00 2.76106E+01 2.18917E+01 8.07548E-02 1.93741E+00 1.02794E+00 8.50626E-03-2.20758E-02-2.81496E-02 5.86180E+00-5.80186E-01-2.30900E+01



 n o d a l   p r i n t   o u t   f o r   t i m e  s t e p   49006                              ( at time 2.4500048E+01 )

 nodal point  x-rot      y-rot       z-rot       x-rot vel   y-rot vel   z-rot vel   x-rot acc   y-rot acc   z-rot acc
    22626 -2.67277E-01 1.32568E-02-3.36453E-03-1.86040E-02 1.29305E-03-9.35331E-04 1.40854E-04 2.13942E-04-3.87896E-04



 n o d a l   p r i n t   o u t   f o r   t i m e  s t e p   49206                              ( at time 2.4600038E+01 )

 nodal point  x-disp     y-disp      z-disp      x-vel       y-vel       z-vel      x-accl      y-accl      z-accl      x-coor      y-coor      z-coor
    22626  1.21052E+00 2.78043E+01 2.19943E+01 8.10993E-02 1.93571E+00 1.02543E+00 3.44464E-03-1.69972E-02-2.51054E-02 5.86990E+00-3.86555E-01-2.29874E+01



 n o d a l   p r i n t   o u t   f o r   t i m e  s t e p   49206                              ( at time 2.4600038E+01 )

 nodal point  x-rot      y-rot       z-rot       x-rot vel   y-rot vel   z-rot vel   x-rot acc   y-rot acc   z-rot acc
    22626 -2.69138E-01 1.33859E-02-3.46010E-03-1.86004E-02 1.29055E-03-9.70592E-04 3.58219E-05-2.50642E-05-3.52640E-04



 n o d a l   p r i n t   o u t   f o r   t i m e  s t e p   49406                              ( at time 2.4700028E+01 )

 nodal point  x-disp     y-disp      z-disp      x-vel       y-vel       z-vel      x-accl      y-accl      z-accl      x-coor      y-coor      z-coor
    22626  1.21851E+00 2.79977E+01 2.20968E+01 8.00582E-02 1.93425E+00 1.02416E+00-1.04117E-02-1.45356E-02-1.27747E-02 5.87789E+00-1.93094E-01-2.28849E+01



 n o d a l   p r i n t   o u t   f o r   t i m e  s t e p   49406                              ( at time 2.4700028E+01 )

 nodal point  x-rot      y-rot       z-rot       x-rot vel   y-rot vel   z-rot vel   x-rot acc   y-rot acc   z-rot acc
    22626 -2.70998E-01 1.35151E-02-3.55750E-03-1.86111E-02 1.29976E-03-9.78539E-04-1.06890E-04 9.21087E-05-7.94727E-05



 n o d a l   p r i n t   o u t   f o r   t i m e  s t e p   49606                              ( at time 2.4800018E+01 )

 nodal point  x-disp     y-disp      z-disp      x-vel       y-vel       z-vel      x-accl      y-accl      z-accl      x-coor      y-coor      z-coor
    22626  1.22653E+00 2.81909E+01 2.21991E+01 7.99619E-02 1.93123E+00 1.02220E+00-9.63448E-04-3.02056E-02-1.95879E-02 5.88590E+00 1.14926E-04-2.27826E+01



 n o d a l   p r i n t   o u t   f o r   t i m e  s t e p   49606                              ( at time 2.4800018E+01 )

 nodal point  x-rot      y-rot       z-rot       x-rot vel   y-rot vel   z-rot vel   x-rot acc   y-rot acc   z-rot acc
    22626 -2.72858E-01 1.36454E-02-3.65683E-03-1.85886E-02 1.31297E-03-1.01047E-03 2.25308E-04 1.32140E-04-3.19306E-04



 n o d a l   p r i n t   o u t   f o r   t i m e  s t e p   49806                              ( at time 2.4900008E+01 )

 nodal point  x-disp     y-disp      z-disp      x-vel       y-vel       z-vel      x-accl      y-accl      z-accl      x-coor      y-coor      z-coor
    22626  1.23455E+00 2.83839E+01 2.23013E+01 8.02140E-02 1.92865E+00 1.02155E+00 2.52118E-03-2.58403E-02-6.53220E-03 5.89393E+00 1.93096E-01-2.26804E+01



 n o d a l   p r i n t   o u t   f o r   t i m e  s t e p   49806                              ( at time 2.4900008E+01 )

 nodal point  x-rot      y-rot       z-rot       x-rot vel   y-rot vel   z-rot vel   x-rot acc   y-rot acc   z-rot acc
    22626 -2.74717E-01 1.37770E-02-3.75943E-03-1.85804E-02 1.31625E-03-1.03988E-03 8.16115E-05 3.27676E-05-2.94187E-04



 n o d a l   p r i n t   o u t   f o r   t i m e  s t e p   50006                              ( at time 2.4999998E+01 )

 nodal point  x-disp     y-disp      z-disp      x-vel       y-vel       z-vel      x-accl      y-accl      z-accl      x-coor      y-coor      z-coor
    22626  1.24261E+00 2.85767E+01 2.24034E+01 7.97018E-02 1.92554E+00 1.02063E+00-5.12177E-03-3.10736E-02-9.18353E-03 5.90199E+00 3.85822E-01-2.25783E+01



 n o d a l   p r i n t   o u t   f o r   t i m e  s t e p   50006                              ( at time 2.4999998E+01 )

 nodal point  x-rot      y-rot       z-rot       x-rot vel   y-rot vel   z-rot vel   x-rot acc   y-rot acc   z-rot acc
    22626 -2.76575E-01 1.39093E-02-3.86450E-03-1.85765E-02 1.31859E-03-1.06318E-03 3.88583E-05 2.34377E-05-2.32972E-04
