 LSTC 50th% Full_FE H-III Dummy (Beta Version, February 17, 2019)        
                    ls-dyna smp s R16 R16.0_619_d222963 date 03/18/2025

{BEGIN LEGEND}
 Entity #        Title
        1     Upper_Neck_Force_INJURY                                              
{END LEGEND}



 line#1  section#     time        x-force     y-force     z-force    magnitude
 line#2  resultant  moments       x-moment    y-moment    z-moment   magnitude
 line#3  centroids                x           y           z            area  
           1    0.00000E+00     0.0000E+00  0.0000E+00  0.0000E+00  0.0000E+00
ac ID =   33377                 0.0000E+00  0.0000E+00  0.0000E+00  0.0000E+00
                               -3.7437E-01  1.0501E+01 -4.6940E+01  0.0000E+00

           1    1.00490E-01     1.3593E-04 -4.9878E-03  2.5982E-01  2.5987E-01
ac ID =   33377                 4.2549E-01 -1.2522E+00 -2.7108E-02  1.3227E+00
                               -3.7387E-01  1.0590E+01 -4.6886E+01  2.5147E+03

           1    2.00480E-01    -4.4391E-02  6.7961E-04  4.4117E-01  4.4339E-01
ac ID =   33377                 3.1274E-01 -1.5972E+00  2.1897E-02  1.6277E+00
                               -3.7386E-01  1.0591E+01 -4.6888E+01  2.5147E+03

           1    3.00470E-01     1.4304E-02 -3.1140E-03  2.1751E-01  2.1800E-01
ac ID =   33377                 1.9066E-02 -3.4375E-01  6.6431E-02  3.5063E-01
                               -3.7382E-01  1.0591E+01 -4.6889E+01  2.5147E+03

           1    4.00460E-01     2.9540E-03  1.0819E-02  8.8424E-02  8.9133E-02
ac ID =   33377                -4.9178E-01 -9.5336E-01  3.9429E-03  1.0727E+00
                               -3.7383E-01  1.0592E+01 -4.6890E+01  2.5147E+03

           1    5.00450E-01    -4.0234E-02  4.0751E-03  1.6374E-01  1.6866E-01
ac ID =   33377                -3.9729E-01 -1.4880E+00 -1.0911E-01  1.5440E+00
                               -3.7385E-01  1.0594E+01 -4.6893E+01  2.5147E+03

           1    6.00440E-01    -1.0182E-02  3.6548E-03  3.4764E-01  3.4781E-01
ac ID =   33377                 1.0163E-01 -1.2907E+00 -3.8236E-02  1.2952E+00
                               -3.7386E-01  1.0595E+01 -4.6897E+01  2.5147E+03

           1    7.00430E-01     2.0149E-03 -5.0714E-03  2.9593E-01  2.9598E-01
ac ID =   33377                 1.2525E-01 -5.0573E-01  9.6138E-02  5.2981E-01
                               -3.7390E-01  1.0597E+01 -4.6901E+01  2.5147E+03

           1    8.00420E-01    -2.8932E-02 -7.7983E-04  1.0219E-01  1.0621E-01
ac ID =   33377                 7.0222E-02 -9.9312E-01  5.1068E-02  9.9691E-01
                               -3.7395E-01  1.0599E+01 -4.6904E+01  2.5147E+03

           1    9.00410E-01    -3.8116E-02  3.1733E-04  6.7605E-02  7.7610E-02
ac ID =   33377                 9.5195E-02 -1.0186E+00 -7.1212E-03  1.0230E+00
                               -3.7400E-01  1.0601E+01 -4.6909E+01  2.5147E+03

           1    1.00040E+00     1.6666E-02 -3.8344E-03  2.3108E-01  2.3171E-01
ac ID =   33377                 3.5762E-01 -2.3585E-01 -5.6954E-02  4.3216E-01
                               -3.7401E-01  1.0604E+01 -4.6915E+01  2.5147E+03

           1    1.10039E+00     2.3808E-03 -2.4298E-03  2.7545E-01  2.7547E-01
ac ID =   33377                 3.3279E-01 -7.9472E-01 -3.8708E-02  8.6245E-01
                               -3.7402E-01  1.0606E+01 -4.6921E+01  2.5147E+03

           1    1.20038E+00    -3.0070E-02 -2.1862E-04  1.2955E-01  1.3299E-01
ac ID =   33377                -1.7063E-01 -1.0639E+00  9.9594E-03  1.0775E+00
                               -3.7405E-01  1.0609E+01 -4.6926E+01  2.5147E+03

           1    1.30037E+00    -6.7037E-03  4.8615E-03  8.4287E-02  8.4693E-02
ac ID =   33377                -3.0055E-01 -7.6072E-01  2.3970E-03  8.1794E-01
                               -3.7408E-01  1.0612E+01 -4.6932E+01  2.5147E+03

           1    1.40036E+00     9.2939E-03  3.5888E-03  1.8982E-01  1.9008E-01
ac ID =   33377                -3.0152E-01 -7.1621E-01  2.8067E-02  7.7760E-01
                               -3.7410E-01  1.0615E+01 -4.6939E+01  2.5147E+03

           1    1.50035E+00    -2.2978E-02  7.4643E-04  3.3592E-01  3.3670E-01
ac ID =   33377                -1.3186E-02 -1.4207E+00 -1.8759E-02  1.4208E+00
                               -3.7414E-01  1.0619E+01 -4.6947E+01  2.5147E+03

           1    1.60034E+00    -1.4882E-02 -1.2989E-03  2.2296E-01  2.2346E-01
ac ID =   33377                -5.0141E-02 -1.1439E+00 -1.7321E-02  1.1452E+00
                               -3.7421E-01  1.0622E+01 -4.6954E+01  2.5147E+03

           1    1.70033E+00     2.8595E-03 -6.0071E-04  6.9144E-02  6.9206E-02
ac ID =   33377                -5.2098E-02 -4.5546E-01  9.1431E-02  4.6746E-01
                               -3.7427E-01  1.0626E+01 -4.6962E+01  2.5147E+03

           1    1.80032E+00    -1.7741E-02  9.2758E-04  9.4670E-02  9.6322E-02
ac ID =   33377                 9.2901E-02 -9.5930E-01  1.1049E-01  9.7010E-01
                               -3.7434E-01  1.0630E+01 -4.6970E+01  2.5147E+03

           1    1.90031E+00    -2.6991E-03 -1.6951E-03  2.0274E-01  2.0277E-01
ac ID =   33377                 2.1102E-01 -5.9401E-01 -7.5047E-02  6.3483E-01
                               -3.7438E-01  1.0634E+01 -4.6980E+01  2.5147E+03

           1    2.00030E+00     4.9265E-03 -3.2236E-03  1.5828E-01  1.5839E-01
ac ID =   33377                 1.8634E-01 -1.4809E-01 -1.4057E-01  2.7643E-01
                               -3.7442E-01  1.0638E+01 -4.6988E+01  2.5147E+03

           1    2.10029E+00    -2.0052E-02  1.4331E-03  1.0819E-02  2.2829E-02
ac ID =   33377                -9.2776E-02 -4.4216E-01  2.0944E-02  4.5227E-01
                               -3.7447E-01  1.0643E+01 -4.6997E+01  2.5147E+03

           1    2.20028E+00    -6.1754E-03  5.1898E-03  1.7066E-02  1.8876E-02
ac ID =   33377                -2.5644E-01 -3.5205E-01  6.1624E-02  4.3989E-01
                               -3.7451E-01  1.0647E+01 -4.7007E+01  2.5147E+03

           1    2.30027E+00     1.1918E-02  5.3934E-03  1.6442E-01  1.6494E-01
ac ID =   33377                -1.9235E-01 -4.4381E-01 -4.6763E-02  4.8595E-01
                               -3.7454E-01  1.0652E+01 -4.7017E+01  2.5147E+03

           1    2.40026E+00    -7.8963E-03 -2.1512E-03  1.9045E-01  1.9063E-01
ac ID =   33377                -1.4831E-01 -8.3563E-01  1.1689E-01  8.5670E-01
                               -3.7459E-01  1.0657E+01 -4.7027E+01  2.5147E+03

           1    2.50025E+00    -4.0803E-03  2.2965E-03  2.3230E-03  5.2267E-03
ac ID =   33377                -1.9553E-01 -3.7850E-01  1.8503E-01  4.6447E-01
                               -3.7466E-01  1.0662E+01 -4.7036E+01  2.5147E+03

           1    2.60024E+00     1.3159E-02  8.6534E-03 -6.0169E-02  6.2196E-02
ac ID =   33377                -2.6530E-01  4.2515E-01  2.8685E-02  5.0196E-01
                               -3.7471E-01  1.0668E+01 -4.7046E+01  2.5147E+03

           1    2.70023E+00     3.8122E-03 -4.7256E-03  1.2213E-02  1.3639E-02
ac ID =   33377                 1.2711E-01  3.9488E-01  1.0765E-01  4.2858E-01
                               -3.7476E-01  1.0674E+01 -4.7057E+01  2.5147E+03

           1    2.80022E+00     1.8388E-02 -1.9943E-03  4.9468E-02  5.2813E-02
ac ID =   33377                 3.4987E-01  6.6214E-01  9.6724E-02  7.5512E-01
                               -3.7479E-01  1.0680E+01 -4.7067E+01  2.5147E+03

           1    2.90021E+00     3.8863E-02  4.8476E-04 -2.6088E-02  4.6810E-02
ac ID =   33377                 1.4258E-01  1.3604E+00 -1.7250E-01  1.3787E+00
                               -3.7480E-01  1.0686E+01 -4.7078E+01  2.5147E+03

           1    3.00020E+00     2.5783E-02  3.2613E-04 -1.1447E-01  1.1734E-01
ac ID =   33377                 4.7851E-02  1.2278E+00 -9.2169E-02  1.2322E+00
                               -3.7481E-01  1.0693E+01 -4.7088E+01  2.5147E+03

           1    3.10019E+00     3.1041E-02 -1.5293E-03 -2.8089E-02  4.1891E-02
ac ID =   33377                 4.6300E-02  7.7493E-01  9.8716E-02  7.8256E-01
                               -3.7478E-01  1.0700E+01 -4.7099E+01  2.5147E+03

           1    3.20018E+00     5.6011E-02  1.3203E-03  3.2972E-02  6.5008E-02
ac ID =   33377                 1.5614E-01  1.2602E+00 -1.6823E-01  1.2810E+00
                               -3.7476E-01  1.0709E+01 -4.7111E+01  2.5147E+03

           1    3.30017E+00     4.7882E-02 -5.7842E-03 -5.2868E-02  7.1563E-02
ac ID =   33377                 3.5349E-02  1.3152E+00  1.0582E-02  1.3157E+00
                               -3.7477E-01  1.0717E+01 -4.7122E+01  2.5147E+03

           1    3.40016E+00     4.5524E-02 -1.1172E-02 -1.7374E-01  1.7995E-01
ac ID =   33377                -5.9081E-02  1.1986E+00  6.2438E-01  1.3528E+00
                               -3.7485E-01  1.0727E+01 -4.7133E+01  2.5147E+03

           1    3.50015E+00     5.5417E-02  2.6965E-03 -1.9947E-01  2.0704E-01
ac ID =   33377                 5.1811E-02  2.0594E+00  1.3890E-01  2.0647E+00
                               -3.7498E-01  1.0737E+01 -4.7145E+01  2.5147E+03

           1    3.60014E+00     6.9323E-02 -1.4382E-02 -1.4619E-01  1.6243E-01
ac ID =   33377                 6.3155E-01  2.7368E+00 -4.8832E-01  2.8508E+00
                               -3.7514E-01  1.0749E+01 -4.7158E+01  2.5147E+03

           1    3.70013E+00     7.2479E-02 -2.1485E-02 -1.3842E-01  1.5772E-01
ac ID =   33377                 9.3930E-01  2.6624E+00  1.6781E-01  2.8282E+00
                               -3.7539E-01  1.0762E+01 -4.7171E+01  2.5147E+03

           1    3.80012E+00     6.7084E-02 -7.7476E-03 -2.7252E-01  2.8076E-01
ac ID =   33377                 5.9041E-01  3.2165E+00  3.5351E-01  3.2893E+00
                               -3.7569E-01  1.0776E+01 -4.7183E+01  2.5147E+03

           1    3.90011E+00     8.1438E-02  1.1118E-03 -3.2635E-01  3.3636E-01
ac ID =   33377                 6.5093E-01  3.4449E+00  4.6616E-01  3.5367E+00
                               -3.7602E-01  1.0791E+01 -4.7196E+01  2.5147E+03

           1    4.00010E+00     7.7392E-02  2.1923E-04 -2.4956E-01  2.6128E-01
ac ID =   33377                 4.7281E-01  2.7177E+00  1.2958E-01  2.7616E+00
                               -3.7633E-01  1.0807E+01 -4.7210E+01  2.5147E+03

           1    4.10009E+00     7.1717E-02  3.1343E-03 -2.6434E-01  2.7391E-01
ac ID =   33377                 3.7161E-01  2.6671E+00 -6.0831E-01  2.7607E+00
                               -3.7662E-01  1.0825E+01 -4.7224E+01  2.5147E+03

           1    4.20008E+00     7.6613E-02 -2.1939E-02 -3.5484E-01  3.6368E-01
ac ID =   33377                 3.9551E-01  2.9175E+00  3.1216E-01  2.9607E+00
                               -3.7692E-01  1.0844E+01 -4.7237E+01  2.5147E+03

           1    4.30007E+00     9.9617E-02 -1.5960E-03 -4.3039E-01  4.4177E-01
ac ID =   33377                 3.3868E-01  3.2071E+00  3.5212E-01  3.2441E+00
                               -3.7728E-01  1.0864E+01 -4.7251E+01  2.5147E+03

           1    4.40006E+00     7.7715E-02  1.6006E-02 -4.0079E-01  4.0857E-01
ac ID =   33377                 7.7425E-02  3.2669E+00 -4.3672E-02  3.2681E+00
                               -3.7759E-01  1.0886E+01 -4.7265E+01  2.5147E+03

           1    4.50005E+00     1.0116E-01 -2.7528E-02 -3.5317E-01  3.6841E-01
ac ID =   33377                 1.2363E+00  3.8270E+00  4.8067E-01  4.0504E+00
                               -3.7779E-01  1.0910E+01 -4.7280E+01  2.5147E+03

           1    4.60004E+00     1.1734E-01 -2.6490E-02 -4.1426E-01  4.3137E-01
ac ID =   33377                 1.0187E+00  4.3264E+00  3.1130E-01  4.4556E+00
                               -3.7801E-01  1.0935E+01 -4.7294E+01  2.5147E+03

           1    4.70003E+00     9.0579E-02  2.1594E-02 -5.0661E-01  5.1510E-01
ac ID =   33377                 6.6726E-01  4.0789E+00  3.6266E-01  4.1490E+00
                               -3.7822E-01  1.0961E+01 -4.7308E+01  2.5147E+03

           1    4.80002E+00     1.1483E-01  4.2694E-03 -5.1762E-01  5.3022E-01
ac ID =   33377                 8.3389E-01  3.7116E+00 -1.8639E-01  3.8087E+00
                               -3.7834E-01  1.0989E+01 -4.7322E+01  2.5147E+03

           1    4.90001E+00     7.3062E-02 -5.6105E-03 -5.0965E-01  5.1489E-01
ac ID =   33377                 6.9768E-01  3.2574E+00 -8.8141E-01  3.4459E+00
                               -3.7841E-01  1.1020E+01 -4.7337E+01  2.5147E+03

           1    5.00000E+00     9.9362E-02 -1.6745E-02 -5.5730E-01  5.6634E-01
ac ID =   33377                 6.4766E-01  3.9818E+00 -2.2938E-01  4.0406E+00
                               -3.7839E-01  1.1051E+01 -4.7352E+01  2.5147E+03

           1    5.10049E+00     1.2079E-01 -3.7198E-03 -5.7148E-01  5.8412E-01
ac ID =   33377                -1.4354E-01  3.7659E+00  6.8240E-01  3.8299E+00
                               -3.7838E-01  1.1085E+01 -4.7366E+01  2.5147E+03

           1    5.20048E+00     1.2334E-01  2.7678E-04 -6.7075E-01  6.8200E-01
ac ID =   33377                 6.6419E-01  3.9774E+00  8.6430E-01  4.1240E+00
                               -3.7835E-01  1.1120E+01 -4.7380E+01  2.5147E+03

           1    5.30047E+00     7.7263E-02  1.6140E-02 -6.5362E-01  6.5837E-01
ac ID =   33377                -1.1982E-01  4.2290E+00  4.5848E-01  4.2555E+00
                               -3.7798E-01  1.1157E+01 -4.7395E+01  2.5147E+03

           1    5.40046E+00     1.3567E-01  8.1636E-03 -6.9306E-01  7.0626E-01
ac ID =   33377                 9.8588E-01  4.1773E+00 -1.8410E-01  4.2960E+00
                               -3.7760E-01  1.1196E+01 -4.7409E+01  2.5147E+03

           1    5.50045E+00     1.0797E-01 -1.4989E-02 -7.4025E-01  7.4823E-01
ac ID =   33377                 5.4229E-01  3.6865E+00  5.3978E-01  3.7650E+00
                               -3.7708E-01  1.1236E+01 -4.7424E+01  2.5147E+03

           1    5.60044E+00     1.1231E-01  4.6018E-02 -8.4537E-01  8.5404E-01
ac ID =   33377                 4.2694E-01  4.3791E+00  3.3483E-01  4.4125E+00
                               -3.7646E-01  1.1278E+01 -4.7437E+01  2.5147E+03

           1    5.70043E+00     1.0029E-01 -5.7593E-03 -8.6219E-01  8.6803E-01
ac ID =   33377                 2.6309E-01  3.5785E+00 -9.1663E-01  3.7034E+00
                               -3.7551E-01  1.1321E+01 -4.7451E+01  2.5147E+03

           1    5.80042E+00     1.1868E-01 -5.0900E-03 -8.4200E-01  8.5034E-01
ac ID =   33377                 1.2257E+00  3.7894E+00 -1.2719E+00  4.1809E+00
                               -3.7455E-01  1.1366E+01 -4.7464E+01  2.5147E+03

           1    5.90041E+00     1.0719E-01  2.2181E-02 -8.9565E-01  9.0231E-01
ac ID =   33377                -1.5663E-01  4.4093E+00  4.3727E-02  4.4123E+00
                               -3.7351E-01  1.1412E+01 -4.7477E+01  2.5147E+03

           1    6.00040E+00     1.3404E-01  2.2502E-02 -9.6403E-01  9.7356E-01
ac ID =   33377                -2.3322E-01  4.2715E+00  2.3280E-02  4.2779E+00
                               -3.7226E-01  1.1460E+01 -4.7490E+01  2.5147E+03

           1    6.10039E+00     1.1590E-01 -1.4312E-02 -9.4356E-01  9.5076E-01
ac ID =   33377                 7.7236E-01  3.5211E+00 -2.4982E-01  3.6134E+00
                               -3.7093E-01  1.1510E+01 -4.7502E+01  2.5147E+03

           1    6.20038E+00     1.1570E-01  1.3561E-02 -9.4381E-01  9.5097E-01
ac ID =   33377                -5.0030E-01  3.7099E+00 -3.2311E-01  3.7574E+00
                               -3.6948E-01  1.1561E+01 -4.7514E+01  2.5147E+03

           1    6.30037E+00     1.7191E-01  1.2283E-02 -1.0040E+00  1.0187E+00
ac ID =   33377                 7.1694E-01  4.5399E+00 -8.4212E-01  4.6727E+00
                               -3.6799E-01  1.1614E+01 -4.7525E+01  2.5147E+03

           1    6.40036E+00     8.4310E-02  2.0727E-02 -1.0955E+00  1.0989E+00
ac ID =   33377                 7.5071E-02  2.8843E+00  1.0295E+00  3.0634E+00
                               -3.6640E-01  1.1668E+01 -4.7536E+01  2.5147E+03

           1    6.50035E+00     1.3936E-01 -4.1092E-03 -1.1328E+00  1.1413E+00
ac ID =   33377                 1.0050E+00  3.9317E+00  3.6662E-01  4.0746E+00
                               -3.6480E-01  1.1723E+01 -4.7546E+01  2.5147E+03

           1    6.60034E+00     1.4015E-01  1.2506E-02 -1.1303E+00  1.1391E+00
ac ID =   33377                -6.5121E-01  4.6713E+00 -8.7735E-01  4.7974E+00
                               -3.6310E-01  1.1780E+01 -4.7555E+01  2.5147E+03

           1    6.70033E+00     1.7108E-01 -1.3574E-02 -1.1698E+00  1.1823E+00
ac ID =   33377                 1.2408E+00  4.3601E+00  1.5561E-01  4.5359E+00
                               -3.6128E-01  1.1839E+01 -4.7564E+01  2.5147E+03

           1    6.80032E+00     1.1014E-01 -1.3410E-02 -1.2240E+00  1.2290E+00
ac ID =   33377                 7.6978E-01  3.5527E+00  1.7623E-01  3.6394E+00
                               -3.5949E-01  1.1899E+01 -4.7572E+01  2.5147E+03

           1    6.90031E+00     1.9709E-01  3.0614E-02 -1.2950E+00  1.3103E+00
ac ID =   33377                -4.5964E-01  5.1789E+00  5.3788E-01  5.2270E+00
                               -3.5759E-01  1.1961E+01 -4.7580E+01  2.5147E+03

           1    7.00030E+00     1.6794E-01 -2.0186E-02 -1.2741E+00  1.2853E+00
ac ID =   33377                 1.0224E+00  4.8010E+00  5.7675E-01  4.9424E+00
                               -3.5580E-01  1.2024E+01 -4.7586E+01  2.5147E+03

           1    7.10029E+00     1.3294E-01  1.2096E-02 -1.3187E+00  1.3255E+00
ac ID =   33377                -6.3707E-02  3.8633E+00 -1.4124E-01  3.8664E+00
                               -3.5383E-01  1.2089E+01 -4.7592E+01  2.5147E+03

           1    7.20028E+00     1.5243E-01 -8.1477E-03 -1.4152E+00  1.4234E+00
ac ID =   33377                 4.8858E-01  4.7343E+00 -9.7497E-01  4.8583E+00
                               -3.5170E-01  1.2155E+01 -4.7597E+01  2.5147E+03

           1    7.30027E+00     2.0193E-01  5.3962E-03 -1.4721E+00  1.4859E+00
ac ID =   33377                 7.2843E-01  5.8866E+00 -7.6335E-01  5.9804E+00
                               -3.4973E-01  1.2222E+01 -4.7601E+01  2.5147E+03

           1    7.40026E+00     1.7569E-01  3.2199E-02 -1.4882E+00  1.4989E+00
ac ID =   33377                 3.5954E-01  5.5553E+00 -3.5389E-01  5.5782E+00
                               -3.4759E-01  1.2291E+01 -4.7603E+01  2.5147E+03

           1    7.50025E+00     1.5790E-01 -3.0547E-02 -1.5222E+00  1.5306E+00
ac ID =   33377                 1.0593E+00  5.9045E+00  5.8179E-01  6.0269E+00
                               -3.4535E-01  1.2362E+01 -4.7605E+01  2.5147E+03

           1    7.60024E+00     1.9028E-01 -1.5734E-02 -1.5510E+00  1.5627E+00
ac ID =   33377                 7.8313E-01  6.3361E+00  5.6915E-01  6.4096E+00
                               -3.4295E-01  1.2434E+01 -4.7606E+01  2.5147E+03

           1    7.70023E+00     1.9884E-01  1.0726E-02 -1.5635E+00  1.5762E+00
ac ID =   33377                 7.1843E-01  6.1847E+00 -3.6779E-01  6.2371E+00
                               -3.4070E-01  1.2508E+01 -4.7605E+01  2.5147E+03

           1    7.80022E+00     2.2963E-01  4.9123E-02 -1.6018E+00  1.6189E+00
ac ID =   33377                -1.1652E-02  6.6504E+00  3.5572E-01  6.6599E+00
                               -3.3814E-01  1.2583E+01 -4.7604E+01  2.5147E+03

           1    7.90021E+00     2.0973E-01 -5.4931E-02 -1.6073E+00  1.6218E+00
ac ID =   33377                 8.1775E-01  6.4672E+00  1.7337E-01  6.5210E+00
                               -3.3548E-01  1.2659E+01 -4.7601E+01  2.5147E+03

           1    8.00020E+00     1.9069E-01  3.7302E-03 -1.6644E+00  1.6752E+00
ac ID =   33377                 7.3212E-01  6.7793E+00  8.0006E-02  6.8192E+00
                               -3.3298E-01  1.2738E+01 -4.7597E+01  2.5147E+03

           1    8.10019E+00     2.0350E-01  8.6561E-03 -1.7657E+00  1.7774E+00
ac ID =   33377                 3.8568E-01  7.3594E+00 -3.1928E-01  7.3764E+00
                               -3.3030E-01  1.2817E+01 -4.7592E+01  2.5147E+03

           1    8.20018E+00     3.0046E-01  2.1049E-02 -1.7690E+00  1.7945E+00
ac ID =   33377                 6.7115E-01  8.5279E+00 -1.0869E+00  8.6230E+00
                               -3.2759E-01  1.2899E+01 -4.7586E+01  2.5147E+03

           1    8.30017E+00     2.2032E-01 -4.2679E-02 -1.7887E+00  1.8027E+00
ac ID =   33377                 1.4354E+00  7.7666E+00  4.8408E-01  7.9129E+00
                               -3.2485E-01  1.2981E+01 -4.7579E+01  2.5147E+03

           1    8.40016E+00     2.4861E-01 -2.8065E-02 -1.8282E+00  1.8453E+00
ac ID =   33377                 1.3606E+00  8.5543E+00  8.6617E-01  8.7050E+00
                               -3.2200E-01  1.3066E+01 -4.7570E+01  2.5147E+03

           1    8.50015E+00     2.7667E-01  1.0610E-02 -1.8475E+00  1.8682E+00
ac ID =   33377                 6.9605E-01  8.7122E+00  2.4273E-01  8.7433E+00
                               -3.1920E-01  1.3151E+01 -4.7560E+01  2.5147E+03

           1    8.60014E+00     2.6046E-01 -1.9446E-02 -1.8997E+00  1.9175E+00
ac ID =   33377                 2.0205E+00  9.5231E+00 -4.4778E-01  9.7454E+00
                               -3.1634E-01  1.3239E+01 -4.7549E+01  2.5147E+03

           1    8.70013E+00     2.7353E-01  3.4436E-03 -1.9283E+00  1.9476E+00
ac ID =   33377                 5.7143E-01  9.3392E+00 -4.1274E-01  9.3658E+00
                               -3.1344E-01  1.3327E+01 -4.7536E+01  2.5147E+03

           1    8.80012E+00     2.7156E-01  2.3974E-02 -1.9458E+00  1.9648E+00
ac ID =   33377                 3.3048E-01  8.8773E+00 -5.4768E-01  8.9003E+00
                               -3.1047E-01  1.3417E+01 -4.7522E+01  2.5147E+03

           1    8.90011E+00     2.1793E-01 -3.5934E-02 -1.9063E+00  1.9191E+00
ac ID =   33377                 1.3710E+00  8.6509E+00 -2.7515E-01  8.7632E+00
                               -3.0735E-01  1.3508E+01 -4.7507E+01  2.5147E+03

           1    9.00010E+00     2.8526E-01 -2.4143E-02 -2.0070E+00  2.0273E+00
ac ID =   33377                 1.4092E+00  9.5756E+00  3.4579E-01  9.6849E+00
                               -3.0425E-01  1.3600E+01 -4.7489E+01  2.5147E+03

           1    9.10009E+00     3.1612E-01  4.0693E-02 -2.0037E+00  2.0289E+00
ac ID =   33377                 8.3660E-01  1.0324E+01  5.3724E-01  1.0371E+01
                               -3.0121E-01  1.3693E+01 -4.7470E+01  2.5147E+03

           1    9.20008E+00     2.3532E-01 -1.1428E-02 -2.0826E+00  2.0959E+00
ac ID =   33377                 1.8542E+00  9.0984E+00  1.9412E-01  9.2874E+00
                               -2.9795E-01  1.3788E+01 -4.7448E+01  2.5147E+03

           1    9.30007E+00     2.6891E-01 -2.9094E-02 -2.0604E+00  2.0781E+00
ac ID =   33377                 2.1636E+00  1.0051E+01  3.2422E-01  1.0287E+01
                               -2.9462E-01  1.3883E+01 -4.7426E+01  2.5147E+03

           1    9.40006E+00     3.3668E-01 -1.6462E-02 -2.0095E+00  2.0376E+00
ac ID =   33377                 1.2279E+00  9.7438E+00 -1.0094E-01  9.8214E+00
                               -2.9111E-01  1.3980E+01 -4.7401E+01  2.5147E+03

           1    9.50005E+00     2.7142E-01  3.8147E-02 -2.1246E+00  2.1422E+00
ac ID =   33377                 6.3998E-01  1.0071E+01 -6.5240E-01  1.0112E+01
                               -2.8787E-01  1.4078E+01 -4.7375E+01  2.5147E+03

           1    9.60004E+00     2.7624E-01 -3.0165E-02 -2.1292E+00  2.1472E+00
ac ID =   33377                 1.7088E+00  1.0003E+01  6.2750E-01  1.0167E+01
                               -2.8412E-01  1.4176E+01 -4.7347E+01  2.5147E+03

           1    9.70003E+00     3.3215E-01 -1.1326E-02 -2.1278E+00  2.1536E+00
ac ID =   33377                 7.0472E-01  1.0727E+01  1.4096E+00  1.0842E+01
                               -2.8043E-01  1.4276E+01 -4.7317E+01  2.5147E+03

           1    9.80002E+00     2.7824E-01  3.5833E-02 -2.1150E+00  2.1335E+00
ac ID =   33377                 4.1494E-01  9.9970E+00  2.1191E-01  1.0008E+01
                               -2.7691E-01  1.4378E+01 -4.7285E+01  2.5147E+03

           1    9.90001E+00     2.7728E-01 -7.5318E-03 -2.1496E+00  2.1674E+00
ac ID =   33377                 6.1625E-01  9.9863E+00  7.3671E-02  1.0006E+01
                               -2.7297E-01  1.4480E+01 -4.7252E+01  2.5147E+03

           1    1.00005E+01     2.9960E-01 -4.8102E-02 -2.2047E+00  2.2255E+00
ac ID =   33377                 1.1945E+00  1.1243E+01  3.1360E-01  1.1310E+01
                               -2.6895E-01  1.4585E+01 -4.7216E+01  2.5147E+03

           1    1.01005E+01     3.7437E-01  2.3511E-02 -2.1718E+00  2.2039E+00
ac ID =   33377                 7.8323E-01  1.1077E+01  8.3264E-01  1.1136E+01
                               -2.6507E-01  1.4690E+01 -4.7179E+01  2.5147E+03

           1    1.02005E+01     2.8538E-01  4.6612E-02 -2.2462E+00  2.2647E+00
ac ID =   33377                 7.5298E-01  1.0843E+01 -6.5923E-01  1.0889E+01
                               -2.6085E-01  1.4796E+01 -4.7140E+01  2.5147E+03

           1    1.03005E+01     3.1848E-01 -4.7638E-02 -2.2404E+00  2.2634E+00
ac ID =   33377                 1.2539E+00  1.0062E+01 -1.1439E+00  1.0204E+01
                               -2.5638E-01  1.4903E+01 -4.7099E+01  2.5147E+03

           1    1.04005E+01     3.3319E-01 -1.7750E-02 -2.2529E+00  2.2775E+00
ac ID =   33377                 6.6580E-01  1.0675E+01 -6.4138E-01  1.0715E+01
                               -2.5203E-01  1.5012E+01 -4.7056E+01  2.5147E+03

           1    1.05004E+01     3.0676E-01  2.7676E-02 -2.2502E+00  2.2712E+00
ac ID =   33377                 1.4796E-01  1.0082E+01  6.4839E-02  1.0084E+01
                               -2.4752E-01  1.5122E+01 -4.7011E+01  2.5147E+03

           1    1.06004E+01     2.9330E-01  5.4696E-03 -2.2181E+00  2.2374E+00
ac ID =   33377                 7.6271E-01  9.7550E+00  1.6382E-01  9.7862E+00
                               -2.4295E-01  1.5232E+01 -4.6964E+01  2.5147E+03

           1    1.07004E+01     3.4307E-01 -2.3220E-03 -2.2159E+00  2.2423E+00
ac ID =   33377                 7.9945E-01  1.0538E+01 -3.9273E-01  1.0576E+01
                               -2.3829E-01  1.5344E+01 -4.6915E+01  2.5147E+03

           1    1.08004E+01     3.0404E-01  2.6635E-02 -2.2394E+00  2.2601E+00
ac ID =   33377                 7.9671E-02  9.5400E+00 -6.4457E-01  9.5621E+00
                               -2.3365E-01  1.5458E+01 -4.6864E+01  2.5147E+03

           1    1.09004E+01     2.9174E-01 -8.5524E-03 -2.2287E+00  2.2477E+00
ac ID =   33377                 2.0456E-01  9.7142E+00 -3.9836E-01  9.7245E+00
                               -2.2891E-01  1.5572E+01 -4.6811E+01  2.5147E+03

           1    1.10004E+01     3.4416E-01  6.3477E-04 -2.2147E+00  2.2412E+00
ac ID =   33377                 7.0026E-01  9.9596E+00  8.9213E-01  1.0024E+01
                               -2.2398E-01  1.5688E+01 -4.6756E+01  2.5147E+03

           1    1.11004E+01     3.5894E-01  2.6304E-02 -2.2603E+00  2.2888E+00
ac ID =   33377                 2.3299E-01  1.0373E+01  1.3397E+00  1.0461E+01
                               -2.1912E-01  1.5804E+01 -4.6700E+01  2.5147E+03

           1    1.12004E+01     2.6555E-01 -1.1877E-02 -2.1702E+00  2.1865E+00
ac ID =   33377                 5.3458E-01  8.5714E+00 -1.2334E-02  8.5881E+00
                               -2.1403E-01  1.5922E+01 -4.6641E+01  2.5147E+03

           1    1.13004E+01     3.4700E-01  2.3318E-02 -2.1770E+00  2.2046E+00
ac ID =   33377                 4.0846E-01  1.0419E+01 -4.4681E-01  1.0437E+01
                               -2.0889E-01  1.6041E+01 -4.6580E+01  2.5147E+03

           1    1.14004E+01     3.1937E-01 -2.4117E-02 -2.1819E+00  2.2053E+00
ac ID =   33377                 1.1819E+00  9.4829E+00  3.2870E-01  9.5619E+00
                               -2.0390E-01  1.6161E+01 -4.6517E+01  2.5147E+03

           1    1.15003E+01     2.8621E-01  1.6110E-02 -2.1293E+00  2.1485E+00
ac ID =   33377                 2.2063E-01  8.1718E+00  1.0387E+00  8.2405E+00
                               -1.9904E-01  1.6282E+01 -4.6452E+01  2.5147E+03

           1    1.16003E+01     2.8376E-01  3.1779E-02 -2.1589E+00  2.1777E+00
ac ID =   33377                 4.3906E-01  8.2514E+00 -2.2566E-01  8.2661E+00
                               -1.9401E-01  1.6404E+01 -4.6385E+01  2.5147E+03

           1    1.17003E+01     3.8896E-01  9.0394E-03 -2.1374E+00  2.1725E+00
ac ID =   33377                 6.0632E-01  9.6849E+00 -5.4250E-01  9.7190E+00
                               -1.8885E-01  1.6527E+01 -4.6316E+01  2.5147E+03

           1    1.18003E+01     2.5209E-01 -7.6815E-02 -2.0962E+00  2.1127E+00
ac ID =   33377                 2.0684E+00  7.5597E+00 -4.5066E-01  7.8505E+00
                               -1.8371E-01  1.6650E+01 -4.6245E+01  2.5147E+03

           1    1.19003E+01     2.8262E-01  9.7408E-02 -2.1738E+00  2.1942E+00
ac ID =   33377                -1.4610E+00  8.2324E+00  1.4397E-02  8.3611E+00
                               -1.7875E-01  1.6775E+01 -4.6171E+01  2.5147E+03

           1    1.20003E+01     3.3115E-01 -4.9794E-02 -2.0761E+00  2.1029E+00
ac ID =   33377                 1.1124E+00  8.2701E+00 -3.5331E-01  8.3521E+00
                               -1.7346E-01  1.6900E+01 -4.6096E+01  2.5147E+03

           1    1.21003E+01     3.4373E-01 -2.6386E-02 -2.0377E+00  2.0666E+00
ac ID =   33377                 1.6569E+00  8.9721E+00 -7.6591E-01  9.1559E+00
                               -1.6841E-01  1.7026E+01 -4.6019E+01  2.5147E+03

           1    1.22003E+01     2.3641E-01  2.7047E-02 -2.0515E+00  2.0653E+00
ac ID =   33377                -3.2205E-01  8.0634E+00  1.0536E+00  8.1383E+00
                               -1.6325E-01  1.7153E+01 -4.5939E+01  2.5147E+03

           1    1.23003E+01     3.2545E-01 -1.0459E-02 -2.0110E+00  2.0372E+00
ac ID =   33377                 6.7378E-01  8.2033E+00  1.9544E-01  8.2333E+00
                               -1.5826E-01  1.7280E+01 -4.5858E+01  2.5147E+03

           1    1.24003E+01     3.5181E-01  1.6724E-03 -1.9338E+00  1.9656E+00
ac ID =   33377                 1.0012E+00  7.9462E+00  1.1354E+00  8.0891E+00
                               -1.5298E-01  1.7409E+01 -4.5776E+01  2.5147E+03

           1    1.25002E+01     2.9169E-01 -3.0263E-02 -1.9036E+00  1.9260E+00
ac ID =   33377                 1.4304E+00  7.2768E+00  8.0104E-01  7.4592E+00
                               -1.4783E-01  1.7538E+01 -4.5691E+01  2.5147E+03

           1    1.26002E+01     2.7766E-01  4.9436E-02 -1.9005E+00  1.9213E+00
ac ID =   33377                -5.9749E-01  7.1928E+00  4.0619E-01  7.2290E+00
                               -1.4274E-01  1.7669E+01 -4.5604E+01  2.5147E+03

           1    1.27002E+01     3.3670E-01  4.8943E-03 -1.9525E+00  1.9813E+00
ac ID =   33377                 2.6249E-02  7.8188E+00  8.2062E-01  7.8618E+00
                               -1.3731E-01  1.7799E+01 -4.5516E+01  2.5147E+03

           1    1.28002E+01     2.9926E-01  1.7374E-02 -1.8187E+00  1.8433E+00
ac ID =   33377                 1.0009E+00  7.5661E+00 -3.4309E-01  7.6398E+00
                               -1.3189E-01  1.7931E+01 -4.5426E+01  2.5147E+03

           1    1.29002E+01     3.0112E-01 -1.8212E-02 -1.7542E+00  1.7799E+00
ac ID =   33377                -2.7167E-01  7.5726E+00 -6.2071E-01  7.6029E+00
                               -1.2615E-01  1.8064E+01 -4.5334E+01  2.5147E+03

           1    1.30002E+01     2.7471E-01  3.7103E-02 -1.8076E+00  1.8287E+00
ac ID =   33377                 9.8035E-01  6.8056E+00 -8.5223E-02  6.8764E+00
                               -1.2091E-01  1.8197E+01 -4.5241E+01  2.5147E+03

           1    1.31002E+01     3.2787E-01 -2.4213E-03 -1.7388E+00  1.7695E+00
ac ID =   33377                 3.8217E-01  7.2812E+00  7.4177E-01  7.3289E+00
                               -1.1514E-01  1.8331E+01 -4.5146E+01  2.5147E+03

           1    1.32002E+01     3.0811E-01  6.9921E-03 -1.6523E+00  1.6808E+00
ac ID =   33377                 6.7834E-01  6.9214E+00 -2.6240E-01  6.9595E+00
                               -1.0939E-01  1.8466E+01 -4.5049E+01  2.5147E+03

           1    1.33002E+01     2.9380E-01  4.0798E-02 -1.6419E+00  1.6685E+00
ac ID =   33377                 4.9870E-01  6.3291E+00  6.0789E-01  6.3778E+00
                               -1.0348E-01  1.8601E+01 -4.4951E+01  2.5147E+03

           1    1.34002E+01     3.1272E-01 -9.1756E-03 -1.6696E+00  1.6986E+00
ac ID =   33377                 8.5202E-01  6.2607E+00 -4.0940E-01  6.3316E+00
                               -9.7271E-02  1.8737E+01 -4.4852E+01  2.5147E+03

           1    1.35001E+01     3.4191E-01  4.5019E-02 -1.6028E+00  1.6395E+00
ac ID =   33377                 7.4314E-02  6.8432E+00 -2.2505E-02  6.8436E+00
                               -9.1005E-02  1.8873E+01 -4.4751E+01  2.5147E+03

           1    1.36001E+01     2.7296E-01  2.9891E-02 -1.4658E+00  1.4913E+00
ac ID =   33377                -4.0658E-01  5.7805E+00  1.0841E+00  5.8953E+00
                               -8.4353E-02  1.9010E+01 -4.4648E+01  2.5147E+03

           1    1.37001E+01     2.5608E-01  1.7220E-02 -1.5364E+00  1.5577E+00
ac ID =   33377                 4.8443E-01  5.9400E+00 -7.8610E-01  6.0113E+00
                               -7.7818E-02  1.9148E+01 -4.4544E+01  2.5147E+03

           1    1.38001E+01     3.3797E-01  2.5857E-02 -1.4966E+00  1.5345E+00
ac ID =   33377                -2.5358E-01  6.5545E+00  2.8370E-01  6.5655E+00
                               -7.1055E-02  1.9286E+01 -4.4439E+01  2.5147E+03

           1    1.39001E+01     2.8099E-01  4.9744E-02 -1.3954E+00  1.4242E+00
ac ID =   33377                 1.6763E-01  5.3414E+00 -3.0492E-01  5.3527E+00
                               -6.4254E-02  1.9425E+01 -4.4333E+01  2.5147E+03

           1    1.40001E+01     2.5022E-01  2.2348E-02 -1.3705E+00  1.3933E+00
ac ID =   33377                -4.4493E-01  4.7417E+00  1.9163E-02  4.7625E+00
                               -5.6954E-02  1.9564E+01 -4.4225E+01  2.5147E+03

           1    1.41001E+01     2.7503E-01 -1.5593E-02 -1.2695E+00  1.2991E+00
ac ID =   33377                 1.5404E+00  4.6548E+00 -6.0758E-01  4.9406E+00
                               -4.9565E-02  1.9704E+01 -4.4116E+01  2.5147E+03

           1    1.42001E+01     2.5659E-01  3.3933E-02 -1.3046E+00  1.3301E+00
ac ID =   33377                -4.9217E-01  4.1957E+00 -4.4543E-02  4.2247E+00
                               -4.2260E-02  1.9845E+01 -4.4005E+01  2.5147E+03

           1    1.43001E+01     2.7390E-01  2.5866E-02 -1.2644E+00  1.2940E+00
ac ID =   33377                -1.1446E-01  4.6295E+00  3.3058E-01  4.6427E+00
                               -3.4711E-02  1.9985E+01 -4.3894E+01  2.5147E+03

           1    1.44001E+01     2.4011E-01 -9.1266E-03 -1.1362E+00  1.1613E+00
ac ID =   33377                 3.4491E-02  3.5486E+00  4.6972E-01  3.5798E+00
                               -2.7038E-02  2.0127E+01 -4.3781E+01  2.5147E+03

           1    1.45000E+01     2.4671E-01 -4.7659E-03 -1.1227E+00  1.1495E+00
ac ID =   33377                 5.4210E-01  3.7362E+00 -5.9055E-01  3.8212E+00
                               -1.9448E-02  2.0268E+01 -4.3667E+01  2.5147E+03

           1    1.46000E+01     2.4469E-01  2.3355E-02 -1.1258E+00  1.1523E+00
ac ID =   33377                -1.0764E+00  3.0748E+00 -3.0239E-02  3.2579E+00
                               -1.1844E-02  2.0411E+01 -4.3552E+01  2.5147E+03

           1    1.47000E+01     2.2961E-01  6.1851E-03 -1.0056E+00  1.0315E+00
ac ID =   33377                 1.6694E-01  2.6692E+00  8.5384E-01  2.8074E+00
                               -4.1557E-03  2.0553E+01 -4.3436E+01  2.5147E+03

           1    1.48005E+01     2.5146E-01 -3.0078E-02 -1.0706E+00  1.1001E+00
ac ID =   33377                 4.7426E-01  3.1102E+00  3.6946E-01  3.1678E+00
                                3.5441E-03  2.0697E+01 -4.3319E+01  2.5147E+03

           1    1.49005E+01     2.2219E-01  1.8113E-03 -1.0019E+00  1.0262E+00
ac ID =   33377                 9.0308E-01  3.4675E+00  1.4161E-01  3.5860E+00
                                1.0988E-02  2.0841E+01 -4.3202E+01  2.5147E+03

           1    1.50005E+01     2.2241E-01  1.3910E-02 -8.6709E-01  8.9527E-01
ac ID =   33377                -7.3061E-01  2.1065E+00  8.7554E-01  2.3953E+00
                                1.8714E-02  2.0986E+01 -4.3083E+01  2.5147E+03

           1    1.51005E+01     2.3348E-01 -5.1288E-02 -8.9772E-01  9.2900E-01
ac ID =   33377                 1.7753E+00  3.6491E+00 -9.0449E-01  4.1576E+00
                                2.6252E-02  2.1131E+01 -4.2965E+01  2.5147E+03

           1    1.52005E+01     2.8536E-01  2.9480E-03 -8.2607E-01  8.7397E-01
ac ID =   33377                 1.5539E-01  4.5167E+00  2.6106E-01  4.5269E+00
                                3.3759E-02  2.1277E+01 -4.2845E+01  2.5147E+03

           1    1.53005E+01     1.5904E-01  5.9393E-02 -8.1514E-01  8.3263E-01
ac ID =   33377                -6.2735E-01  1.9561E+00 -3.3951E-01  2.0821E+00
                                4.1188E-02  2.1423E+01 -4.2725E+01  2.5147E+03

           1    1.54005E+01     2.3523E-01 -3.5235E-02 -7.5754E-01  7.9400E-01
ac ID =   33377                 6.0895E-01  3.4593E+00 -7.7007E-01  3.5959E+00
                                4.8792E-02  2.1570E+01 -4.2605E+01  2.5147E+03

           1    1.55004E+01     2.1505E-01  2.0254E-02 -5.8491E-01  6.2352E-01
ac ID =   33377                -8.7098E-01  3.5837E+00  6.0895E-01  3.7379E+00
                                5.6287E-02  2.1717E+01 -4.2485E+01  2.5147E+03

           1    1.56004E+01     2.0155E-01  8.9749E-03 -6.8254E-01  7.1173E-01
ac ID =   33377                 4.5090E-01  3.5443E+00  2.6108E-01  3.5824E+00
                                6.3496E-02  2.1865E+01 -4.2363E+01  2.5147E+03

           1    1.57004E+01     2.1753E-01  5.6149E-02 -6.9240E-01  7.2794E-01
ac ID =   33377                -8.9016E-01  3.9053E+00  3.5685E-01  4.0213E+00
                                7.0961E-02  2.2013E+01 -4.2242E+01  2.5147E+03

           1    1.58004E+01     2.2275E-01 -4.9510E-02 -5.1408E-01  5.6245E-01
ac ID =   33377                 1.6649E+00  3.5832E+00 -3.5521E-01  3.9670E+00
                                7.8167E-02  2.2162E+01 -4.2121E+01  2.5147E+03

           1    1.59004E+01     2.0153E-01  4.2197E-03 -4.1377E-01  4.6026E-01
ac ID =   33377                 1.2142E-01  3.6939E+00 -8.0578E-01  3.7827E+00
                                8.5197E-02  2.2311E+01 -4.1999E+01  2.5147E+03

           1    1.60004E+01     2.1059E-01  2.5801E-03 -4.6409E-01  5.0964E-01
ac ID =   33377                 3.0823E-01  3.9489E+00 -5.2751E-01  3.9958E+00
                                9.2248E-02  2.2460E+01 -4.1877E+01  2.5147E+03

           1    1.61004E+01     1.9076E-01 -1.1518E-02 -4.7247E-01  5.0966E-01
ac ID =   33377                 1.0024E+00  3.3286E+00 -1.8348E-02  3.4763E+00
                                9.9251E-02  2.2609E+01 -4.1754E+01  2.5147E+03

           1    1.62004E+01     2.2732E-01  1.3243E-02 -3.5638E-01  4.2292E-01
ac ID =   33377                 3.6463E-02  3.5639E+00 -4.4362E-01  3.5916E+00
                                1.0623E-01  2.2759E+01 -4.1633E+01  2.5147E+03

           1    1.63004E+01     1.9009E-01  1.0429E-02 -2.0112E-01  2.7693E-01
ac ID =   33377                -2.0184E-01  3.3250E+00 -6.9225E-01  3.4023E+00
                                1.1327E-01  2.2909E+01 -4.1511E+01  2.5147E+03

           1    1.64004E+01     1.6771E-01  2.5268E-02 -2.3931E-01  2.9332E-01
ac ID =   33377                 2.1578E-01  2.7822E+00  2.5848E-01  2.8025E+00
                                1.2033E-01  2.3059E+01 -4.1389E+01  2.5147E+03

           1    1.65003E+01     1.7372E-01 -2.3437E-02 -3.3395E-01  3.7716E-01
ac ID =   33377                -7.9864E-03  2.3130E+00  1.2045E-01  2.3161E+00
                                1.2747E-01  2.3209E+01 -4.1267E+01  2.5147E+03

           1    1.66003E+01     1.9166E-01  6.9223E-02 -2.2585E-01  3.0419E-01
ac ID =   33377                -7.1294E-01  2.8167E+00 -6.1244E-01  2.9694E+00
                                1.3438E-01  2.3359E+01 -4.1146E+01  2.5147E+03

           1    1.67003E+01     1.7285E-01 -1.6984E-03 -3.6071E-02  1.7658E-01
ac ID =   33377                 1.7086E-01  1.9590E+00 -7.3253E-01  2.0984E+00
                                1.4173E-01  2.3511E+01 -4.1025E+01  2.5147E+03

           1    1.68003E+01     1.6052E-01 -1.8407E-02 -9.0565E-02  1.8522E-01
ac ID =   33377                 1.3104E+00  1.7925E+00 -7.4595E-02  2.2217E+00
                                1.4916E-01  2.3662E+01 -4.0905E+01  2.5147E+03

           1    1.69003E+01     1.7402E-01  1.9521E-02 -1.4617E-01  2.2810E-01
ac ID =   33377                 4.4171E-01  1.8842E+00  3.4007E-01  1.9649E+00
                                1.5646E-01  2.3813E+01 -4.0784E+01  2.5147E+03

           1    1.70003E+01     1.6019E-01  3.7044E-02 -3.1281E-02  1.6737E-01
ac ID =   33377                -1.1442E-01  1.2717E+00 -6.3767E-01  1.4272E+00
                                1.6413E-01  2.3965E+01 -4.0665E+01  2.5147E+03

           1    1.71003E+01     1.1405E-01 -3.2769E-02  8.4545E-02  1.4571E-01
ac ID =   33377                 9.3717E-01  2.8346E-01 -8.5793E-01  1.3018E+00
                                1.7195E-01  2.4117E+01 -4.0546E+01  2.5147E+03

           1    1.72003E+01     1.6340E-01  1.8888E-02  6.1379E-02  1.7557E-01
ac ID =   33377                -1.3957E-01  1.1412E+00  1.4237E-03  1.1497E+00
                                1.7986E-01  2.4269E+01 -4.0427E+01  2.5147E+03

           1    1.73003E+01     1.1200E-01  2.7524E-02  7.5651E-02  1.3793E-01
ac ID =   33377                -1.6078E-01 -4.9080E-01  6.9443E-01  8.6543E-01
                                1.8776E-01  2.4421E+01 -4.0309E+01  2.5147E+03

           1    1.74003E+01     1.7835E-01  3.0052E-02  6.6601E-02  1.9274E-01
ac ID =   33377                -5.1309E-01  1.1946E+00  5.2306E-03  1.3002E+00
                                1.9593E-01  2.4574E+01 -4.0192E+01  2.5147E+03

           1    1.75002E+01     7.1908E-02 -3.1901E-03  1.8695E-01  2.0033E-01
ac ID =   33377                 5.7939E-01 -8.7375E-01 -8.8045E-01  1.3691E+00
                                2.0412E-01  2.4727E+01 -4.0075E+01  2.5147E+03

           1    1.76002E+01     1.1907E-01 -1.0623E-02  2.4179E-01  2.6973E-01
ac ID =   33377                 5.8877E-01 -3.5371E-01 -4.1871E-01  8.0441E-01
                                2.1235E-01  2.4880E+01 -3.9959E+01  2.5147E+03

           1    1.77002E+01     1.3019E-01  5.1667E-02  1.9666E-01  2.4144E-01
ac ID =   33377                -4.2464E-01 -5.9460E-02 -2.5355E-01  4.9814E-01
                                2.2058E-01  2.5033E+01 -3.9844E+01  2.5147E+03

           1    1.78002E+01     9.8090E-02  9.1839E-03  2.5676E-01  2.7501E-01
ac ID =   33377                 1.1524E+00 -7.1250E-01 -7.0326E-01  1.5265E+00
                                2.2912E-01  2.5187E+01 -3.9730E+01  2.5147E+03

           1    1.79002E+01     1.1467E-01  3.7898E-03  3.0403E-01  3.2495E-01
ac ID =   33377                 3.4847E-01 -1.3405E-01 -6.5363E-01  7.5275E-01
                                2.3790E-01  2.5341E+01 -3.9617E+01  2.5147E+03

           1    1.80002E+01     6.4605E-02 -1.2748E-03  3.1115E-01  3.1779E-01
ac ID =   33377                 5.4128E-01 -1.5085E+00 -1.6054E+00  2.2685E+00
                                2.4662E-01  2.5495E+01 -3.9504E+01  2.5147E+03

           1    1.81002E+01     1.3119E-01  4.2785E-02  3.7700E-01  4.0146E-01
ac ID =   33377                -1.1084E+00 -4.8831E-01 -6.8228E-01  1.3901E+00
                                2.5548E-01  2.5650E+01 -3.9393E+01  2.5147E+03

           1    1.82002E+01     1.2255E-01  7.4595E-03  3.9290E-01  4.1164E-01
ac ID =   33377                -2.1611E-01 -1.5625E+00 -3.8647E-01  1.6240E+00
                                2.6452E-01  2.5805E+01 -3.9283E+01  2.5147E+03

           1    1.83002E+01     8.9351E-02  6.6068E-03  3.7375E-01  3.8434E-01
ac ID =   33377                -3.6838E-01 -1.7661E+00  2.3417E-01  1.8192E+00
                                2.7350E-01  2.5960E+01 -3.9173E+01  2.5147E+03

           1    1.84002E+01     1.4171E-01  5.3046E-02  4.3445E-01  4.6005E-01
ac ID =   33377                -1.1042E+00 -3.6379E-01  2.4066E-01  1.1873E+00
                                2.8251E-01  2.6116E+01 -3.9065E+01  2.5147E+03

           1    1.85001E+01     7.5022E-02 -1.8158E-02  4.6760E-01  4.7393E-01
ac ID =   33377                 4.6785E-01 -2.4662E+00  5.0971E-01  2.5614E+00
                                2.9162E-01  2.6272E+01 -3.8959E+01  2.5147E+03

           1    1.86001E+01     1.0497E-01  1.1787E-02  4.9904E-01  5.1010E-01
ac ID =   33377                 2.5613E-01 -2.2836E+00 -4.9389E-01  2.3504E+00
                                3.0057E-01  2.6429E+01 -3.8853E+01  2.5147E+03

           1    1.87001E+01     1.0720E-01  3.7857E-02  4.6216E-01  4.7594E-01
ac ID =   33377                -4.9904E-01 -2.0465E+00 -1.1794E+00  2.4142E+00
                                3.0953E-01  2.6586E+01 -3.8749E+01  2.5147E+03

           1    1.88001E+01     5.9308E-02 -2.0347E-02  5.1945E-01  5.2322E-01
ac ID =   33377                 7.1429E-01 -3.2943E+00 -8.2158E-01  3.4695E+00
                                3.1867E-01  2.6743E+01 -3.8646E+01  2.5147E+03

           1    1.89001E+01     1.0365E-01 -1.5020E-02  5.8236E-01  5.9170E-01
ac ID =   33377                 9.2367E-01 -2.5026E+00 -5.3210E-01  2.7201E+00
                                3.2755E-01  2.6901E+01 -3.8545E+01  2.5147E+03

           1    1.90001E+01     8.9316E-02  5.8787E-02  5.9538E-01  6.0490E-01
ac ID =   33377                -1.1403E+00 -2.4286E+00  4.2111E-01  2.7158E+00
                                3.3645E-01  2.7059E+01 -3.8445E+01  2.5147E+03

           1    1.91001E+01     8.6534E-02 -1.5200E-02  5.7553E-01  5.8219E-01
ac ID =   33377                -2.8237E-01 -2.0441E+00 -2.9777E-01  2.0849E+00
                                3.4546E-01  2.7218E+01 -3.8346E+01  2.5147E+03

           1    1.92001E+01     7.4954E-02 -1.5961E-02  5.7674E-01  5.8181E-01
ac ID =   33377                 5.9033E-01 -2.5420E+00 -1.1943E+00  2.8699E+00
                                3.5409E-01  2.7377E+01 -3.8248E+01  2.5147E+03

           1    1.93001E+01     8.4974E-02  5.2696E-02  6.4439E-01  6.5210E-01
ac ID =   33377                -1.3213E+00 -2.9528E+00 -6.7315E-01  3.3042E+00
                                3.6284E-01  2.7537E+01 -3.8153E+01  2.5147E+03

           1    1.94001E+01     1.2973E-01  1.5034E-02  6.9928E-01  7.1137E-01
ac ID =   33377                -1.4626E-03 -2.4040E+00  2.5041E-01  2.4170E+00
                                3.7162E-01  2.7697E+01 -3.8059E+01  2.5147E+03

           1    1.95000E+01     3.9459E-02 -2.7429E-02  6.2471E-01  6.2656E-01
ac ID =   33377                 1.1746E+00 -3.6114E+00  2.5022E-01  3.8058E+00
                                3.8034E-01  2.7858E+01 -3.7966E+01  2.5147E+03

           1    1.96000E+01     6.8587E-02 -1.4115E-03  6.2270E-01  6.2647E-01
ac ID =   33377                 6.0783E-01 -3.5788E+00 -3.6277E-01  3.6481E+00
                                3.8894E-01  2.8019E+01 -3.7874E+01  2.5147E+03

           1    1.97005E+01     1.2867E-01  4.0269E-02  6.8473E-01  6.9788E-01
ac ID =   33377                -1.6920E-01 -3.0050E+00 -6.7347E-01  3.0842E+00
                                3.9760E-01  2.8181E+01 -3.7784E+01  2.5147E+03

           1    1.98005E+01     8.4097E-02 -2.4331E-02  6.9513E-01  7.0063E-01
ac ID =   33377                 1.2234E+00 -3.4973E+00 -9.7313E-01  3.8308E+00
                                4.0637E-01  2.8343E+01 -3.7696E+01  2.5147E+03

           1    1.99005E+01     4.0638E-02 -9.1084E-03  6.9171E-01  6.9296E-01
ac ID =   33377                 8.0335E-01 -4.0346E+00 -7.1036E-01  4.1747E+00
                                4.1499E-01  2.8506E+01 -3.7609E+01  2.5147E+03

           1    2.00005E+01     1.1272E-01  4.9183E-02  6.6549E-01  6.7675E-01
ac ID =   33377                -9.9992E-01 -3.0721E+00  2.6146E-02  3.2308E+00
                                4.2375E-01  2.8669E+01 -3.7523E+01  2.5147E+03

           1    2.01005E+01     6.4583E-02  4.7503E-03  7.0144E-01  7.0443E-01
ac ID =   33377                 2.2857E-01 -4.2302E+00 -3.3422E-01  4.2495E+00
                                4.3252E-01  2.8832E+01 -3.7440E+01  2.5147E+03

           1    2.02005E+01     3.0107E-02 -1.9086E-02  7.5074E-01  7.5158E-01
ac ID =   33377                 1.0377E+00 -5.3810E+00 -7.7944E-01  5.5353E+00
                                4.4125E-01  2.8996E+01 -3.7357E+01  2.5147E+03

           1    2.03005E+01     1.0488E-01  3.2395E-02  6.9835E-01  7.0693E-01
ac ID =   33377                -5.2167E-01 -4.2079E+00 -5.3269E-01  4.2734E+00
                                4.4990E-01  2.9160E+01 -3.7277E+01  2.5147E+03

           1    2.04005E+01     5.8374E-02  1.9700E-02  6.9258E-01  6.9531E-01
ac ID =   33377                 4.1118E-01 -5.0171E+00 -7.4962E-01  5.0895E+00
                                4.5857E-01  2.9325E+01 -3.7198E+01  2.5147E+03

           1    2.05004E+01     4.9785E-02 -3.1787E-02  7.1658E-01  7.1901E-01
ac ID =   33377                 1.5318E+00 -5.5211E+00 -6.4723E-02  5.7300E+00
                                4.6739E-01  2.9491E+01 -3.7120E+01  2.5147E+03

           1    2.06004E+01     8.3218E-02  6.4109E-03  7.2934E-01  7.3410E-01
ac ID =   33377                 1.2649E+00 -4.4589E+00 -4.2552E-02  4.6350E+00
                                4.7607E-01  2.9657E+01 -3.7044E+01  2.5147E+03

           1    2.07004E+01     7.7120E-02  3.1946E-02  6.9495E-01  6.9995E-01
ac ID =   33377                -3.6874E-02 -4.8897E+00 -3.6078E-01  4.9031E+00
                                4.8499E-01  2.9823E+01 -3.6970E+01  2.5147E+03

           1    2.08004E+01     4.2800E-02 -1.7878E-02  7.1787E-01  7.1937E-01
ac ID =   33377                 1.1605E+00 -5.6754E+00 -7.9728E-01  5.8475E+00
                                4.9394E-01  2.9990E+01 -3.6898E+01  2.5147E+03

           1    2.09004E+01     9.9752E-02 -2.0337E-02  7.2823E-01  7.3531E-01
ac ID =   33377                 1.2468E+00 -4.8603E+00 -8.8848E-01  5.0957E+00
                                5.0287E-01  3.0157E+01 -3.6827E+01  2.5147E+03

           1    2.10004E+01     6.8059E-02  5.5384E-02  7.1008E-01  7.1548E-01
ac ID =   33377                -7.3017E-01 -5.6020E+00 -1.1080E-01  5.6504E+00
                                5.1186E-01  3.0325E+01 -3.6758E+01  2.5147E+03

           1    2.11004E+01     5.5331E-02  2.8467E-02  7.0590E-01  7.0864E-01
ac ID =   33377                 5.7329E-02 -5.5909E+00 -2.1239E-02  5.5912E+00
                                5.2102E-01  3.0494E+01 -3.6690E+01  2.5147E+03

           1    2.12004E+01     7.3312E-02 -2.8028E-02  6.9671E-01  7.0111E-01
ac ID =   33377                 1.2610E+00 -5.9568E+00 -3.9993E-01  6.1020E+00
                                5.3024E-01  3.0662E+01 -3.6624E+01  2.5147E+03

           1    2.13004E+01     8.1502E-02  1.9683E-02  6.7621E-01  6.8139E-01
ac ID =   33377                 5.6112E-01 -5.9434E+00 -7.7312E-01  6.0196E+00
                                5.3947E-01  3.0831E+01 -3.6560E+01  2.5147E+03

           1    2.14004E+01     8.0125E-02  4.8434E-02  6.5212E-01  6.5881E-01
ac ID =   33377                -2.6518E-01 -5.8994E+00 -9.1706E-01  5.9761E+00
                                5.4895E-01  3.1000E+01 -3.6497E+01  2.5147E+03

           1    2.15003E+01     7.1531E-02 -1.2510E-02  6.3904E-01  6.4315E-01
ac ID =   33377                 1.6927E+00 -5.9273E+00 -4.2131E-01  6.1786E+00
                                5.5855E-01  3.1170E+01 -3.6436E+01  2.5147E+03

           1    2.16003E+01     8.4552E-02 -2.7999E-02  6.5904E-01  6.6503E-01
ac ID =   33377                 1.5835E+00 -5.9903E+00 -3.7993E-01  6.2077E+00
                                5.6825E-01  3.1340E+01 -3.6376E+01  2.5147E+03

           1    2.17003E+01     7.8517E-02  6.5209E-02  6.1837E-01  6.2674E-01
ac ID =   33377                -6.9120E-01 -6.7901E+00 -4.7655E-01  6.8418E+00
                                5.7805E-01  3.1511E+01 -3.6318E+01  2.5147E+03

           1    2.18003E+01     8.6847E-02  1.6458E-03  5.6936E-01  5.7595E-01
ac ID =   33377                 4.2486E-01 -6.4653E+00 -8.6348E-01  6.5365E+00
                                5.8807E-01  3.1681E+01 -3.6261E+01  2.5147E+03

           1    2.19003E+01     5.2936E-02 -2.6827E-02  6.2363E-01  6.2645E-01
ac ID =   33377                 1.1989E+00 -7.4625E+00 -8.7848E-01  7.6091E+00
                                5.9812E-01  3.1852E+01 -3.6206E+01  2.5147E+03

           1    2.20003E+01     5.8783E-02  5.1644E-02  6.0776E-01  6.1278E-01
ac ID =   33377                -7.3861E-01 -7.5003E+00 -5.3431E-01  7.5555E+00
                                6.0818E-01  3.2023E+01 -3.6151E+01  2.5147E+03

           1    2.21003E+01     1.1563E-01  4.8709E-02  5.3412E-01  5.4865E-01
ac ID =   33377                -8.5979E-01 -6.6711E+00 -1.5127E-01  6.7279E+00
                                6.1836E-01  3.2195E+01 -3.6098E+01  2.5147E+03

           1    2.22003E+01     5.2569E-02 -4.0545E-02  5.4101E-01  5.4507E-01
ac ID =   33377                 1.5446E+00 -7.7268E+00 -5.4194E-01  7.8983E+00
                                6.2857E-01  3.2367E+01 -3.6047E+01  2.5147E+03

           1    2.23003E+01     7.4959E-02  1.7285E-02  5.5586E-01  5.6115E-01
ac ID =   33377                 3.4478E-01 -7.6216E+00 -7.8745E-01  7.6699E+00
                                6.3863E-01  3.2539E+01 -3.5996E+01  2.5147E+03

           1    2.24003E+01     9.4689E-02  5.4472E-02  5.3096E-01  5.4208E-01
ac ID =   33377                -5.6999E-01 -7.8478E+00 -6.5079E-01  7.8954E+00
                                6.4877E-01  3.2711E+01 -3.5947E+01  2.5147E+03

           1    2.25002E+01     8.4198E-02 -2.5856E-02  4.7613E-01  4.8421E-01
ac ID =   33377                 1.5587E+00 -8.0708E+00 -7.8595E-01  8.2574E+00
                                6.5894E-01  3.2883E+01 -3.5898E+01  2.5147E+03

           1    2.26002E+01     5.1529E-02 -2.5336E-02  4.6592E-01  4.6945E-01
ac ID =   33377                 1.1823E+00 -8.5843E+00 -1.3285E-01  8.6663E+00
                                6.6904E-01  3.3056E+01 -3.5851E+01  2.5147E+03

           1    2.27002E+01     6.7808E-02  4.5766E-02  4.7601E-01  4.8299E-01
ac ID =   33377                -6.0750E-01 -8.6537E+00 -9.9949E-02  8.6756E+00
                                6.7899E-01  3.3229E+01 -3.5805E+01  2.5147E+03

           1    2.28002E+01     9.8727E-02  1.8732E-02  4.3663E-01  4.4805E-01
ac ID =   33377                -2.3481E-01 -8.5173E+00 -7.8298E-01  8.5565E+00
                                6.8899E-01  3.3402E+01 -3.5760E+01  2.5147E+03

           1    2.29002E+01     5.9664E-02 -3.4380E-02  4.2123E-01  4.2683E-01
ac ID =   33377                 1.0414E+00 -9.2237E+00 -1.3533E+00  9.3805E+00
                                6.9886E-01  3.3575E+01 -3.5715E+01  2.5147E+03

           1    2.30002E+01     9.2094E-02  2.6848E-02  3.7227E-01  3.8443E-01
ac ID =   33377                -5.4379E-01 -8.5743E+00 -1.0134E+00  8.6511E+00
                                7.0863E-01  3.3749E+01 -3.5672E+01  2.5147E+03

           1    2.31002E+01     8.4541E-02  5.4571E-02  3.5543E-01  3.6940E-01
ac ID =   33377                -9.2877E-01 -8.7869E+00 -6.3397E-01  8.8585E+00
                                7.1830E-01  3.3922E+01 -3.5630E+01  2.5147E+03

           1    2.32002E+01     8.7163E-02 -3.9826E-02  3.5538E-01  3.6807E-01
ac ID =   33377                 1.5308E+00 -8.8561E+00 -3.8128E-01  8.9955E+00
                                7.2796E-01  3.4096E+01 -3.5588E+01  2.5147E+03

           1    2.33002E+01     8.4066E-02 -1.4892E-02  3.1611E-01  3.2743E-01
ac ID =   33377                 8.9737E-01 -9.1553E+00 -3.5767E-01  9.2061E+00
                                7.3742E-01  3.4269E+01 -3.5547E+01  2.5147E+03

           1    2.34002E+01     9.0210E-02  5.0016E-02  2.7948E-01  2.9791E-01
ac ID =   33377                -3.9588E-01 -9.4318E+00 -6.3753E-01  9.4616E+00
                                7.4674E-01  3.4443E+01 -3.5507E+01  2.5147E+03

           1    2.35001E+01     1.1349E-01  2.9252E-03  2.5854E-01  2.8236E-01
ac ID =   33377                 8.4599E-01 -8.8629E+00 -1.0042E+00  8.9596E+00
                                7.5620E-01  3.4617E+01 -3.5467E+01  2.5147E+03

           1    2.36001E+01     8.2709E-02 -2.6992E-02  2.3356E-01  2.4924E-01
ac ID =   33377                 1.0705E+00 -9.3160E+00 -6.3949E-01  9.3991E+00
                                7.6572E-01  3.4790E+01 -3.5428E+01  2.5147E+03

           1    2.37001E+01     8.8190E-02  2.2485E-02  2.2950E-01  2.4689E-01
ac ID =   33377                -2.1342E-01 -9.3435E+00 -6.1208E-01  9.3660E+00
                                7.7507E-01  3.4964E+01 -3.5390E+01  2.5147E+03

           1    2.38001E+01     1.1972E-01  4.6595E-02  1.8483E-01  2.2509E-01
ac ID =   33377                -8.3697E-01 -8.8035E+00 -7.9664E-01  8.8790E+00
                                7.8436E-01  3.5137E+01 -3.5353E+01  2.5147E+03

           1    2.39001E+01     1.1289E-01 -5.1771E-03  1.6090E-01  1.9662E-01
ac ID =   33377                 4.8625E-01 -8.9291E+00 -8.4019E-01  8.9818E+00
                                7.9386E-01  3.5310E+01 -3.5315E+01  2.5147E+03

           1    2.40001E+01     9.6241E-02  7.6628E-03  1.5683E-01  1.8417E-01
ac ID =   33377                -8.2357E-02 -8.8134E+00 -1.1658E+00  8.8906E+00
                                8.0328E-01  3.5484E+01 -3.5279E+01  2.5147E+03

           1    2.41001E+01     1.0657E-01  4.6389E-02  1.3044E-01  1.7471E-01
ac ID =   33377                -5.4543E-01 -8.8061E+00 -9.4927E-01  8.8738E+00
                                8.1268E-01  3.5656E+01 -3.5243E+01  2.5147E+03

           1    2.42001E+01     1.3335E-01  1.4729E-02  9.5000E-02  1.6439E-01
ac ID =   33377                 4.6596E-01 -8.4615E+00 -8.8536E-01  8.5205E+00
                                8.2229E-01  3.5829E+01 -3.5207E+01  2.5147E+03

           1    2.43001E+01     1.1194E-01 -5.8466E-03  7.7093E-02  1.3605E-01
ac ID =   33377                 1.0068E+00 -8.9404E+00 -6.5226E-01  9.0205E+00
                                8.3205E-01  3.6002E+01 -3.5171E+01  2.5147E+03

           1    2.44001E+01     1.2694E-01  3.3809E-02  6.0146E-02  1.4448E-01
ac ID =   33377                 1.8031E-01 -8.7858E+00 -3.9286E-01  8.7964E+00
                                8.4176E-01  3.6174E+01 -3.5136E+01  2.5147E+03

           1    2.45005E+01     1.4586E-01  2.3215E-02  3.3692E-02  1.5149E-01
ac ID =   33377                 3.1688E-01 -8.5227E+00 -9.0040E-01  8.5760E+00
                                8.5172E-01  3.6347E+01 -3.5101E+01  2.5147E+03

           1    2.46005E+01     1.3263E-01 -2.3265E-03 -4.3643E-03  1.3272E-01
ac ID =   33377                 7.1025E-01 -8.5560E+00 -1.2304E+00  8.6732E+00
                                8.6180E-01  3.6518E+01 -3.5066E+01  2.5147E+03

           1    2.47005E+01     1.3378E-01 -1.7497E-03 -1.8336E-02  1.3505E-01
ac ID =   33377                 5.2471E-01 -8.6419E+00 -1.3290E+00  8.7592E+00
                                8.7185E-01  3.6690E+01 -3.5032E+01  2.5147E+03

           1    2.48005E+01     1.4505E-01  3.5992E-02 -2.0677E-02  1.5087E-01
ac ID =   33377                -1.8203E-01 -8.4991E+00 -1.0581E+00  8.5667E+00
                                8.8186E-01  3.6861E+01 -3.4998E+01  2.5147E+03

           1    2.49005E+01     1.4521E-01  1.7431E-02 -5.5537E-02  1.5644E-01
ac ID =   33377                 1.8624E-01 -8.4547E+00 -4.5811E-01  8.4692E+00
                                8.9209E-01  3.7031E+01 -3.4963E+01  2.5147E+03

