 LSTC 50th% Full_FE H-III Dummy (Beta Version, February 17, 2019)        
                    ls-dyna smp s R16 R16.0_619_d222963 date 03/18/2025

{BEGIN LEGEND}
 Entity #        Title
    22626                                                                                     
{END LEGEND}




 n o d a l   p r i n t   o u t   f o r   t i m e  s t e p       1                              ( at time 0.0000000E+00 )

 nodal point  x-disp     y-disp      z-disp      x-vel       y-vel       z-vel      x-accl      y-accl      z-accl      x-coor      y-coor      z-coor
    22626  0.00000E+00 0.00000E+00 0.00000E+00 0.00000E+00 0.00000E+00 0.00000E+00 0.00000E+00 0.00000E+00 0.00000E+00 4.65938E+00-2.81908E+01-4.49817E+01



 n o d a l   p r i n t   o u t   f o r   t i m e  s t e p       1                              ( at time 0.0000000E+00 )

 nodal point  x-rot      y-rot       z-rot       x-rot vel   y-rot vel   z-rot vel   x-rot acc   y-rot acc   z-rot acc
    22626  0.00000E+00 0.00000E+00 0.00000E+00 0.00000E+00 0.00000E+00 0.00000E+00 0.00000E+00 0.00000E+00 0.00000E+00



 n o d a l   p r i n t   o u t   f o r   t i m e  s t e p     201                              ( at time 9.9989993E-02 )

 nodal point  x-disp     y-disp      z-disp      x-vel       y-vel       z-vel      x-accl      y-accl      z-accl      x-coor      y-coor      z-coor
    22626  2.73585E-07 1.73664E-06-5.34276E-05 4.19765E-05 2.55585E-04-1.46815E-03 4.19807E-04 2.55610E-03-1.46830E-02 4.65938E+00-2.81908E+01-4.49818E+01



 n o d a l   p r i n t   o u t   f o r   t i m e  s t e p     201                              ( at time 9.9989993E-02 )

 nodal point  x-rot      y-rot       z-rot       x-rot vel   y-rot vel   z-rot vel   x-rot acc   y-rot acc   z-rot acc
    22626 -5.98899E-08-8.38532E-09-5.45973E-09-5.86836E-06-9.70030E-07-9.27186E-07-5.86894E-05-9.70127E-06-9.27278E-06



 n o d a l   p r i n t   o u t   f o r   t i m e  s t e p     401                              ( at time 1.9997999E-01 )

 nodal point  x-disp     y-disp      z-disp      x-vel       y-vel       z-vel      x-accl      y-accl      z-accl      x-coor      y-coor      z-coor
    22626  1.73155E-05 3.61738E-04-6.67576E-04 3.05779E-05 7.81063E-03-1.21538E-02-1.13997E-04 7.55580E-02-1.06867E-01 4.65939E+00-2.81905E+01-4.49824E+01



 n o d a l   p r i n t   o u t   f o r   t i m e  s t e p     401                              ( at time 1.9997999E-01 )

 nodal point  x-rot      y-rot       z-rot       x-rot vel   y-rot vel   z-rot vel   x-rot acc   y-rot acc   z-rot acc
    22626 -2.81965E-06-3.37205E-07-3.34647E-07-3.94352E-05-1.77063E-06-2.29752E-06-3.35702E-04-8.00678E-06-1.37047E-05



 n o d a l   p r i n t   o u t   f o r   t i m e  s t e p     601                              ( at time 2.9996998E-01 )

 nodal point  x-disp     y-disp      z-disp      x-vel       y-vel       z-vel      x-accl      y-accl      z-accl      x-coor      y-coor      z-coor
    22626  2.73769E-05 1.24011E-03-2.33846E-03 4.24515E-04 8.45035E-03-1.92555E-02 3.93977E-03 6.39781E-03-7.10239E-02 4.65940E+00-2.81896E+01-4.49841E+01



 n o d a l   p r i n t   o u t   f o r   t i m e  s t e p     601                              ( at time 2.9996998E-01 )

 nodal point  x-rot      y-rot       z-rot       x-rot vel   y-rot vel   z-rot vel   x-rot acc   y-rot acc   z-rot acc
    22626 -5.38490E-06-3.90645E-07-6.42564E-07-1.53860E-05-5.50981E-06-6.69319E-06 2.40516E-04-3.73955E-05-4.39610E-05



 n o d a l   p r i n t   o u t   f o r   t i m e  s t e p     801                              ( at time 3.9995997E-01 )

 nodal point  x-disp     y-disp      z-disp      x-vel       y-vel       z-vel      x-accl      y-accl      z-accl      x-coor      y-coor      z-coor
    22626  2.60237E-05 2.16242E-03-4.28288E-03-3.14703E-04 1.07379E-02-2.10866E-02-7.39293E-03 2.28780E-02-1.83133E-02 4.65940E+00-2.81887E+01-4.49860E+01



 n o d a l   p r i n t   o u t   f o r   t i m e  s t e p     801                              ( at time 3.9995997E-01 )

 nodal point  x-rot      y-rot       z-rot       x-rot vel   y-rot vel   z-rot vel   x-rot acc   y-rot acc   z-rot acc
    22626 -7.61651E-06-1.25026E-06-9.81091E-07-4.49783E-05-6.25109E-06-1.45147E-06-2.95952E-04-7.41355E-06 5.24224E-05



 n o d a l   p r i n t   o u t   f o r   t i m e  s t e p    1001                              ( at time 4.9994997E-01 )

 nodal point  x-disp     y-disp      z-disp      x-vel       y-vel       z-vel      x-accl      y-accl      z-accl      x-coor      y-coor      z-coor
    22626  3.67871E-06 3.43650E-03-6.74477E-03-2.40773E-04 1.41493E-02-2.87082E-02 7.39381E-04 3.41174E-02-7.62231E-02 4.65938E+00-2.81874E+01-4.49885E+01



 n o d a l   p r i n t   o u t   f o r   t i m e  s t e p    1001                              ( at time 4.9994997E-01 )

 nodal point  x-rot      y-rot       z-rot       x-rot vel   y-rot vel   z-rot vel   x-rot acc   y-rot acc   z-rot acc
    22626 -1.35610E-05-1.16608E-06-9.49763E-07-8.42222E-05 3.26450E-06 4.11633E-06-3.92479E-04 9.51654E-05 5.56836E-05



 n o d a l   p r i n t   o u t   f o r   t i m e  s t e p    1201                              ( at time 5.9993996E-01 )

 nodal point  x-disp     y-disp      z-disp      x-vel       y-vel       z-vel      x-accl      y-accl      z-accl      x-coor      y-coor      z-coor
    22626 -8.46879E-07 5.01223E-03-9.71615E-03 4.61699E-05 1.67036E-02-3.09894E-02 2.86971E-03 2.55456E-02-2.28148E-02 4.65937E+00-2.81858E+01-4.49914E+01



 n o d a l   p r i n t   o u t   f o r   t i m e  s t e p    1201                              ( at time 5.9993996E-01 )

 nodal point  x-rot      y-rot       z-rot       x-rot vel   y-rot vel   z-rot vel   x-rot acc   y-rot acc   z-rot acc
    22626 -2.02872E-05-8.87090E-07-9.57938E-07-5.89541E-05 3.86530E-06-1.96973E-06 2.52707E-04 6.00859E-06-6.08668E-05



 n o d a l   p r i n t   o u t   f o r   t i m e  s t e p    1401                              ( at time 6.9992995E-01 )

 nodal point  x-disp     y-disp      z-disp      x-vel       y-vel       z-vel      x-accl      y-accl      z-accl      x-coor      y-coor      z-coor
    22626 -5.10021E-05 6.85042E-03-1.31710E-02-4.94415E-04 1.96593E-02-3.89698E-02-5.40639E-03 2.95596E-02-7.98121E-02 4.65932E+00-2.81840E+01-4.49949E+01



 n o d a l   p r i n t   o u t   f o r   t i m e  s t e p    1401                              ( at time 6.9992995E-01 )

 nodal point  x-rot      y-rot       z-rot       x-rot vel   y-rot vel   z-rot vel   x-rot acc   y-rot acc   z-rot acc
    22626 -2.62097E-05-9.01156E-07-6.32308E-07-7.10375E-05 3.53201E-07 3.84632E-06-1.20846E-04-3.51245E-05 5.81664E-05



 n o d a l   p r i n t   o u t   f o r   t i m e  s t e p    1601                              ( at time 7.9991994E-01 )

 nodal point  x-disp     y-disp      z-disp      x-vel       y-vel       z-vel      x-accl      y-accl      z-accl      x-coor      y-coor      z-coor
    22626 -8.02636E-05 8.98675E-03-1.74643E-02-4.97354E-04 2.21650E-02-4.51217E-02-2.94019E-05 2.50601E-02-6.15244E-02 4.65929E+00-2.81818E+01-4.49992E+01



 n o d a l   p r i n t   o u t   f o r   t i m e  s t e p    1601                              ( at time 7.9991994E-01 )

 nodal point  x-rot      y-rot       z-rot       x-rot vel   y-rot vel   z-rot vel   x-rot acc   y-rot acc   z-rot acc
    22626 -3.43997E-05-8.78033E-07-5.14897E-07-9.19081E-05-4.78602E-06 1.56172E-06-2.08727E-04-5.13973E-05-2.28483E-05



 n o d a l   p r i n t   o u t   f o r   t i m e  s t e p    1801                              ( at time 8.9990994E-01 )

 nodal point  x-disp     y-disp      z-disp      x-vel       y-vel       z-vel      x-accl      y-accl      z-accl      x-coor      y-coor      z-coor
    22626 -1.16840E-04 1.12542E-02-2.19906E-02-2.85273E-04 2.40436E-02-4.55864E-02 2.12103E-03 1.87871E-02-4.64810E-03 4.65926E+00-2.81796E+01-4.50037E+01



 n o d a l   p r i n t   o u t   f o r   t i m e  s t e p    1801                              ( at time 8.9990994E-01 )

 nodal point  x-rot      y-rot       z-rot       x-rot vel   y-rot vel   z-rot vel   x-rot acc   y-rot acc   z-rot acc
    22626 -4.28172E-05-9.58061E-07-5.01734E-07-8.24215E-05 1.87445E-06-7.59543E-07 9.48754E-05 6.66114E-05-2.32150E-05



 n o d a l   p r i n t   o u t   f o r   t i m e  s t e p    2001                              ( at time 9.9989993E-01 )

 nodal point  x-disp     y-disp      z-disp      x-vel       y-vel       z-vel      x-accl      y-accl      z-accl      x-coor      y-coor      z-coor
    22626 -1.52051E-04 1.37912E-02-2.67304E-02-3.45902E-05 2.64973E-02-5.00363E-02 2.50708E-03 2.45395E-02-4.45032E-02 4.65922E+00-2.81770E+01-4.50084E+01



 n o d a l   p r i n t   o u t   f o r   t i m e  s t e p    2001                              ( at time 9.9989993E-01 )

 nodal point  x-rot      y-rot       z-rot       x-rot vel   y-rot vel   z-rot vel   x-rot acc   y-rot acc   z-rot acc
    22626 -5.18510E-05-9.08236E-07-4.38173E-07-1.06356E-04 1.26582E-06-3.10270E-06-2.39370E-04-6.08692E-06-2.34339E-05



 n o d a l   p r i n t   o u t   f o r   t i m e  s t e p    2201                              ( at time 1.0998899E+00 )

 nodal point  x-disp     y-disp      z-disp      x-vel       y-vel       z-vel      x-accl      y-accl      z-accl      x-coor      y-coor      z-coor
    22626 -1.59770E-04 1.65321E-02-3.20559E-02-3.44406E-04 2.88832E-02-5.60767E-02-3.09847E-03 2.38619E-02-6.04097E-02 4.65922E+00-2.81743E+01-4.50138E+01



 n o d a l   p r i n t   o u t   f o r   t i m e  s t e p    2201                              ( at time 1.0998899E+00 )

 nodal point  x-rot      y-rot       z-rot       x-rot vel   y-rot vel   z-rot vel   x-rot acc   y-rot acc   z-rot acc
    22626 -6.29461E-05-1.00512E-06-7.49302E-07-1.03732E-04-7.58473E-06-2.07327E-06 2.62482E-05-8.85144E-05 1.02953E-05



 n o d a l   p r i n t   o u t   f o r   t i m e  s t e p    2401                              ( at time 1.1998799E+00 )

 nodal point  x-disp     y-disp      z-disp      x-vel       y-vel       z-vel      x-accl      y-accl      z-accl      x-coor      y-coor      z-coor
    22626 -1.89803E-04 1.94753E-02-3.79327E-02-1.98054E-04 3.02232E-02-6.12103E-02 1.46367E-03 1.34007E-02-5.13413E-02 4.65919E+00-2.81714E+01-4.50197E+01



 n o d a l   p r i n t   o u t   f o r   t i m e  s t e p    2401                              ( at time 1.1998799E+00 )

 nodal point  x-rot      y-rot       z-rot       x-rot vel   y-rot vel   z-rot vel   x-rot acc   y-rot acc   z-rot acc
    22626 -7.29511E-05-1.61422E-06-9.91109E-07-1.01335E-04-7.17111E-06-3.00414E-06 2.39663E-05 4.13661E-06-9.30964E-06



 n o d a l   p r i n t   o u t   f o r   t i m e  s t e p    2601                              ( at time 1.2998699E+00 )

 nodal point  x-disp     y-disp      z-disp      x-vel       y-vel       z-vel      x-accl      y-accl      z-accl      x-coor      y-coor      z-coor
    22626 -2.23856E-04 2.26249E-02-4.42079E-02-2.48746E-04 3.25962E-02-6.40520E-02-5.06972E-04 2.37327E-02-2.84196E-02 4.65915E+00-2.81682E+01-4.50259E+01



 n o d a l   p r i n t   o u t   f o r   t i m e  s t e p    2601                              ( at time 1.2998699E+00 )

 nodal point  x-rot      y-rot       z-rot       x-rot vel   y-rot vel   z-rot vel   x-rot acc   y-rot acc   z-rot acc
    22626 -8.39948E-05-2.17116E-06-1.24591E-06-1.29527E-04 2.12891E-08-1.42240E-06-2.81946E-04 7.19312E-05 1.58190E-05



 n o d a l   p r i n t   o u t   f o r   t i m e  s t e p    2801                              ( at time 1.3998599E+00 )

 nodal point  x-disp     y-disp      z-disp      x-vel       y-vel       z-vel      x-accl      y-accl      z-accl      x-coor      y-coor      z-coor
    22626 -2.51487E-04 2.59924E-02-5.07122E-02-4.49961E-04 3.45122E-02-6.66725E-02-2.01235E-03 1.91616E-02-2.62078E-02 4.65912E+00-2.81648E+01-4.50324E+01



 n o d a l   p r i n t   o u t   f o r   t i m e  s t e p    2801                              ( at time 1.3998599E+00 )

 nodal point  x-rot      y-rot       z-rot       x-rot vel   y-rot vel   z-rot vel   x-rot acc   y-rot acc   z-rot acc
    22626 -9.73982E-05-2.01127E-06-1.34498E-06-1.36912E-04-2.04253E-07 1.70601E-06-7.38575E-05-2.25565E-06 3.12872E-05



 n o d a l   p r i n t   o u t   f o r   t i m e  s t e p    3001                              ( at time 1.4998499E+00 )

 nodal point  x-disp     y-disp      z-disp      x-vel       y-vel       z-vel      x-accl      y-accl      z-accl      x-coor      y-coor      z-coor
    22626 -2.96370E-04 2.95912E-02-5.77242E-02-4.46268E-04 3.72834E-02-7.39842E-02 3.69365E-05 2.77152E-02-7.31240E-02 4.65908E+00-2.81612E+01-4.50394E+01



 n o d a l   p r i n t   o u t   f o r   t i m e  s t e p    3001                              ( at time 1.4998499E+00 )

 nodal point  x-rot      y-rot       z-rot       x-rot vel   y-rot vel   z-rot vel   x-rot acc   y-rot acc   z-rot acc
    22626 -1.10707E-04-2.03162E-06-1.27055E-06-1.28719E-04-1.11407E-06-1.71374E-06 8.19407E-05-9.09908E-06-3.42009E-05



 n o d a l   p r i n t   o u t   f o r   t i m e  s t e p    3201                              ( at time 1.5998399E+00 )

 nodal point  x-disp     y-disp      z-disp      x-vel       y-vel       z-vel      x-accl      y-accl      z-accl      x-coor      y-coor      z-coor
    22626 -3.60095E-04 3.34891E-02-6.54465E-02-5.83171E-04 4.05419E-02-7.97061E-02-1.36917E-03 3.25885E-02-5.72248E-02 4.65901E+00-2.81573E+01-4.50472E+01



 n o d a l   p r i n t   o u t   f o r   t i m e  s t e p    3201                              ( at time 1.5998399E+00 )

 nodal point  x-rot      y-rot       z-rot       x-rot vel   y-rot vel   z-rot vel   x-rot acc   y-rot acc   z-rot acc
    22626 -1.23312E-04-2.14863E-06-1.09822E-06-1.34717E-04-3.00772E-06 3.09625E-06-5.99907E-05-1.89384E-05 4.81047E-05



 n o d a l   p r i n t   o u t   f o r   t i m e  s t e p    3401                              ( at time 1.6998299E+00 )

 nodal point  x-disp     y-disp      z-disp      x-vel       y-vel       z-vel      x-accl      y-accl      z-accl      x-coor      y-coor      z-coor
    22626 -4.21702E-04 3.76416E-02-7.35823E-02-7.27127E-04 4.22419E-02-8.25941E-02-1.43970E-03 1.70012E-02-2.88833E-02 4.65895E+00-2.81532E+01-4.50553E+01



 n o d a l   p r i n t   o u t   f o r   t i m e  s t e p    3401                              ( at time 1.6998299E+00 )

 nodal point  x-rot      y-rot       z-rot       x-rot vel   y-rot vel   z-rot vel   x-rot acc   y-rot acc   z-rot acc
    22626 -1.37611E-04-2.15280E-06-9.09581E-07-1.47507E-04 1.60204E-06 3.94427E-06-1.27912E-04 4.61022E-05 8.48102E-06



 n o d a l   p r i n t   o u t   f o r   t i m e  s t e p    3601                              ( at time 1.7998199E+00 )

 nodal point  x-disp     y-disp      z-disp      x-vel       y-vel       z-vel      x-accl      y-accl      z-accl      x-coor      y-coor      z-coor
    22626 -4.84870E-04 4.19002E-02-8.19598E-02-5.09972E-04 4.32781E-02-8.48699E-02 2.17177E-03 1.03631E-02-2.27605E-02 4.65889E+00-2.81489E+01-4.50637E+01



 n o d a l   p r i n t   o u t   f o r   t i m e  s t e p    3601                              ( at time 1.7998199E+00 )

 nodal point  x-rot      y-rot       z-rot       x-rot vel   y-rot vel   z-rot vel   x-rot acc   y-rot acc   z-rot acc
    22626 -1.52821E-04-2.06460E-06-7.77876E-07-1.49807E-04 1.46343E-06-1.43894E-06-2.30028E-05-1.38622E-06-5.38376E-05



 n o d a l   p r i n t   o u t   f o r   t i m e  s t e p    3801                              ( at time 1.8998099E+00 )

 nodal point  x-disp     y-disp      z-disp      x-vel       y-vel       z-vel      x-accl      y-accl      z-accl      x-coor      y-coor      z-coor
    22626 -5.44119E-04 4.63775E-02-9.06359E-02-5.22699E-04 4.60792E-02-8.88729E-02-1.27286E-04 2.80138E-02-4.00337E-02 4.65883E+00-2.81445E+01-4.50724E+01



 n o d a l   p r i n t   o u t   f o r   t i m e  s t e p    3801                              ( at time 1.8998099E+00 )

 nodal point  x-rot      y-rot       z-rot       x-rot vel   y-rot vel   z-rot vel   x-rot acc   y-rot acc   z-rot acc
    22626 -1.67676E-04-1.85468E-06-6.48339E-07-1.49920E-04-1.60535E-06-5.06742E-07-1.12760E-06-3.06909E-05 9.32296E-06



 n o d a l   p r i n t   o u t   f o r   t i m e  s t e p    4001                              ( at time 1.9997999E+00 )

 nodal point  x-disp     y-disp      z-disp      x-vel       y-vel       z-vel      x-accl      y-accl      z-accl      x-coor      y-coor      z-coor
    22626 -5.94955E-04 5.10272E-02-9.97453E-02-5.48962E-04 4.71716E-02-9.31118E-02-2.62655E-04 1.09255E-02-4.23929E-02 4.65878E+00-2.81398E+01-4.50815E+01



 n o d a l   p r i n t   o u t   f o r   t i m e  s t e p    4001                              ( at time 1.9997999E+00 )

 nodal point  x-rot      y-rot       z-rot       x-rot vel   y-rot vel   z-rot vel   x-rot acc   y-rot acc   z-rot acc
    22626 -1.82767E-04-2.08991E-06-6.99270E-07-1.56108E-04-4.56266E-06-1.65007E-07-6.18872E-05-2.95760E-05 3.41769E-06



 n o d a l   p r i n t   o u t   f o r   t i m e  s t e p    4201                              ( at time 2.0997899E+00 )

 nodal point  x-disp     y-disp      z-disp      x-vel       y-vel       z-vel      x-accl      y-accl      z-accl      x-coor      y-coor      z-coor
    22626 -6.49120E-04 5.57836E-02-1.09162E-01-5.56334E-04 4.81947E-02-9.53000E-02-7.37204E-05 1.02321E-02-2.18850E-02 4.65873E+00-2.81350E+01-4.50909E+01



 n o d a l   p r i n t   o u t   f o r   t i m e  s t e p    4201                              ( at time 2.0997899E+00 )

 nodal point  x-rot      y-rot       z-rot       x-rot vel   y-rot vel   z-rot vel   x-rot acc   y-rot acc   z-rot acc
    22626 -1.97946E-04-2.47971E-06-8.62039E-07-1.49960E-04-1.57565E-06 2.10024E-06 6.14816E-05 2.98731E-05 2.26548E-05



 n o d a l   p r i n t   o u t   f o r   t i m e  s t e p    4401                              ( at time 2.1997798E+00 )

 nodal point  x-disp     y-disp      z-disp      x-vel       y-vel       z-vel      x-accl      y-accl      z-accl      x-coor      y-coor      z-coor
    22626 -7.07848E-04 6.06673E-02-1.18761E-01-4.97385E-04 4.91654E-02-9.67316E-02 5.89545E-04 9.70793E-03-1.43174E-02 4.65867E+00-2.81302E+01-4.51005E+01



 n o d a l   p r i n t   o u t   f o r   t i m e  s t e p    4401                              ( at time 2.1997798E+00 )

 nodal point  x-rot      y-rot       z-rot       x-rot vel   y-rot vel   z-rot vel   x-rot acc   y-rot acc   z-rot acc
    22626 -2.13320E-04-2.58737E-06-8.60044E-07-1.59137E-04-1.60897E-06-1.05099E-06-9.17699E-05-3.33258E-07-3.15155E-05



 n o d a l   p r i n t   o u t   f o r   t i m e  s t e p    4601                              ( at time 2.2997698E+00 )

 nodal point  x-disp     y-disp      z-disp      x-vel       y-vel       z-vel      x-accl      y-accl      z-accl      x-coor      y-coor      z-coor
    22626 -7.62896E-04 6.56142E-02-1.28510E-01-6.45844E-04 5.01855E-02-9.87388E-02-1.48474E-03 1.02017E-02-2.00733E-02 4.65861E+00-2.81252E+01-4.51102E+01



 n o d a l   p r i n t   o u t   f o r   t i m e  s t e p    4601                              ( at time 2.2997698E+00 )

 nodal point  x-rot      y-rot       z-rot       x-rot vel   y-rot vel   z-rot vel   x-rot acc   y-rot acc   z-rot acc
    22626 -2.29838E-04-2.52044E-06-8.68765E-07-1.61270E-04 8.19835E-07-1.06478E-06-2.13364E-05 2.42905E-05-1.37937E-07



 n o d a l   p r i n t   o u t   f o r   t i m e  s t e p    4801                              ( at time 2.3997598E+00 )

 nodal point  x-disp     y-disp      z-disp      x-vel       y-vel       z-vel      x-accl      y-accl      z-accl      x-coor      y-coor      z-coor
    22626 -8.37404E-04 7.07390E-02-1.38609E-01-7.66354E-04 5.20282E-02-1.03261E-01-1.20522E-03 1.84287E-02-4.52305E-02 4.65854E+00-2.81201E+01-4.51203E+01



 n o d a l   p r i n t   o u t   f o r   t i m e  s t e p    4801                              ( at time 2.3997598E+00 )

 nodal point  x-rot      y-rot       z-rot       x-rot vel   y-rot vel   z-rot vel   x-rot acc   y-rot acc   z-rot acc
    22626 -2.45590E-04-2.51345E-06-5.96873E-07-1.55324E-04-5.67252E-08 4.25853E-06 5.94669E-05-8.76648E-06 5.32385E-05



 n o d a l   p r i n t   o u t   f o r   t i m e  s t e p    5001                              ( at time 2.4997498E+00 )

 nodal point  x-disp     y-disp      z-disp      x-vel       y-vel       z-vel      x-accl      y-accl      z-accl      x-coor      y-coor      z-coor
    22626 -9.18625E-04 7.60402E-02-1.49107E-01-9.22865E-04 5.34360E-02-1.05955E-01-1.56527E-03 1.40790E-02-2.69420E-02 4.65846E+00-2.81148E+01-4.51308E+01



 n o d a l   p r i n t   o u t   f o r   t i m e  s t e p    5001                              ( at time 2.4997498E+00 )

 nodal point  x-rot      y-rot       z-rot       x-rot vel   y-rot vel   z-rot vel   x-rot acc   y-rot acc   z-rot acc
    22626 -2.61161E-04-2.39189E-06-3.34663E-07-1.54627E-04 1.78410E-06 4.39280E-06 6.96945E-06 1.84101E-05 1.34282E-06



 n o d a l   p r i n t   o u t   f o r   t i m e  s t e p    5201                              ( at time 2.5997398E+00 )

 nodal point  x-disp     y-disp      z-disp      x-vel       y-vel       z-vel      x-accl      y-accl      z-accl      x-coor      y-coor      z-coor
    22626 -1.00934E-03 8.13922E-02-1.59710E-01-9.95130E-04 5.34897E-02-1.06032E-01-7.22720E-04 5.37353E-04-7.62197E-04 4.65837E+00-2.81094E+01-4.51414E+01



 n o d a l   p r i n t   o u t   f o r   t i m e  s t e p    5201                              ( at time 2.5997398E+00 )

 nodal point  x-rot      y-rot       z-rot       x-rot vel   y-rot vel   z-rot vel   x-rot acc   y-rot acc   z-rot acc
    22626 -2.76668E-04-2.06423E-06 5.76550E-08-1.51660E-04 5.13370E-06 4.90207E-06 2.96758E-05 3.34994E-05 5.09323E-06



 n o d a l   p r i n t   o u t   f o r   t i m e  s t e p    5401                              ( at time 2.6997298E+00 )

 nodal point  x-disp     y-disp      z-disp      x-vel       y-vel       z-vel      x-accl      y-accl      z-accl      x-coor      y-coor      z-coor
    22626 -1.10756E-03 8.67282E-02-1.70314E-01-8.14468E-04 5.35562E-02-1.06230E-01 1.80680E-03 6.65291E-04-1.98585E-03 4.65827E+00-2.81041E+01-4.51520E+01



 n o d a l   p r i n t   o u t   f o r   t i m e  s t e p    5401                              ( at time 2.6997298E+00 )

 nodal point  x-rot      y-rot       z-rot       x-rot vel   y-rot vel   z-rot vel   x-rot acc   y-rot acc   z-rot acc
    22626 -2.92383E-04-1.62651E-06 5.82436E-07-1.63050E-04 5.38331E-06 3.51094E-06-1.13918E-04 2.49635E-06-1.39127E-05



 n o d a l   p r i n t   o u t   f o r   t i m e  s t e p    5601                              ( at time 2.7997198E+00 )

 nodal point  x-disp     y-disp      z-disp      x-vel       y-vel       z-vel      x-accl      y-accl      z-accl      x-coor      y-coor      z-coor
    22626 -1.19455E-03 9.21214E-02-1.80982E-01-8.86756E-04 5.42818E-02-1.07480E-01-7.22956E-04 7.25700E-03-1.24977E-02 4.65818E+00-2.80987E+01-4.51627E+01



 n o d a l   p r i n t   o u t   f o r   t i m e  s t e p    5601                              ( at time 2.7997198E+00 )

 nodal point  x-rot      y-rot       z-rot       x-rot vel   y-rot vel   z-rot vel   x-rot acc   y-rot acc   z-rot acc
    22626 -3.07870E-04-1.11384E-06 9.98475E-07-1.44521E-04 3.17940E-06 4.36953E-06 1.85317E-04-2.20413E-05 8.58680E-06



 n o d a l   p r i n t   o u t   f o r   t i m e  s t e p    5801                              ( at time 2.8997098E+00 )

 nodal point  x-disp     y-disp      z-disp      x-vel       y-vel       z-vel      x-accl      y-accl      z-accl      x-coor      y-coor      z-coor
    22626 -1.27579E-03 9.75421E-02-1.91832E-01-7.40518E-04 5.41977E-02-1.09470E-01 1.46253E-03-8.41367E-04-1.99060E-02 4.65810E+00-2.80933E+01-4.51736E+01



 n o d a l   p r i n t   o u t   f o r   t i m e  s t e p    5801                              ( at time 2.8997098E+00 )

 nodal point  x-rot      y-rot       z-rot       x-rot vel   y-rot vel   z-rot vel   x-rot acc   y-rot acc   z-rot acc
    22626 -3.21821E-04-9.19178E-07 1.29777E-06-1.39988E-04 6.10081E-07 3.63633E-06 4.53339E-05-2.56958E-05-7.33272E-06



 n o d a l   p r i n t   o u t   f o r   t i m e  s t e p    6001                              ( at time 2.9996998E+00 )

 nodal point  x-disp     y-disp      z-disp      x-vel       y-vel       z-vel      x-accl      y-accl      z-accl      x-coor      y-coor      z-coor
    22626 -1.35939E-03 1.02933E-01-2.02795E-01-7.24120E-04 5.35799E-02-1.09334E-01 1.63998E-04-6.17912E-03 1.35830E-03 4.65802E+00-2.80879E+01-4.51845E+01



 n o d a l   p r i n t   o u t   f o r   t i m e  s t e p    6001                              ( at time 2.9996998E+00 )

 nodal point  x-rot      y-rot       z-rot       x-rot vel   y-rot vel   z-rot vel   x-rot acc   y-rot acc   z-rot acc
    22626 -3.36598E-04-8.80547E-07 1.48145E-06-1.50117E-04 3.61560E-07 2.46830E-06-1.01307E-04-2.48546E-06-1.16815E-05



 n o d a l   p r i n t   o u t   f o r   t i m e  s t e p    6201                              ( at time 3.0996898E+00 )

 nodal point  x-disp     y-disp      z-disp      x-vel       y-vel       z-vel      x-accl      y-accl      z-accl      x-coor      y-coor      z-coor
    22626 -1.42823E-03 1.08282E-01-2.13684E-01-7.46547E-04 5.36030E-02-1.08913E-01-2.24293E-04 2.31289E-04 4.21343E-03 4.65795E+00-2.80825E+01-4.51954E+01



 n o d a l   p r i n t   o u t   f o r   t i m e  s t e p    6201                              ( at time 3.0996898E+00 )

 nodal point  x-rot      y-rot       z-rot       x-rot vel   y-rot vel   z-rot vel   x-rot acc   y-rot acc   z-rot acc
    22626 -3.51633E-04-8.06493E-07 1.73959E-06-1.49105E-04 8.96517E-08 4.41611E-06 1.01289E-05-2.71936E-06 1.94801E-05



 n o d a l   p r i n t   o u t   f o r   t i m e  s t e p    6401                              ( at time 3.1996798E+00 )

 nodal point  x-disp     y-disp      z-disp      x-vel       y-vel       z-vel      x-accl      y-accl      z-accl      x-coor      y-coor      z-coor
    22626 -1.49396E-03 1.13660E-01-2.24665E-01-6.51116E-04 5.40015E-02-1.10853E-01 9.54411E-04 3.98508E-03-1.94007E-02 4.65788E+00-2.80772E+01-4.52064E+01



 n o d a l   p r i n t   o u t   f o r   t i m e  s t e p    6401                              ( at time 3.1996798E+00 )

 nodal point  x-rot      y-rot       z-rot       x-rot vel   y-rot vel   z-rot vel   x-rot acc   y-rot acc   z-rot acc
    22626 -3.66474E-04-6.82235E-07 1.88840E-06-1.42069E-04 1.50978E-06 1.27431E-06 7.03665E-05 1.42027E-05-3.14212E-05



 n o d a l   p r i n t   o u t   f o r   t i m e  s t e p    6601                              ( at time 3.2996698E+00 )

 nodal point  x-disp     y-disp      z-disp      x-vel       y-vel       z-vel      x-accl      y-accl      z-accl      x-coor      y-coor      z-coor
    22626 -1.57219E-03 1.19081E-01-2.35856E-01-8.25622E-04 5.42959E-02-1.12740E-01-1.74524E-03 2.94510E-03-1.88776E-02 4.65780E+00-2.80717E+01-4.52176E+01



 n o d a l   p r i n t   o u t   f o r   t i m e  s t e p    6601                              ( at time 3.2996698E+00 )

 nodal point  x-rot      y-rot       z-rot       x-rot vel   y-rot vel   z-rot vel   x-rot acc   y-rot acc   z-rot acc
    22626 -3.80617E-04-5.10205E-07 2.14727E-06-1.38052E-04 2.42086E-06 2.75604E-06 4.01666E-05 9.11173E-06 1.48188E-05



 n o d a l   p r i n t   o u t   f o r   t i m e  s t e p    6801                              ( at time 3.3996598E+00 )

 nodal point  x-disp     y-disp      z-disp      x-vel       y-vel       z-vel      x-accl      y-accl      z-accl      x-coor      y-coor      z-coor
    22626 -1.65960E-03 1.24510E-01-2.47149E-01-9.71410E-04 5.40554E-02-1.13024E-01-1.45803E-03-2.40562E-03-2.83709E-03 4.65772E+00-2.80663E+01-4.52289E+01



 n o d a l   p r i n t   o u t   f o r   t i m e  s t e p    6801                              ( at time 3.3996598E+00 )

 nodal point  x-rot      y-rot       z-rot       x-rot vel   y-rot vel   z-rot vel   x-rot acc   y-rot acc   z-rot acc
    22626 -3.94339E-04-3.62940E-07 2.49790E-06-1.36847E-04 3.62262E-06 6.19585E-06 1.20570E-05 1.20188E-05 3.44015E-05



 n o d a l   p r i n t   o u t   f o r   t i m e  s t e p    7001                              ( at time 3.4996498E+00 )

 nodal point  x-disp     y-disp      z-disp      x-vel       y-vel       z-vel      x-accl      y-accl      z-accl      x-coor      y-coor      z-coor
    22626 -1.75296E-03 1.29862E-01-2.58387E-01-9.61182E-04 5.30870E-02-1.11681E-01 1.02289E-04-9.68468E-03 1.34365E-02 4.65762E+00-2.80610E+01-4.52401E+01



 n o d a l   p r i n t   o u t   f o r   t i m e  s t e p    7001                              ( at time 3.4996498E+00 )

 nodal point  x-rot      y-rot       z-rot       x-rot vel   y-rot vel   z-rot vel   x-rot acc   y-rot acc   z-rot acc
    22626 -4.08259E-04-2.47127E-08 2.94915E-06-1.37395E-04 4.60465E-06 4.24574E-06-5.47746E-06 9.82124E-06-1.95030E-05



 n o d a l   p r i n t   o u t   f o r   t i m e  s t e p    7201                              ( at time 3.5996397E+00 )

 nodal point  x-disp     y-disp      z-disp      x-vel       y-vel       z-vel      x-accl      y-accl      z-accl      x-coor      y-coor      z-coor
    22626 -1.84522E-03 1.35128E-01-2.69483E-01-8.06880E-04 5.20733E-02-1.10689E-01 1.54318E-03-1.01385E-02 9.91638E-03 4.65753E+00-2.80557E+01-4.52512E+01



 n o d a l   p r i n t   o u t   f o r   t i m e  s t e p    7201                              ( at time 3.5996397E+00 )

 nodal point  x-rot      y-rot       z-rot       x-rot vel   y-rot vel   z-rot vel   x-rot acc   y-rot acc   z-rot acc
    22626 -4.21649E-04 6.09514E-07 3.50515E-06-1.34793E-04 6.01134E-06 3.40087E-06 2.60156E-05 1.40683E-05-8.44962E-06



 n o d a l   p r i n t   o u t   f o r   t i m e  s t e p    7401                              ( at time 3.6996297E+00 )

 nodal point  x-disp     y-disp      z-disp      x-vel       y-vel       z-vel      x-accl      y-accl      z-accl      x-coor      y-coor      z-coor
    22626 -1.92985E-03 1.40290E-01-2.80549E-01-8.09954E-04 5.11665E-02-1.10735E-01-3.07489E-05-9.06888E-03-4.55201E-04 4.65744E+00-2.80505E+01-4.52623E+01



 n o d a l   p r i n t   o u t   f o r   t i m e  s t e p    7401                              ( at time 3.6996297E+00 )

 nodal point  x-rot      y-rot       z-rot       x-rot vel   y-rot vel   z-rot vel   x-rot acc   y-rot acc   z-rot acc
    22626 -4.34728E-04 1.09791E-06 3.91968E-06-1.26778E-04 2.89529E-06 3.64692E-06 8.01594E-05-3.11636E-05 2.46079E-06



 n o d a l   p r i n t   o u t   f o r   t i m e  s t e p    7601                              ( at time 3.7996197E+00 )

 nodal point  x-disp     y-disp      z-disp      x-vel       y-vel       z-vel      x-accl      y-accl      z-accl      x-coor      y-coor      z-coor
    22626 -2.00978E-03 1.45339E-01-2.91589E-01-7.72201E-04 4.98051E-02-1.09918E-01 3.77574E-04-1.36148E-02 8.16279E-03 4.65737E+00-2.80455E+01-4.52733E+01



 n o d a l   p r i n t   o u t   f o r   t i m e  s t e p    7601                              ( at time 3.7996197E+00 )

 nodal point  x-rot      y-rot       z-rot       x-rot vel   y-rot vel   z-rot vel   x-rot acc   y-rot acc   z-rot acc
    22626 -4.46955E-04 1.21831E-06 4.24011E-06-1.23856E-04-5.26319E-08 1.99746E-06 2.92264E-05-2.94822E-05-1.64963E-05



 n o d a l   p r i n t   o u t   f o r   t i m e  s t e p    7801                              ( at time 3.8996097E+00 )

 nodal point  x-disp     y-disp      z-disp      x-vel       y-vel       z-vel      x-accl      y-accl      z-accl      x-coor      y-coor      z-coor
    22626 -2.07551E-03 1.50244E-01-3.02494E-01-5.79265E-04 4.82367E-02-1.08008E-01 1.92955E-03-1.56854E-02 1.91044E-02 4.65730E+00-2.80406E+01-4.52842E+01



 n o d a l   p r i n t   o u t   f o r   t i m e  s t e p    7801                              ( at time 3.8996097E+00 )

 nodal point  x-rot      y-rot       z-rot       x-rot vel   y-rot vel   z-rot vel   x-rot acc   y-rot acc   z-rot acc
    22626 -4.59366E-04 1.21370E-06 4.41809E-06-1.30386E-04 1.08970E-06 1.41757E-06-6.53130E-05 1.14244E-05-5.79945E-06



 n o d a l   p r i n t   o u t   f o r   t i m e  s t e p    8001                              ( at time 3.9995997E+00 )

 nodal point  x-disp     y-disp      z-disp      x-vel       y-vel       z-vel      x-accl      y-accl      z-accl      x-coor      y-coor      z-coor
    22626 -2.12374E-03 1.54988E-01-3.13162E-01-4.36997E-04 4.68589E-02-1.05476E-01 1.42282E-03-1.37799E-02 2.53262E-02 4.65725E+00-2.80358E+01-4.52949E+01



 n o d a l   p r i n t   o u t   f o r   t i m e  s t e p    8001                              ( at time 3.9995997E+00 )

 nodal point  x-rot      y-rot       z-rot       x-rot vel   y-rot vel   z-rot vel   x-rot acc   y-rot acc   z-rot acc
    22626 -4.72118E-04 1.20540E-06 4.46251E-06-1.23206E-04-1.28583E-07 1.80252E-06 7.18076E-05-1.21841E-05 3.84986E-06



 n o d a l   p r i n t   o u t   f o r   t i m e  s t e p    8201                              ( at time 4.0995897E+00 )

 nodal point  x-disp     y-disp      z-disp      x-vel       y-vel       z-vel      x-accl      y-accl      z-accl      x-coor      y-coor      z-coor
    22626 -2.16977E-03 1.59606E-01-3.23653E-01-4.06071E-04 4.56133E-02-1.04619E-01 3.09284E-04-1.24574E-02 8.56559E-03 4.65721E+00-2.80312E+01-4.53054E+01



 n o d a l   p r i n t   o u t   f o r   t i m e  s t e p    8201                              ( at time 4.0995897E+00 )

 nodal point  x-rot      y-rot       z-rot       x-rot vel   y-rot vel   z-rot vel   x-rot acc   y-rot acc   z-rot acc
    22626 -4.83417E-04 1.16484E-06 4.56302E-06-1.11214E-04-6.18193E-07 1.82178E-06 1.19939E-04-4.89659E-06 1.92675E-07



 n o d a l   p r i n t   o u t   f o r   t i m e  s t e p    8401                              ( at time 4.1995797E+00 )

 nodal point  x-disp     y-disp      z-disp      x-vel       y-vel       z-vel      x-accl      y-accl      z-accl      x-coor      y-coor      z-coor
    22626 -2.21859E-03 1.64146E-01-3.34061E-01-5.79117E-04 4.52003E-02-1.03376E-01-1.73063E-03-4.12968E-03 1.24368E-02 4.65716E+00-2.80267E+01-4.53158E+01



 n o d a l   p r i n t   o u t   f o r   t i m e  s t e p    8401                              ( at time 4.1995797E+00 )

 nodal point  x-rot      y-rot       z-rot       x-rot vel   y-rot vel   z-rot vel   x-rot acc   y-rot acc   z-rot acc
    22626 -4.94399E-04 1.10449E-06 4.56834E-06-1.11969E-04 6.70764E-07 1.30086E-06-7.55728E-06 1.28909E-05-5.20973E-06



 n o d a l   p r i n t   o u t   f o r   t i m e  s t e p    8601                              ( at time 4.2995697E+00 )

 nodal point  x-disp     y-disp      z-disp      x-vel       y-vel       z-vel      x-accl      y-accl      z-accl      x-coor      y-coor      z-coor
    22626 -2.27739E-03 1.68643E-01-3.44299E-01-6.17413E-04 4.48011E-02-1.01237E-01-3.83004E-04-3.99321E-03 2.13917E-02 4.65710E+00-2.80222E+01-4.53260E+01



 n o d a l   p r i n t   o u t   f o r   t i m e  s t e p    8601                              ( at time 4.2995697E+00 )

 nodal point  x-rot      y-rot       z-rot       x-rot vel   y-rot vel   z-rot vel   x-rot acc   y-rot acc   z-rot acc
    22626 -5.05081E-04 1.19534E-06 4.79128E-06-1.06590E-04 2.18469E-06 2.59950E-06 5.37978E-05 1.51408E-05 1.29877E-05



 n o d a l   p r i n t   o u t   f o r   t i m e  s t e p    8801                              ( at time 4.3995597E+00 )

 nodal point  x-disp     y-disp      z-disp      x-vel       y-vel       z-vel      x-accl      y-accl      z-accl      x-coor      y-coor      z-coor
    22626 -2.34634E-03 1.73079E-01-3.54280E-01-6.59561E-04 4.41023E-02-9.82779E-02-4.21520E-04-6.98827E-03 2.95920E-02 4.65703E+00-2.80177E+01-4.53360E+01



 n o d a l   p r i n t   o u t   f o r   t i m e  s t e p    8801                              ( at time 4.3995597E+00 )

 nodal point  x-rot      y-rot       z-rot       x-rot vel   y-rot vel   z-rot vel   x-rot acc   y-rot acc   z-rot acc
    22626 -5.15495E-04 1.46615E-06 4.90366E-06-1.04956E-04 2.61021E-06-2.19745E-07 1.63467E-05 4.25561E-06-2.81953E-05



 n o d a l   p r i n t   o u t   f o r   t i m e  s t e p    9001                              ( at time 4.4995497E+00 )

 nodal point  x-disp     y-disp      z-disp      x-vel       y-vel       z-vel      x-accl      y-accl      z-accl      x-coor      y-coor      z-coor
    22626 -2.43046E-03 1.77537E-01-3.64018E-01-9.88635E-04 4.54965E-02-9.69076E-02-3.29105E-03 1.39433E-02 1.37043E-02 4.65694E+00-2.80133E+01-4.53457E+01



 n o d a l   p r i n t   o u t   f o r   t i m e  s t e p    9001                              ( at time 4.4995497E+00 )

 nodal point  x-rot      y-rot       z-rot       x-rot vel   y-rot vel   z-rot vel   x-rot acc   y-rot acc   z-rot acc
    22626 -5.26615E-04 1.58257E-06 4.66169E-06-1.10671E-04-5.10203E-07-4.43871E-06-5.71592E-05-3.12071E-05-4.21937E-05



 n o d a l   p r i n t   o u t   f o r   t i m e  s t e p    9201                              ( at time 4.5995397E+00 )

 nodal point  x-disp     y-disp      z-disp      x-vel       y-vel       z-vel      x-accl      y-accl      z-accl      x-coor      y-coor      z-coor
    22626 -2.51717E-03 1.82169E-01-3.73691E-01-7.68764E-04 4.72235E-02-9.62829E-02 2.19893E-03 1.72714E-02 6.24817E-03 4.65686E+00-2.80087E+01-4.53554E+01



 n o d a l   p r i n t   o u t   f o r   t i m e  s t e p    9201                              ( at time 4.5995397E+00 )

 nodal point  x-rot      y-rot       z-rot       x-rot vel   y-rot vel   z-rot vel   x-rot acc   y-rot acc   z-rot acc
    22626 -5.37591E-04 1.48671E-06 4.17329E-06-1.07881E-04-1.15585E-06-2.08970E-06 2.79025E-05-6.45714E-06 2.34924E-05



 n o d a l   p r i n t   o u t   f o r   t i m e  s t e p    9401                              ( at time 4.6995297E+00 )

 nodal point  x-disp     y-disp      z-disp      x-vel       y-vel       z-vel      x-accl      y-accl      z-accl      x-coor      y-coor      z-coor
    22626 -2.58343E-03 1.86982E-01-3.83222E-01-7.74651E-04 4.92844E-02-9.44415E-02-5.88690E-05 2.06114E-02 1.84149E-02 4.65679E+00-2.80038E+01-4.53649E+01



 n o d a l   p r i n t   o u t   f o r   t i m e  s t e p    9401                              ( at time 4.6995297E+00 )

 nodal point  x-rot      y-rot       z-rot       x-rot vel   y-rot vel   z-rot vel   x-rot acc   y-rot acc   z-rot acc
    22626 -5.49474E-04 1.29458E-06 3.70415E-06-1.33010E-04-3.23687E-06-7.56904E-06-2.51321E-04-2.08123E-05-5.47989E-05



 n o d a l   p r i n t   o u t   f o r   t i m e  s t e p    9601                              ( at time 4.7995197E+00 )

 nodal point  x-disp     y-disp      z-disp      x-vel       y-vel       z-vel      x-accl      y-accl      z-accl      x-coor      y-coor      z-coor
    22626 -2.66799E-03 1.92065E-01-3.92551E-01-9.49567E-04 5.26207E-02-9.18132E-02-1.74934E-03 3.33663E-02 2.62863E-02 4.65671E+00-2.79988E+01-4.53743E+01



 n o d a l   p r i n t   o u t   f o r   t i m e  s t e p    9601                              ( at time 4.7995197E+00 )

 nodal point  x-rot      y-rot       z-rot       x-rot vel   y-rot vel   z-rot vel   x-rot acc   y-rot acc   z-rot acc
    22626 -5.64113E-04 5.53766E-07 2.56250E-06-1.63552E-04-7.55184E-06-1.42650E-05-3.05442E-04-4.31541E-05-6.69661E-05



 n o d a l   p r i n t   o u t   f o r   t i m e  s t e p    9801                              ( at time 4.8995097E+00 )

 nodal point  x-disp     y-disp      z-disp      x-vel       y-vel       z-vel      x-accl      y-accl      z-accl      x-coor      y-coor      z-coor
    22626 -2.73977E-03 1.97539E-01-4.01569E-01-5.35854E-04 5.71205E-02-8.87354E-02 4.13755E-03 4.50025E-02 3.07806E-02 4.65664E+00-2.79933E+01-4.53833E+01



 n o d a l   p r i n t   o u t   f o r   t i m e  s t e p    9801                              ( at time 4.8995097E+00 )

 nodal point  x-rot      y-rot       z-rot       x-rot vel   y-rot vel   z-rot vel   x-rot acc   y-rot acc   z-rot acc
    22626 -5.81804E-04-1.47103E-07 1.42987E-06-1.92758E-04-3.89583E-06-8.03086E-06-2.92098E-04 3.65639E-05 6.23474E-05



 n o d a l   p r i n t   o u t   f o r   t i m e  s t e p   10001                              ( at time 4.9994997E+00 )

 nodal point  x-disp     y-disp      z-disp      x-vel       y-vel       z-vel      x-accl      y-accl      z-accl      x-coor      y-coor      z-coor
    22626 -2.76806E-03 2.03558E-01-4.10400E-01-2.17904E-04 6.36174E-02-8.80358E-02 3.17981E-03 6.49754E-02 6.99699E-03 4.65661E+00-2.79873E+01-4.53921E+01



 n o d a l   p r i n t   o u t   f o r   t i m e  s t e p   10001                              ( at time 4.9994997E+00 )

 nodal point  x-rot      y-rot       z-rot       x-rot vel   y-rot vel   z-rot vel   x-rot acc   y-rot acc   z-rot acc
    22626 -6.03292E-04-4.71644E-07 6.87470E-07-2.37932E-04-4.02916E-06-7.74224E-06-4.51782E-04-1.33341E-06 2.88648E-06



 n o d a l   p r i n t   o u t   f o r   t i m e  s t e p   10202                              ( at time 5.0999896E+00 )

 nodal point  x-disp     y-disp      z-disp      x-vel       y-vel       z-vel      x-accl      y-accl      z-accl      x-coor      y-coor      z-coor
    22626 -2.83596E-03 2.10321E-01-4.19189E-01-9.29934E-04 7.09702E-02-8.67150E-02-7.08561E-03 7.31696E-02 1.31437E-02 4.65654E+00-2.79805E+01-4.54009E+01



 n o d a l   p r i n t   o u t   f o r   t i m e  s t e p   10202                              ( at time 5.0999896E+00 )

 nodal point  x-rot      y-rot       z-rot       x-rot vel   y-rot vel   z-rot vel   x-rot acc   y-rot acc   z-rot acc
    22626 -6.29650E-04-1.36168E-06-7.67690E-07-2.92761E-04-1.12743E-05-1.79425E-05-5.45615E-04-7.20986E-05-1.01505E-04



 n o d a l   p r i n t   o u t   f o r   t i m e  s t e p   10402                              ( at time 5.1999796E+00 )

 nodal point  x-disp     y-disp      z-disp      x-vel       y-vel       z-vel      x-accl      y-accl      z-accl      x-coor      y-coor      z-coor
    22626 -2.93650E-03 2.17847E-01-4.27770E-01-7.92662E-04 7.98211E-02-8.45095E-02 1.37285E-03 8.85173E-02 2.20576E-02 4.65644E+00-2.79730E+01-4.54095E+01



 n o d a l   p r i n t   o u t   f o r   t i m e  s t e p   10402                              ( at time 5.1999796E+00 )

 nodal point  x-rot      y-rot       z-rot       x-rot vel   y-rot vel   z-rot vel   x-rot acc   y-rot acc   z-rot acc
    22626 -6.62439E-04-2.14550E-06-2.33183E-06-3.71231E-04-1.76820E-06-1.25095E-05-7.84777E-04 9.50703E-05 5.43348E-05



 n o d a l   p r i n t   o u t   f o r   t i m e  s t e p   10602                              ( at time 5.2999696E+00 )

 nodal point  x-disp     y-disp      z-disp      x-vel       y-vel       z-vel      x-accl      y-accl      z-accl      x-coor      y-coor      z-coor
    22626 -2.95432E-03 2.26310E-01-4.36062E-01 2.50322E-04 8.99196E-02-8.16946E-02 1.04309E-02 1.00996E-01 2.81515E-02 4.65642E+00-2.79645E+01-4.54178E+01



 n o d a l   p r i n t   o u t   f o r   t i m e  s t e p   10602                              ( at time 5.2999696E+00 )

 nodal point  x-rot      y-rot       z-rot       x-rot vel   y-rot vel   z-rot vel   x-rot acc   y-rot acc   z-rot acc
    22626 -7.03701E-04-1.56072E-06-2.51461E-06-4.55174E-04 9.35456E-06 3.75812E-06-8.39510E-04 1.11239E-04 1.62693E-04



 n o d a l   p r i n t   o u t   f o r   t i m e  s t e p   10802                              ( at time 5.3999596E+00 )

 nodal point  x-disp     y-disp      z-disp      x-vel       y-vel       z-vel      x-accl      y-accl      z-accl      x-coor      y-coor      z-coor
    22626 -2.94531E-03 2.35882E-01-4.44213E-01-2.00549E-04 1.01440E-01-8.16675E-02-4.50916E-03 1.15220E-01 2.70856E-04 4.65643E+00-2.79549E+01-4.54259E+01



 n o d a l   p r i n t   o u t   f o r   t i m e  s t e p   10802                              ( at time 5.3999596E+00 )

 nodal point  x-rot      y-rot       z-rot       x-rot vel   y-rot vel   z-rot vel   x-rot acc   y-rot acc   z-rot acc
    22626 -7.52756E-04-1.11809E-06-2.35663E-06-5.25518E-04-1.48964E-06-3.96714E-06-7.03519E-04-1.08453E-04-7.72605E-05



 n o d a l   p r i n t   o u t   f o r   t i m e  s t e p   11002                              ( at time 5.4999496E+00 )

 nodal point  x-disp     y-disp      z-disp      x-vel       y-vel       z-vel      x-accl      y-accl      z-accl      x-coor      y-coor      z-coor
    22626 -2.99342E-03 2.46627E-01-4.52315E-01-2.37410E-04 1.13715E-01-8.00365E-02-3.68655E-04 1.22763E-01 1.63119E-02 4.65638E+00-2.79442E+01-4.54340E+01



 n o d a l   p r i n t   o u t   f o r   t i m e  s t e p   11002                              ( at time 5.4999496E+00 )

 nodal point  x-rot      y-rot       z-rot       x-rot vel   y-rot vel   z-rot vel   x-rot acc   y-rot acc   z-rot acc
    22626 -8.09837E-04-1.35182E-06-3.47094E-06-6.25844E-04 8.78400E-07-7.96749E-06-1.00336E-03 2.36828E-05-4.00075E-05



 n o d a l   p r i n t   o u t   f o r   t i m e  s t e p   11202                              ( at time 5.5999396E+00 )

 nodal point  x-disp     y-disp      z-disp      x-vel       y-vel       z-vel      x-accl      y-accl      z-accl      x-coor      y-coor      z-coor
    22626 -2.96582E-03 2.58679E-01-4.60179E-01 9.27992E-04 1.27720E-01-7.76073E-02 1.16552E-02 1.40059E-01 2.42947E-02 4.65641E+00-2.79321E+01-4.54419E+01



 n o d a l   p r i n t   o u t   f o r   t i m e  s t e p   11202                              ( at time 5.5999396E+00 )

 nodal point  x-rot      y-rot       z-rot       x-rot vel   y-rot vel   z-rot vel   x-rot acc   y-rot acc   z-rot acc
    22626 -8.78156E-04-4.33268E-07-3.29529E-06-7.45977E-04 1.14382E-05 1.24189E-05-1.20145E-03 1.05608E-04 2.03885E-04



 n o d a l   p r i n t   o u t   f o r   t i m e  s t e p   11402                              ( at time 5.6999296E+00 )

 nodal point  x-disp     y-disp      z-disp      x-vel       y-vel       z-vel      x-accl      y-accl      z-accl      x-coor      y-coor      z-coor
    22626 -2.82744E-03 2.72180E-01-4.67839E-01 1.51730E-03 1.42297E-01-7.56063E-02 5.89366E-03 1.45789E-01 2.00118E-02 4.65655E+00-2.79186E+01-4.54496E+01



 n o d a l   p r i n t   o u t   f o r   t i m e  s t e p   11402                              ( at time 5.6999296E+00 )

 nodal point  x-rot      y-rot       z-rot       x-rot vel   y-rot vel   z-rot vel   x-rot acc   y-rot acc   z-rot acc
    22626 -9.57319E-04 8.30433E-07-1.77319E-06-8.45725E-04 7.33119E-06 1.16572E-05-9.97579E-04-4.10736E-05-7.61851E-06



 n o d a l   p r i n t   o u t   f o r   t i m e  s t e p   11602                              ( at time 5.7999195E+00 )

 nodal point  x-disp     y-disp      z-disp      x-vel       y-vel       z-vel      x-accl      y-accl      z-accl      x-coor      y-coor      z-coor
    22626 -2.70830E-03 2.87206E-01-4.75276E-01 8.34664E-04 1.57950E-01-7.35198E-02-6.82706E-03 1.56541E-01 2.08664E-02 4.65667E+00-2.79036E+01-4.54570E+01



 n o d a l   p r i n t   o u t   f o r   t i m e  s t e p   11602                              ( at time 5.7999195E+00 )

 nodal point  x-rot      y-rot       z-rot       x-rot vel   y-rot vel   z-rot vel   x-rot acc   y-rot acc   z-rot acc
    22626 -1.04666E-03 1.43763E-06-1.50827E-06-9.51594E-04 4.43000E-06-7.54917E-06-1.05880E-03-2.90148E-05-1.92083E-04



 n o d a l   p r i n t   o u t   f o r   t i m e  s t e p   11802                              ( at time 5.8999095E+00 )

 nodal point  x-disp     y-disp      z-disp      x-vel       y-vel       z-vel      x-accl      y-accl      z-accl      x-coor      y-coor      z-coor
    22626 -2.65031E-03 3.03892E-01-4.82593E-01 7.44972E-04 1.76163E-01-7.30106E-02-8.97007E-04 1.82145E-01 5.09299E-03 4.65672E+00-2.78869E+01-4.54643E+01



 n o d a l   p r i n t   o u t   f o r   t i m e  s t e p   11802                              ( at time 5.8999095E+00 )

 nodal point  x-rot      y-rot       z-rot       x-rot vel   y-rot vel   z-rot vel   x-rot acc   y-rot acc   z-rot acc
    22626 -1.14814E-03 1.89346E-06-2.58059E-06-1.08619E-03 8.93741E-06-9.73230E-06-1.34605E-03 4.50787E-05-2.18335E-05



 n o d a l   p r i n t   o u t   f o r   t i m e  s t e p   12002                              ( at time 5.9998995E+00 )

 nodal point  x-disp     y-disp      z-disp      x-vel       y-vel       z-vel      x-accl      y-accl      z-accl      x-coor      y-coor      z-coor
    22626 -2.54913E-03 3.22426E-01-4.89869E-01 1.36888E-03 1.94642E-01-7.17997E-02 6.23974E-03 1.84813E-01 1.21102E-02 4.65683E+00-2.78684E+01-4.54716E+01



 n o d a l   p r i n t   o u t   f o r   t i m e  s t e p   12002                              ( at time 5.9998995E+00 )

 nodal point  x-rot      y-rot       z-rot       x-rot vel   y-rot vel   z-rot vel   x-rot acc   y-rot acc   z-rot acc
    22626 -1.26363E-03 2.64853E-06-3.20576E-06-1.21912E-03 6.29452E-06-6.62148E-06-1.32948E-03-2.64316E-05 3.11113E-05



 n o d a l   p r i n t   o u t   f o r   t i m e  s t e p   12202                              ( at time 6.0998895E+00 )

 nodal point  x-disp     y-disp      z-disp      x-vel       y-vel       z-vel      x-accl      y-accl      z-accl      x-coor      y-coor      z-coor
    22626 -2.43890E-03 3.42833E-01-4.97004E-01 2.24323E-04 2.14085E-01-7.05800E-02-1.14467E-02 1.94451E-01 1.21981E-02 4.65694E+00-2.78480E+01-4.54787E+01



 n o d a l   p r i n t   o u t   f o r   t i m e  s t e p   12202                              ( at time 6.0998895E+00 )

 nodal point  x-rot      y-rot       z-rot       x-rot vel   y-rot vel   z-rot vel   x-rot acc   y-rot acc   z-rot acc
    22626 -1.39275E-03 2.75988E-06-4.23886E-06-1.36145E-03-7.86066E-06-2.31526E-05-1.42339E-03-1.41565E-04-1.65327E-04



 n o d a l   p r i n t   o u t   f o r   t i m e  s t e p   12402                              ( at time 6.1998795E+00 )

 nodal point  x-disp     y-disp      z-disp      x-vel       y-vel       z-vel      x-accl      y-accl      z-accl      x-coor      y-coor      z-coor
    22626 -2.44109E-03 3.65291E-01-5.04085E-01-4.33567E-04 2.35115E-01-7.12803E-02-6.57957E-03 2.10314E-01-7.00328E-03 4.65693E+00-2.78255E+01-4.54858E+01



 n o d a l   p r i n t   o u t   f o r   t i m e  s t e p   12402                              ( at time 6.1998795E+00 )

 nodal point  x-rot      y-rot       z-rot       x-rot vel   y-rot vel   z-rot vel   x-rot acc   y-rot acc   z-rot acc
    22626 -1.53573E-03 2.20459E-06-7.40734E-06-1.50259E-03-6.07584E-06-3.83357E-05-1.41156E-03 1.78499E-05-1.51846E-04



 n o d a l   p r i n t   o u t   f o r   t i m e  s t e p   12602                              ( at time 6.2998695E+00 )

 nodal point  x-disp     y-disp      z-disp      x-vel       y-vel       z-vel      x-accl      y-accl      z-accl      x-coor      y-coor      z-coor
    22626 -2.44492E-03 3.89941E-01-5.11193E-01 5.71817E-04 2.57324E-01-7.11214E-02 1.00549E-02 2.22116E-01 1.58862E-03 4.65693E+00-2.78009E+01-4.54929E+01



 n o d a l   p r i n t   o u t   f o r   t i m e  s t e p   12602                              ( at time 6.2998695E+00 )

 nodal point  x-rot      y-rot       z-rot       x-rot vel   y-rot vel   z-rot vel   x-rot acc   y-rot acc   z-rot acc
    22626 -1.69342E-03 2.11567E-06-1.04758E-05-1.65888E-03 1.80924E-06-2.67873E-05-1.56309E-03 7.88588E-05 1.15495E-04



 n o d a l   p r i n t   o u t   f o r   t i m e  s t e p   12802                              ( at time 6.3998595E+00 )

 nodal point  x-disp     y-disp      z-disp      x-vel       y-vel       z-vel      x-accl      y-accl      z-accl      x-coor      y-coor      z-coor
    22626 -2.40430E-03 4.16848E-01-5.18266E-01 3.00267E-04 2.80679E-01-7.07590E-02-2.71578E-03 2.33574E-01 3.62425E-03 4.65697E+00-2.77740E+01-4.55000E+01



 n o d a l   p r i n t   o u t   f o r   t i m e  s t e p   12802                              ( at time 6.3998595E+00 )

 nodal point  x-rot      y-rot       z-rot       x-rot vel   y-rot vel   z-rot vel   x-rot acc   y-rot acc   z-rot acc
    22626 -1.86750E-03 1.16696E-06-1.38356E-05-1.82952E-03-1.45684E-05-4.13672E-05-1.70656E-03-1.63793E-04-1.45814E-04



 n o d a l   p r i n t   o u t   f o r   t i m e  s t e p   13002                              ( at time 6.4998495E+00 )

 nodal point  x-disp     y-disp      z-disp      x-vel       y-vel       z-vel      x-accl      y-accl      z-accl      x-coor      y-coor      z-coor
    22626 -2.41505E-03 4.46078E-01-5.25303E-01-6.34998E-04 3.04182E-01-7.00546E-02-9.35359E-03 2.35056E-01 7.04546E-03 4.65696E+00-2.77448E+01-4.55070E+01



 n o d a l   p r i n t   o u t   f o r   t i m e  s t e p   13002                              ( at time 6.4998495E+00 )

 nodal point  x-rot      y-rot       z-rot       x-rot vel   y-rot vel   z-rot vel   x-rot acc   y-rot acc   z-rot acc
    22626 -2.05783E-03-3.20688E-07-1.84102E-05-1.98833E-03-1.13691E-05-4.32803E-05-1.58823E-03 3.19959E-05-1.91323E-05



 n o d a l   p r i n t   o u t   f o r   t i m e  s t e p   13202                              ( at time 6.5998395E+00 )

 nodal point  x-disp     y-disp      z-disp      x-vel       y-vel       z-vel      x-accl      y-accl      z-accl      x-coor      y-coor      z-coor
    22626 -2.40390E-03 4.77695E-01-5.32222E-01 5.80701E-04 3.28246E-01-6.80593E-02 1.21582E-02 2.40658E-01 1.99544E-02 4.65697E+00-2.77131E+01-4.55139E+01



 n o d a l   p r i n t   o u t   f o r   t i m e  s t e p   13202                              ( at time 6.5998395E+00 )

 nodal point  x-rot      y-rot       z-rot       x-rot vel   y-rot vel   z-rot vel   x-rot acc   y-rot acc   z-rot acc
    22626 -2.26479E-03-9.57656E-07-2.29557E-05-2.16029E-03-6.92117E-06-4.81923E-05-1.71976E-03 4.44839E-05-4.91252E-05



 n o d a l   p r i n t   o u t   f o r   t i m e  s t e p   13402                              ( at time 6.6998295E+00 )

 nodal point  x-disp     y-disp      z-disp      x-vel       y-vel       z-vel      x-accl      y-accl      z-accl      x-coor      y-coor      z-coor
    22626 -2.35113E-03 5.11786E-01-5.38980E-01 5.07036E-04 3.53671E-01-6.77718E-02-7.36727E-04 2.54279E-01 2.87510E-03 4.65702E+00-2.76790E+01-4.55207E+01



 n o d a l   p r i n t   o u t   f o r   t i m e  s t e p   13402                              ( at time 6.6998295E+00 )

 nodal point  x-rot      y-rot       z-rot       x-rot vel   y-rot vel   z-rot vel   x-rot acc   y-rot acc   z-rot acc
    22626 -2.48954E-03-2.21877E-06-2.83696E-05-2.34189E-03-1.23596E-05-5.34471E-05-1.81623E-03-5.43894E-05-5.25527E-05



 n o d a l   p r i n t   o u t   f o r   t i m e  s t e p   13602                              ( at time 6.7998195E+00 )

 nodal point  x-disp     y-disp      z-disp      x-vel       y-vel       z-vel      x-accl      y-accl      z-accl      x-coor      y-coor      z-coor
    22626 -2.31316E-03 5.48444E-01-5.45751E-01 5.25732E-04 3.79596E-01-6.70181E-02 1.86984E-04 2.59273E-01 7.53814E-03 4.65706E+00-2.76424E+01-4.55275E+01



 n o d a l   p r i n t   o u t   f o r   t i m e  s t e p   13602                              ( at time 6.7998195E+00 )

 nodal point  x-rot      y-rot       z-rot       x-rot vel   y-rot vel   z-rot vel   x-rot acc   y-rot acc   z-rot acc
    22626 -2.73251E-03-4.51680E-06-3.43137E-05-2.52269E-03-2.23376E-05-5.43397E-05-1.80820E-03-9.97905E-05-8.92701E-06



 n o d a l   p r i n t   o u t   f o r   t i m e  s t e p   13802                              ( at time 6.8998095E+00 )

 nodal point  x-disp     y-disp      z-disp      x-vel       y-vel       z-vel      x-accl      y-accl      z-accl      x-coor      y-coor      z-coor
    22626 -2.25521E-03 5.87689E-01-5.52378E-01 7.45413E-04 4.05574E-01-6.51662E-02 2.19703E-03 2.59810E-01 1.85207E-02 4.65712E+00-2.76031E+01-4.55341E+01



 n o d a l   p r i n t   o u t   f o r   t i m e  s t e p   13802                              ( at time 6.8998095E+00 )

 nodal point  x-rot      y-rot       z-rot       x-rot vel   y-rot vel   z-rot vel   x-rot acc   y-rot acc   z-rot acc
    22626 -2.99450E-03-6.23318E-06-4.02208E-05-2.71405E-03-7.48585E-06-5.78103E-05-1.91375E-03 1.48533E-04-3.47102E-05



 n o d a l   p r i n t   o u t   f o r   t i m e  s t e p   14002                              ( at time 6.9997995E+00 )

 nodal point  x-disp     y-disp      z-disp      x-vel       y-vel       z-vel      x-accl      y-accl      z-accl      x-coor      y-coor      z-coor
    22626 -2.13766E-03 6.29539E-01-5.58855E-01 9.83728E-04 4.32070E-01-6.41448E-02 2.38339E-03 2.64984E-01 1.02145E-02 4.65724E+00-2.75613E+01-4.55406E+01



 n o d a l   p r i n t   o u t   f o r   t i m e  s t e p   14002                              ( at time 6.9997995E+00 )

 nodal point  x-rot      y-rot       z-rot       x-rot vel   y-rot vel   z-rot vel   x-rot acc   y-rot acc   z-rot acc
    22626 -3.27569E-03-7.13034E-06-4.60594E-05-2.90966E-03-2.12540E-05-5.80937E-05-1.95628E-03-1.37695E-04-2.83402E-06



 n o d a l   p r i n t   o u t   f o r   t i m e  s t e p   14202                              ( at time 7.0997895E+00 )

 nodal point  x-disp     y-disp      z-disp      x-vel       y-vel       z-vel      x-accl      y-accl      z-accl      x-coor      y-coor      z-coor
    22626 -2.03926E-03 6.74120E-01-5.65140E-01 1.12437E-03 4.58905E-01-6.17171E-02 1.40655E-03 2.68381E-01 2.42802E-02 4.65734E+00-2.75167E+01-4.55469E+01



 n o d a l   p r i n t   o u t   f o r   t i m e  s t e p   14202                              ( at time 7.0997895E+00 )

 nodal point  x-rot      y-rot       z-rot       x-rot vel   y-rot vel   z-rot vel   x-rot acc   y-rot acc   z-rot acc
    22626 -3.57615E-03-9.29494E-06-5.23485E-05-3.10323E-03-2.19700E-05-6.22692E-05-1.93593E-03-7.16083E-06-4.17587E-05



 n o d a l   p r i n t   o u t   f o r   t i m e  s t e p   14402                              ( at time 7.1997794E+00 )

 nodal point  x-disp     y-disp      z-disp      x-vel       y-vel       z-vel      x-accl      y-accl      z-accl      x-coor      y-coor      z-coor
    22626 -1.97139E-03 7.21372E-01-5.71239E-01 8.43478E-04 4.85893E-01-6.01846E-02-2.80920E-03 2.69902E-01 1.53258E-02 4.65740E+00-2.74695E+01-4.55530E+01



 n o d a l   p r i n t   o u t   f o r   t i m e  s t e p   14402                              ( at time 7.1997794E+00 )

 nodal point  x-rot      y-rot       z-rot       x-rot vel   y-rot vel   z-rot vel   x-rot acc   y-rot acc   z-rot acc
    22626 -3.89584E-03-1.08579E-05-5.86571E-05-3.30288E-03-4.28143E-06-6.04475E-05-1.99669E-03 1.76904E-04 1.82184E-05



 n o d a l   p r i n t   o u t   f o r   t i m e  s t e p   14602                              ( at time 7.2997694E+00 )

 nodal point  x-disp     y-disp      z-disp      x-vel       y-vel       z-vel      x-accl      y-accl      z-accl      x-coor      y-coor      z-coor
    22626 -1.89526E-03 7.71295E-01-5.77057E-01 6.75515E-04 5.12904E-01-5.59895E-02-1.67980E-03 2.70140E-01 4.19554E-02 4.65748E+00-2.74195E+01-4.55588E+01



 n o d a l   p r i n t   o u t   f o r   t i m e  s t e p   14602                              ( at time 7.2997694E+00 )

 nodal point  x-rot      y-rot       z-rot       x-rot vel   y-rot vel   z-rot vel   x-rot acc   y-rot acc   z-rot acc
    22626 -4.23602E-03-1.12086E-05-6.48574E-05-3.51593E-03-8.30418E-06-6.56879E-05-2.13072E-03-4.02316E-05-5.24089E-05



 n o d a l   p r i n t   o u t   f o r   t i m e  s t e p   14802                              ( at time 7.3997594E+00 )

 nodal point  x-disp     y-disp      z-disp      x-vel       y-vel       z-vel      x-accl      y-accl      z-accl      x-coor      y-coor      z-coor
    22626 -1.85823E-03 8.23940E-01-5.82384E-01 2.17501E-04 5.39582E-01-5.09821E-02-4.58060E-03 2.66802E-01 5.00795E-02 4.65752E+00-2.73669E+01-4.55641E+01



 n o d a l   p r i n t   o u t   f o r   t i m e  s t e p   14802                              ( at time 7.3997594E+00 )

 nodal point  x-rot      y-rot       z-rot       x-rot vel   y-rot vel   z-rot vel   x-rot acc   y-rot acc   z-rot acc
    22626 -4.59738E-03-1.16262E-05-7.17377E-05-3.72344E-03-3.23311E-06-8.01190E-05-2.07527E-03 5.07158E-05-1.44326E-04



 n o d a l   p r i n t   o u t   f o r   t i m e  s t e p   15002                              ( at time 7.4997494E+00 )

 nodal point  x-disp     y-disp      z-disp      x-vel       y-vel       z-vel      x-accl      y-accl      z-accl      x-coor      y-coor      z-coor
    22626 -1.81112E-03 8.79239E-01-5.87241E-01 5.96590E-04 5.66344E-01-4.65867E-02 3.79126E-03 2.67649E-01 4.39582E-02 4.65756E+00-2.73116E+01-4.55690E+01



 n o d a l   p r i n t   o u t   f o r   t i m e  s t e p   15002                              ( at time 7.4997494E+00 )

 nodal point  x-rot      y-rot       z-rot       x-rot vel   y-rot vel   z-rot vel   x-rot acc   y-rot acc   z-rot acc
    22626 -4.97932E-03-1.18849E-05-7.95731E-05-3.92285E-03-7.52877E-06-8.19721E-05-1.99434E-03-4.29607E-05-1.85320E-05



 n o d a l   p r i n t   o u t   f o r   t i m e  s t e p   15202                              ( at time 7.5997394E+00 )

 nodal point  x-disp     y-disp      z-disp      x-vel       y-vel       z-vel      x-accl      y-accl      z-accl      x-coor      y-coor      z-coor
    22626 -1.75370E-03 9.37252E-01-5.91696E-01 7.11653E-04 5.93888E-01-4.21609E-02 1.15075E-03 2.75467E-01 4.42624E-02 4.65762E+00-2.72536E+01-4.55734E+01



 n o d a l   p r i n t   o u t   f o r   t i m e  s t e p   15202                              ( at time 7.5997394E+00 )

 nodal point  x-rot      y-rot       z-rot       x-rot vel   y-rot vel   z-rot vel   x-rot acc   y-rot acc   z-rot acc
    22626 -5.38188E-03-1.26965E-05-8.81133E-05-4.13399E-03-1.27470E-05-9.81636E-05-2.11162E-03-5.21871E-05-1.61932E-04



 n o d a l   p r i n t   o u t   f o r   t i m e  s t e p   15402                              ( at time 7.6997294E+00 )

 nodal point  x-disp     y-disp      z-disp      x-vel       y-vel       z-vel      x-accl      y-accl      z-accl      x-coor      y-coor      z-coor
    22626 -1.63391E-03 9.98026E-01-5.95624E-01 1.61095E-03 6.21683E-01-3.62580E-02 8.99388E-03 2.77976E-01 5.90353E-02 4.65774E+00-2.71928E+01-4.55773E+01



 n o d a l   p r i n t   o u t   f o r   t i m e  s t e p   15402                              ( at time 7.6997294E+00 )

 nodal point  x-rot      y-rot       z-rot       x-rot vel   y-rot vel   z-rot vel   x-rot acc   y-rot acc   z-rot acc
    22626 -5.80660E-03-1.44304E-05-9.86212E-05-4.36047E-03-1.41059E-05-1.00421E-04-2.26502E-03-1.35909E-05-2.25802E-05



 n o d a l   p r i n t   o u t   f o r   t i m e  s t e p   15602                              ( at time 7.7997194E+00 )

 nodal point  x-disp     y-disp      z-disp      x-vel       y-vel       z-vel      x-accl      y-accl      z-accl      x-coor      y-coor      z-coor
    22626 -1.48690E-03 1.06158E+00-5.99022E-01 1.25785E-03 6.49326E-01-3.14133E-02-3.53139E-03 2.76465E-01 4.84514E-02 4.65789E+00-2.71292E+01-4.55807E+01



 n o d a l   p r i n t   o u t   f o r   t i m e  s t e p   15602                              ( at time 7.7997194E+00 )

 nodal point  x-rot      y-rot       z-rot       x-rot vel   y-rot vel   z-rot vel   x-rot acc   y-rot acc   z-rot acc
    22626 -6.25317E-03-1.58666E-05-1.08285E-04-4.55865E-03-1.75741E-05-9.65877E-05-1.98196E-03-3.46856E-05 3.83413E-05



 n o d a l   p r i n t   o u t   f o r   t i m e  s t e p   15802                              ( at time 7.8997094E+00 )

 nodal point  x-disp     y-disp      z-disp      x-vel       y-vel       z-vel      x-accl      y-accl      z-accl      x-coor      y-coor      z-coor
    22626 -1.36112E-03 1.12791E+00-6.01893E-01 9.71346E-04 6.77283E-01-2.57770E-02-2.86529E-03 2.79594E-01 5.63685E-02 4.65801E+00-2.70629E+01-4.55836E+01



 n o d a l   p r i n t   o u t   f o r   t i m e  s t e p   15802                              ( at time 7.8997094E+00 )

 nodal point  x-rot      y-rot       z-rot       x-rot vel   y-rot vel   z-rot vel   x-rot acc   y-rot acc   z-rot acc
    22626 -6.71949E-03-1.80633E-05-1.19052E-04-4.76588E-03-2.29586E-05-1.17264E-04-2.07255E-03-5.38498E-05-2.06782E-04



 n o d a l   p r i n t   o u t   f o r   t i m e  s t e p   16002                              ( at time 7.9996994E+00 )

 nodal point  x-disp     y-disp      z-disp      x-vel       y-vel       z-vel      x-accl      y-accl      z-accl      x-coor      y-coor      z-coor
    22626 -1.26023E-03 1.19706E+00-6.04134E-01 1.22727E-03 7.05737E-01-1.92261E-02 2.55944E-03 2.84564E-01 6.55155E-02 4.65811E+00-2.69938E+01-4.55859E+01



 n o d a l   p r i n t   o u t   f o r   t i m e  s t e p   16002                              ( at time 7.9996994E+00 )

 nodal point  x-rot      y-rot       z-rot       x-rot vel   y-rot vel   z-rot vel   x-rot acc   y-rot acc   z-rot acc
    22626 -7.20662E-03-1.90817E-05-1.30063E-04-4.97713E-03-1.74222E-06-1.02618E-04-2.11264E-03 2.12184E-04 1.46476E-04



 n o d a l   p r i n t   o u t   f o r   t i m e  s t e p   16202                              ( at time 8.0996894E+00 )

 nodal point  x-disp     y-disp      z-disp      x-vel       y-vel       z-vel      x-accl      y-accl      z-accl      x-coor      y-coor      z-coor
    22626 -1.13937E-03 1.26902E+00-6.05713E-01 1.14233E-03 7.33433E-01-1.24194E-02-8.49467E-04 2.76986E-01 6.80740E-02 4.65824E+00-2.69218E+01-4.55874E+01



 n o d a l   p r i n t   o u t   f o r   t i m e  s t e p   16202                              ( at time 8.0996894E+00 )

 nodal point  x-rot      y-rot       z-rot       x-rot vel   y-rot vel   z-rot vel   x-rot acc   y-rot acc   z-rot acc
    22626 -7.71512E-03-2.02728E-05-1.40931E-04-5.19019E-03-1.25629E-05-1.09662E-04-2.13082E-03-1.08218E-04-7.04561E-05



 n o d a l   p r i n t   o u t   f o r   t i m e  s t e p   16402                              ( at time 8.1996794E+00 )

 nodal point  x-disp     y-disp      z-disp      x-vel       y-vel       z-vel      x-accl      y-accl      z-accl      x-coor      y-coor      z-coor
    22626 -1.00364E-03 1.34376E+00-6.06540E-01 1.65636E-03 7.60962E-01-3.99536E-03 5.14088E-03 2.75320E-01 8.42490E-02 4.65837E+00-2.68471E+01-4.55883E+01



 n o d a l   p r i n t   o u t   f o r   t i m e  s t e p   16402                              ( at time 8.1996794E+00 )

 nodal point  x-rot      y-rot       z-rot       x-rot vel   y-rot vel   z-rot vel   x-rot acc   y-rot acc   z-rot acc
    22626 -8.24489E-03-2.23332E-05-1.52948E-04-5.40308E-03-2.22384E-05-1.19133E-04-2.12915E-03-9.67648E-05-9.47151E-05



 n o d a l   p r i n t   o u t   f o r   t i m e  s t e p   16602                              ( at time 8.2996694E+00 )

 nodal point  x-disp     y-disp      z-disp      x-vel       y-vel       z-vel      x-accl      y-accl      z-accl      x-coor      y-coor      z-coor
    22626 -8.35331E-04 1.42125E+00-6.06448E-01 1.67838E-03 7.88467E-01 5.22938E-03 2.20194E-04 2.75076E-01 9.22567E-02 4.65854E+00-2.67696E+01-4.55882E+01



 n o d a l   p r i n t   o u t   f o r   t i m e  s t e p   16602                              ( at time 8.2996694E+00 )

 nodal point  x-rot      y-rot       z-rot       x-rot vel   y-rot vel   z-rot vel   x-rot acc   y-rot acc   z-rot acc
    22626 -8.79493E-03-2.41398E-05-1.65082E-04-5.60380E-03-1.06794E-05-1.24264E-04-2.00738E-03 1.15602E-04-5.13156E-05



 n o d a l   p r i n t   o u t   f o r   t i m e  s t e p   16802                              ( at time 8.3996594E+00 )

 nodal point  x-disp     y-disp      z-disp      x-vel       y-vel       z-vel      x-accl      y-accl      z-accl      x-coor      y-coor      z-coor
    22626 -6.21259E-04 1.50150E+00-6.05480E-01 2.18918E-03 8.16461E-01 1.42333E-02 5.10854E-03 2.79975E-01 9.00487E-02 4.65875E+00-2.66893E+01-4.55872E+01



 n o d a l   p r i n t   o u t   f o r   t i m e  s t e p   16802                              ( at time 8.3996594E+00 )

 nodal point  x-rot      y-rot       z-rot       x-rot vel   y-rot vel   z-rot vel   x-rot acc   y-rot acc   z-rot acc
    22626 -9.36579E-03-2.56612E-05-1.78136E-04-5.81675E-03-2.29602E-05-1.30731E-04-2.12973E-03-1.22821E-04-6.46735E-05



 n o d a l   p r i n t   o u t   f o r   t i m e  s t e p   17002                              ( at time 8.4996494E+00 )

 nodal point  x-disp     y-disp      z-disp      x-vel       y-vel       z-vel      x-accl      y-accl      z-accl      x-coor      y-coor      z-coor
    22626 -3.91173E-04 1.58451E+00-6.03570E-01 2.69086E-03 8.44090E-01 2.45564E-02 5.01724E-03 2.76314E-01 1.03241E-01 4.65898E+00-2.66063E+01-4.55853E+01



 n o d a l   p r i n t   o u t   f o r   t i m e  s t e p   17002                              ( at time 8.4996494E+00 )

 nodal point  x-rot      y-rot       z-rot       x-rot vel   y-rot vel   z-rot vel   x-rot acc   y-rot acc   z-rot acc
    22626 -9.95821E-03-2.79439E-05-1.91516E-04-6.02195E-03-2.59835E-05-1.38427E-04-2.05221E-03-3.02354E-05-7.69713E-05



 n o d a l   p r i n t   o u t   f o r   t i m e  s t e p   17202                              ( at time 8.5996394E+00 )

 nodal point  x-disp     y-disp      z-disp      x-vel       y-vel       z-vel      x-accl      y-accl      z-accl      x-coor      y-coor      z-coor
    22626 -1.28426E-04 1.67025E+00-6.00601E-01 2.82762E-03 8.71265E-01 3.52162E-02 1.36778E-03 2.71783E-01 1.06610E-01 4.65925E+00-2.65206E+01-4.55823E+01



 n o d a l   p r i n t   o u t   f o r   t i m e  s t e p   17202                              ( at time 8.5996394E+00 )

 nodal point  x-rot      y-rot       z-rot       x-rot vel   y-rot vel   z-rot vel   x-rot acc   y-rot acc   z-rot acc
    22626 -1.05708E-02-3.12576E-05-2.05928E-04-6.22285E-03-3.45274E-05-1.51695E-04-2.00925E-03-8.54484E-05-1.32696E-04



 n o d a l   p r i n t   o u t   f o r   t i m e  s t e p   17402                              ( at time 8.6996293E+00 )

 nodal point  x-disp     y-disp      z-disp      x-vel       y-vel       z-vel      x-accl      y-accl      z-accl      x-coor      y-coor      z-coor
    22626  1.48566E-04 1.75869E+00-5.96503E-01 2.75905E-03 8.97989E-01 4.71730E-02-6.85805E-04 2.67262E-01 1.19579E-01 4.65952E+00-2.64321E+01-4.55782E+01



 n o d a l   p r i n t   o u t   f o r   t i m e  s t e p   17402                              ( at time 8.6996293E+00 )

 nodal point  x-rot      y-rot       z-rot       x-rot vel   y-rot vel   z-rot vel   x-rot acc   y-rot acc   z-rot acc
    22626 -1.12037E-02-3.37380E-05-2.20573E-04-6.42946E-03-2.21863E-05-1.40231E-04-2.06625E-03 1.23422E-04 1.14651E-04



 n o d a l   p r i n t   o u t   f o r   t i m e  s t e p   17602                              ( at time 8.7996193E+00 )

 nodal point  x-disp     y-disp      z-disp      x-vel       y-vel       z-vel      x-accl      y-accl      z-accl      x-coor      y-coor      z-coor
    22626  4.86028E-04 1.84983E+00-5.91197E-01 3.30587E-03 9.24607E-01 5.92252E-02 5.46875E-03 2.66206E-01 1.20534E-01 4.65986E+00-2.63410E+01-4.55729E+01



 n o d a l   p r i n t   o u t   f o r   t i m e  s t e p   17602                              ( at time 8.7996193E+00 )

 nodal point  x-rot      y-rot       z-rot       x-rot vel   y-rot vel   z-rot vel   x-rot acc   y-rot acc   z-rot acc
    22626 -1.18563E-02-3.52653E-05-2.34797E-04-6.61768E-03-1.81380E-05-1.48634E-04-1.88237E-03 4.04876E-05-8.40395E-05



 n o d a l   p r i n t   o u t   f o r   t i m e  s t e p   17802                              ( at time 8.8996093E+00 )

 nodal point  x-disp     y-disp      z-disp      x-vel       y-vel       z-vel      x-accl      y-accl      z-accl      x-coor      y-coor      z-coor
    22626  8.10788E-04 1.94359E+00-5.84641E-01 3.47691E-03 9.50730E-01 7.21850E-02 1.71063E-03 2.61253E-01 1.29611E-01 4.66019E+00-2.62472E+01-4.55664E+01



 n o d a l   p r i n t   o u t   f o r   t i m e  s t e p   17802                              ( at time 8.8996093E+00 )

 nodal point  x-rot      y-rot       z-rot       x-rot vel   y-rot vel   z-rot vel   x-rot acc   y-rot acc   z-rot acc
    22626 -1.25270E-02-3.69777E-05-2.49052E-04-6.79576E-03-1.47885E-05-1.43887E-04-1.78096E-03 3.34981E-05 4.74761E-05



 n o d a l   p r i n t   o u t   f o r   t i m e  s t e p   18002                              ( at time 8.9995993E+00 )

 nodal point  x-disp     y-disp      z-disp      x-vel       y-vel       z-vel      x-accl      y-accl      z-accl      x-coor      y-coor      z-coor
    22626  1.16900E-03 2.03996E+00-5.76801E-01 3.79615E-03 9.77004E-01 8.50784E-02 3.19276E-03 2.62771E-01 1.28947E-01 4.66054E+00-2.61509E+01-4.55585E+01



 n o d a l   p r i n t   o u t   f o r   t i m e  s t e p   18002                              ( at time 8.9995993E+00 )

 nodal point  x-rot      y-rot       z-rot       x-rot vel   y-rot vel   z-rot vel   x-rot acc   y-rot acc   z-rot acc
    22626 -1.32165E-02-3.79951E-05-2.62809E-04-6.98326E-03-4.84071E-06-1.37741E-04-1.87517E-03 9.94878E-05 6.14700E-05



 n o d a l   p r i n t   o u t   f o r   t i m e  s t e p   18202                              ( at time 9.0995893E+00 )

 nodal point  x-disp     y-disp      z-disp      x-vel       y-vel       z-vel      x-accl      y-accl      z-accl      x-coor      y-coor      z-coor
    22626  1.62592E-03 2.13890E+00-5.67575E-01 5.00775E-03 1.00160E+00 9.95279E-02 1.21172E-02 2.45991E-01 1.44509E-01 4.66100E+00-2.60519E+01-4.55493E+01



 n o d a l   p r i n t   o u t   f o r   t i m e  s t e p   18202                              ( at time 9.0995893E+00 )

 nodal point  x-rot      y-rot       z-rot       x-rot vel   y-rot vel   z-rot vel   x-rot acc   y-rot acc   z-rot acc
    22626 -1.39238E-02-3.80809E-05-2.76312E-04-7.15836E-03 3.09111E-06-1.37796E-04-1.75122E-03 7.93262E-05-5.45606E-07



 n o d a l   p r i n t   o u t   f o r   t i m e  s t e p   18402                              ( at time 9.1995793E+00 )

 nodal point  x-disp     y-disp      z-disp      x-vel       y-vel       z-vel      x-accl      y-accl      z-accl      x-coor      y-coor      z-coor
    22626  2.10650E-03 2.24030E+00-5.56874E-01 4.94155E-03 1.02659E+00 1.13983E-01-6.62060E-04 2.49882E-01 1.44562E-01 4.66148E+00-2.59505E+01-4.55386E+01



 n o d a l   p r i n t   o u t   f o r   t i m e  s t e p   18402                              ( at time 9.1995793E+00 )

 nodal point  x-rot      y-rot       z-rot       x-rot vel   y-rot vel   z-rot vel   x-rot acc   y-rot acc   z-rot acc
    22626 -1.46470E-02-3.79781E-05-2.90212E-04-7.31161E-03-3.42213E-06-1.45507E-04-1.53267E-03-6.51390E-05-7.71201E-05



 n o d a l   p r i n t   o u t   f o r   t i m e  s t e p   18602                              ( at time 9.2995693E+00 )

 nodal point  x-disp     y-disp      z-disp      x-vel       y-vel       z-vel      x-accl      y-accl      z-accl      x-coor      y-coor      z-coor
    22626  2.62512E-03 2.34418E+00-5.44763E-01 5.31657E-03 1.05101E+00 1.28649E-01 3.75064E-03 2.44270E-01 1.46676E-01 4.66200E+00-2.58466E+01-4.55265E+01



 n o d a l   p r i n t   o u t   f o r   t i m e  s t e p   18602                              ( at time 9.2995693E+00 )

 nodal point  x-rot      y-rot       z-rot       x-rot vel   y-rot vel   z-rot vel   x-rot acc   y-rot acc   z-rot acc
    22626 -1.53860E-02-3.82739E-05-3.04216E-04-7.46893E-03 4.50441E-06-1.27375E-04-1.57335E-03 7.92734E-05 1.81336E-04



 n o d a l   p r i n t   o u t   f o r   t i m e  s t e p   18802                              ( at time 9.3995593E+00 )

 nodal point  x-disp     y-disp      z-disp      x-vel       y-vel       z-vel      x-accl      y-accl      z-accl      x-coor      y-coor      z-coor
    22626  3.24548E-03 2.45046E+00-5.31115E-01 6.96871E-03 1.07477E+00 1.44428E-01 1.65231E-02 2.37651E-01 1.57804E-01 4.66262E+00-2.57404E+01-4.55128E+01



 n o d a l   p r i n t   o u t   f o r   t i m e  s t e p   18802                              ( at time 9.3995593E+00 )

 nodal point  x-rot      y-rot       z-rot       x-rot vel   y-rot vel   z-rot vel   x-rot acc   y-rot acc   z-rot acc
    22626 -1.61400E-02-3.69846E-05-3.16975E-04-7.61109E-03 1.76945E-05-1.28002E-04-1.42171E-03 1.31914E-04-6.27135E-06



 n o d a l   p r i n t   o u t   f o r   t i m e  s t e p   19002                              ( at time 9.4995493E+00 )

 nodal point  x-disp     y-disp      z-disp      x-vel       y-vel       z-vel      x-accl      y-accl      z-accl      x-coor      y-coor      z-coor
    22626  3.93107E-03 2.55908E+00-5.15855E-01 6.90489E-03 1.09742E+00 1.60777E-01-6.38291E-04 2.26506E-01 1.63512E-01 4.66331E+00-2.56318E+01-4.54976E+01



 n o d a l   p r i n t   o u t   f o r   t i m e  s t e p   19002                              ( at time 9.4995493E+00 )

 nodal point  x-rot      y-rot       z-rot       x-rot vel   y-rot vel   z-rot vel   x-rot acc   y-rot acc   z-rot acc
    22626 -1.69077E-02-3.58434E-05-3.30026E-04-7.74064E-03 1.11504E-05-1.26741E-04-1.29562E-03-6.54474E-05 1.26159E-05



 n o d a l   p r i n t   o u t   f o r   t i m e  s t e p   19202                              ( at time 9.5995393E+00 )

 nodal point  x-disp     y-disp      z-disp      x-vel       y-vel       z-vel      x-accl      y-accl      z-accl      x-coor      y-coor      z-coor
    22626  4.64966E-03 2.66994E+00-4.98913E-01 7.37209E-03 1.11986E+00 1.78415E-01 4.67244E-03 2.24392E-01 1.76397E-01 4.66402E+00-2.55209E+01-4.54806E+01



 n o d a l   p r i n t   o u t   f o r   t i m e  s t e p   19202                              ( at time 9.5995393E+00 )

 nodal point  x-rot      y-rot       z-rot       x-rot vel   y-rot vel   z-rot vel   x-rot acc   y-rot acc   z-rot acc
    22626 -1.76879E-02-3.44338E-05-3.42076E-04-7.86828E-03 2.02587E-05-1.12257E-04-1.27656E-03 9.10913E-05 1.44855E-04



 n o d a l   p r i n t   o u t   f o r   t i m e  s t e p   19402                              ( at time 9.6995293E+00 )

 nodal point  x-disp     y-disp      z-disp      x-vel       y-vel       z-vel      x-accl      y-accl      z-accl      x-coor      y-coor      z-coor
    22626  5.45077E-03 2.78299E+00-4.80142E-01 8.73615E-03 1.14111E+00 1.96628E-01 1.36419E-02 2.12499E-01 1.82143E-01 4.66483E+00-2.54078E+01-4.54619E+01



 n o d a l   p r i n t   o u t   f o r   t i m e  s t e p   19402                              ( at time 9.6995293E+00 )

 nodal point  x-rot      y-rot       z-rot       x-rot vel   y-rot vel   z-rot vel   x-rot acc   y-rot acc   z-rot acc
    22626 -1.84806E-02-3.09858E-05-3.53430E-04-7.99224E-03 4.09946E-05-1.07576E-04-1.23974E-03 2.07380E-04 4.68132E-05



 n o d a l   p r i n t   o u t   f o r   t i m e  s t e p   19602                              ( at time 9.7995193E+00 )

 nodal point  x-disp     y-disp      z-disp      x-vel       y-vel       z-vel      x-accl      y-accl      z-accl      x-coor      y-coor      z-coor
    22626  6.29985E-03 2.89814E+00-4.59575E-01 8.56188E-03 1.16163E+00 2.14984E-01-1.74281E-03 2.05290E-01 1.83586E-01 4.66567E+00-2.52927E+01-4.54413E+01



 n o d a l   p r i n t   o u t   f o r   t i m e  s t e p   19602                              ( at time 9.7995193E+00 )

 nodal point  x-rot      y-rot       z-rot       x-rot vel   y-rot vel   z-rot vel   x-rot acc   y-rot acc   z-rot acc
    22626 -1.92860E-02-2.69842E-05-3.63362E-04-8.11942E-03 4.09703E-05-9.17922E-05-1.27188E-03-2.42387E-07 1.57851E-04



 n o d a l   p r i n t   o u t   f o r   t i m e  s t e p   19802                              ( at time 9.8995093E+00 )

 nodal point  x-disp     y-disp      z-disp      x-vel       y-vel       z-vel      x-accl      y-accl      z-accl      x-coor      y-coor      z-coor
    22626  7.19707E-03 3.01529E+00-4.37026E-01 9.51807E-03 1.18112E+00 2.36086E-01 9.56285E-03 1.94836E-01 2.11040E-01 4.66657E+00-2.51755E+01-4.54187E+01



 n o d a l   p r i n t   o u t   f o r   t i m e  s t e p   19802                              ( at time 9.8995093E+00 )

 nodal point  x-rot      y-rot       z-rot       x-rot vel   y-rot vel   z-rot vel   x-rot acc   y-rot acc   z-rot acc
    22626 -2.01040E-02-2.22674E-05-3.72097E-04-8.24432E-03 5.10622E-05-8.45576E-05-1.24910E-03 1.00929E-04 7.23533E-05



 n o d a l   p r i n t   o u t   f o r   t i m e  s t e p   20003                              ( at time 9.9999992E+00 )

 nodal point  x-disp     y-disp      z-disp      x-vel       y-vel       z-vel      x-accl      y-accl      z-accl      x-coor      y-coor      z-coor
[...]
    22626 -2.90009E-02 8.09381E-05-4.01010E-04-9.57741E-03 1.50656E-04 2.37811E-05-1.21737E-03 2.59969E-05 1.92448E-04



 n o d a l   p r i n t   o u t   f o r   t i m e  s t e p   22003                              ( at time 1.0999899E+01 )

 nodal point  x-disp     y-disp      z-disp      x-vel       y-vel       z-vel      x-accl      y-accl      z-accl      x-coor      y-coor      z-coor
    22626  2.33444E-02 4.40315E+00-7.95326E-03 2.00159E-02 1.31690E+00 5.75350E-01 1.23111E-02 6.48791E-02 3.72156E-01 4.68272E+00-2.37877E+01-4.49897E+01



 n o d a l   p r i n t   o u t   f o r   t i m e  s t e p   22003                              ( at time 1.0999899E+01 )

 nodal point  x-rot      y-rot       z-rot       x-rot vel   y-rot vel   z-rot vel   x-rot acc   y-rot acc   z-rot acc
    22626 -2.99660E-02 9.66522E-05-3.97023E-04-9.71584E-03 1.65881E-04 4.78990E-05-1.38445E-03 1.52270E-04 2.41203E-04



 n o d a l   p r i n t   o u t   f o r   t i m e  s t e p   22203                              ( at time 1.1099889E+01 )

 nodal point  x-disp     y-disp      z-disp      x-vel       y-vel       z-vel      x-accl      y-accl      z-accl      x-coor      y-coor      z-coor
    22626  2.53777E-02 4.53520E+00 5.14914E-02 2.18750E-02 1.32350E+00 6.13190E-01 1.85922E-02 6.60009E-02 3.78440E-01 4.68475E+00-2.36556E+01-4.49302E+01



 n o d a l   p r i n t   o u t   f o r   t i m e  s t e p   22203                              ( at time 1.1099889E+01 )

 nodal point  x-rot      y-rot       z-rot       x-rot vel   y-rot vel   z-rot vel   x-rot acc   y-rot acc   z-rot acc
    22626 -3.09437E-02 1.14725E-04-3.90994E-04-9.82583E-03 1.94473E-04 7.24167E-05-1.10001E-03 2.85943E-04 2.45202E-04



 n o d a l   p r i n t   o u t   f o r   t i m e  s t e p   22403                              ( at time 1.1199879E+01 )

 nodal point  x-disp     y-disp      z-disp      x-vel       y-vel       z-vel      x-accl      y-accl      z-accl      x-coor      y-coor      z-coor
    22626  2.76628E-02 4.66778E+00 1.14694E-01 2.31222E-02 1.33009E+00 6.50826E-01 1.24732E-02 6.58424E-02 3.76396E-01 4.68704E+00-2.35230E+01-4.48670E+01



 n o d a l   p r i n t   o u t   f o r   t i m e  s t e p   22403                              ( at time 1.1199879E+01 )

 nodal point  x-rot      y-rot       z-rot       x-rot vel   y-rot vel   z-rot vel   x-rot acc   y-rot acc   z-rot acc
    22626 -3.19322E-02 1.35189E-04-3.82651E-04-9.95264E-03 2.08549E-04 1.04614E-04-1.26829E-03 1.40773E-04 3.22001E-04



 n o d a l   p r i n t   o u t   f o r   t i m e  s t e p   22603                              ( at time 1.1299869E+01 )

 nodal point  x-disp     y-disp      z-disp      x-vel       y-vel       z-vel      x-accl      y-accl      z-accl      x-coor      y-coor      z-coor
    22626  3.00150E-02 4.80104E+00 1.81644E-01 2.39097E-02 1.33577E+00 6.87272E-01 7.87572E-03 5.68299E-02 3.64494E-01 4.68939E+00-2.33898E+01-4.48001E+01



 n o d a l   p r i n t   o u t   f o r   t i m e  s t e p   22603                              ( at time 1.1299869E+01 )

 nodal point  x-rot      y-rot       z-rot       x-rot vel   y-rot vel   z-rot vel   x-rot acc   y-rot acc   z-rot acc
    22626 -3.29313E-02 1.56307E-04-3.72896E-04-1.00304E-02 2.22151E-04 1.06714E-04-7.77288E-04 1.36033E-04 2.10095E-05



 n o d a l   p r i n t   o u t   f o r   t i m e  s t e p   22803                              ( at time 1.1399859E+01 )

 nodal point  x-disp     y-disp      z-disp      x-vel       y-vel       z-vel      x-accl      y-accl      z-accl      x-coor      y-coor      z-coor
    22626  3.24671E-02 4.93489E+00 2.52140E-01 2.60489E-02 1.34182E+00 7.23083E-01 2.13947E-02 6.05072E-02 3.58142E-01 4.69184E+00-2.32559E+01-4.47296E+01



 n o d a l   p r i n t   o u t   f o r   t i m e  s t e p   22803                              ( at time 1.1399859E+01 )

 nodal point  x-rot      y-rot       z-rot       x-rot vel   y-rot vel   z-rot vel   x-rot acc   y-rot acc   z-rot acc
    22626 -3.39378E-02 1.79326E-04-3.60547E-04-1.01035E-02 2.54673E-04 1.39062E-04-7.31516E-04 3.25252E-04 3.23514E-04



 n o d a l   p r i n t   o u t   f o r   t i m e  s t e p   23003                              ( at time 1.1499849E+01 )

 nodal point  x-disp     y-disp      z-disp      x-vel       y-vel       z-vel      x-accl      y-accl      z-accl      x-coor      y-coor      z-coor
    22626  3.51379E-02 5.06934E+00 3.26293E-01 2.61035E-02 1.34760E+00 7.59577E-01 5.46071E-04 5.77997E-02 3.64979E-01 4.69451E+00-2.31215E+01-4.46554E+01



 n o d a l   p r i n t   o u t   f o r   t i m e  s t e p   23003                              ( at time 1.1499849E+01 )

 nodal point  x-rot      y-rot       z-rot       x-rot vel   y-rot vel   z-rot vel   x-rot acc   y-rot acc   z-rot acc
    22626 -3.49534E-02 2.05269E-04-3.46192E-04-1.01906E-02 2.64895E-04 1.49653E-04-8.70837E-04 1.02231E-04 1.05914E-04



 n o d a l   p r i n t   o u t   f o r   t i m e  s t e p   23203                              ( at time 1.1599839E+01 )

 nodal point  x-disp     y-disp      z-disp      x-vel       y-vel       z-vel      x-accl      y-accl      z-accl      x-coor      y-coor      z-coor
    22626  3.78672E-02 5.20444E+00 4.03913E-01 2.79605E-02 1.35363E+00 7.92817E-01 1.85714E-02 6.03367E-02 3.32433E-01 4.69724E+00-2.29864E+01-4.45778E+01



 n o d a l   p r i n t   o u t   f o r   t i m e  s t e p   23203                              ( at time 1.1599839E+01 )

 nodal point  x-rot      y-rot       z-rot       x-rot vel   y-rot vel   z-rot vel   x-rot acc   y-rot acc   z-rot acc
    22626 -3.59750E-02 2.32259E-04-3.29898E-04-1.02292E-02 2.78265E-04 1.84469E-04-3.86519E-04 1.33717E-04 3.48203E-04



 n o d a l   p r i n t   o u t   f o r   t i m e  s t e p   23403                              ( at time 1.1699829E+01 )

 nodal point  x-disp     y-disp      z-disp      x-vel       y-vel       z-vel      x-accl      y-accl      z-accl      x-coor      y-coor      z-coor
    22626  4.07092E-02 5.34002E+00 4.85024E-01 2.93617E-02 1.35784E+00 8.30700E-01 1.40138E-02 4.21412E-02 3.78866E-01 4.70008E+00-2.28508E+01-4.44967E+01



 n o d a l   p r i n t   o u t   f o r   t i m e  s t e p   23403                              ( at time 1.1699829E+01 )

 nodal point  x-rot      y-rot       z-rot       x-rot vel   y-rot vel   z-rot vel   x-rot acc   y-rot acc   z-rot acc
    22626 -3.70006E-02 2.61152E-04-3.10341E-04-1.02877E-02 3.06626E-04 1.93130E-04-5.84445E-04 2.83634E-04 8.66171E-05



 n o d a l   p r i n t   o u t   f o r   t i m e  s t e p   23603                              ( at time 1.1799819E+01 )

 nodal point  x-disp     y-disp      z-disp      x-vel       y-vel       z-vel      x-accl      y-accl      z-accl      x-coor      y-coor      z-coor
    22626  4.36741E-02 5.47599E+00 5.69936E-01 2.99955E-02 1.36216E+00 8.66937E-01 6.33835E-03 4.31700E-02 3.62408E-01 4.70305E+00-2.27148E+01-4.44118E+01



 n o d a l   p r i n t   o u t   f o r   t i m e  s t e p   23603                              ( at time 1.1799819E+01 )

 nodal point  x-rot      y-rot       z-rot       x-rot vel   y-rot vel   z-rot vel   x-rot acc   y-rot acc   z-rot acc
    22626 -3.80319E-02 2.92385E-04-2.90195E-04-1.03266E-02 3.16641E-04 2.22629E-04-3.89146E-04 1.00165E-04 2.95020E-04



 n o d a l   p r i n t   o u t   f o r   t i m e  s t e p   23803                              ( at time 1.1899809E+01 )

 nodal point  x-disp     y-disp      z-disp      x-vel       y-vel       z-vel      x-accl      y-accl      z-accl      x-coor      y-coor      z-coor
    22626  4.68504E-02 5.61242E+00 6.58278E-01 3.23467E-02 1.36579E+00 9.00835E-01 2.35142E-02 3.63017E-02 3.39015E-01 4.70623E+00-2.25784E+01-4.43234E+01



 n o d a l   p r i n t   o u t   f o r   t i m e  s t e p   23803                              ( at time 1.1899809E+01 )

 nodal point  x-rot      y-rot       z-rot       x-rot vel   y-rot vel   z-rot vel   x-rot acc   y-rot acc   z-rot acc
    22626 -3.90659E-02 3.24737E-04-2.66984E-04-1.03481E-02 3.33093E-04 2.52155E-04-2.14701E-04 1.64539E-04 2.95288E-04



 n o d a l   p r i n t   o u t   f o r   t i m e  s t e p   24003                              ( at time 1.1999799E+01 )

 nodal point  x-disp     y-disp      z-disp      x-vel       y-vel       z-vel      x-accl      y-accl      z-accl      x-coor      y-coor      z-coor
    22626  5.00919E-02 5.74913E+00 7.50336E-01 3.35640E-02 1.36733E+00 9.39275E-01 1.21743E-02 1.54344E-02 3.84441E-01 4.70947E+00-2.24417E+01-4.42314E+01



 n o d a l   p r i n t   o u t   f o r   t i m e  s t e p   24003                              ( at time 1.1999799E+01 )

 nodal point  x-rot      y-rot       z-rot       x-rot vel   y-rot vel   z-rot vel   x-rot acc   y-rot acc   z-rot acc
    22626 -4.01025E-02 3.58669E-04-2.41932E-04-1.03970E-02 3.43190E-04 2.38471E-04-4.89469E-04 1.00976E-04-1.36854E-04



 n o d a l   p r i n t   o u t   f o r   t i m e  s t e p   24203                              ( at time 1.2099789E+01 )

 nodal point  x-disp     y-disp      z-disp      x-vel       y-vel       z-vel      x-accl      y-accl      z-accl      x-coor      y-coor      z-coor
    22626  5.34557E-02 5.88599E+00 8.46137E-01 3.41753E-02 1.37064E+00 9.74952E-01 6.11408E-03 3.30947E-02 3.56802E-01 4.71283E+00-2.23048E+01-4.41356E+01



 n o d a l   p r i n t   o u t   f o r   t i m e  s t e p   24203                              ( at time 1.2099789E+01 )

 nodal point  x-rot      y-rot       z-rot       x-rot vel   y-rot vel   z-rot vel   x-rot acc   y-rot acc   z-rot acc
    22626 -4.11423E-02 3.93745E-04-2.15979E-04-1.04280E-02 3.51120E-04 2.71310E-04-3.10534E-04 7.93098E-05 3.28421E-04



 n o d a l   p r i n t   o u t   f o r   t i m e  s t e p   24403                              ( at time 1.2199779E+01 )

 nodal point  x-disp     y-disp      z-disp      x-vel       y-vel       z-vel      x-accl      y-accl      z-accl      x-coor      y-coor      z-coor
    22626  5.69881E-02 6.02321E+00 9.45396E-01 3.57724E-02 1.37375E+00 1.01060E+00 1.59722E-02 3.10545E-02 3.56546E-01 4.71636E+00-2.21676E+01-4.40363E+01



 n o d a l   p r i n t   o u t   f o r   t i m e  s t e p   24403                              ( at time 1.2199779E+01 )

 nodal point  x-rot      y-rot       z-rot       x-rot vel   y-rot vel   z-rot vel   x-rot acc   y-rot acc   z-rot acc
    22626 -4.21843E-02 4.30524E-04-1.87816E-04-1.04438E-02 3.72579E-04 2.96670E-04-1.57427E-04 2.14605E-04 2.53624E-04



 n o d a l   p r i n t   o u t   f o r   t i m e  s t e p   24603                              ( at time 1.2299769E+01 )

 nodal point  x-disp     y-disp      z-disp      x-vel       y-vel       z-vel      x-accl      y-accl      z-accl      x-coor      y-coor      z-coor
    22626  6.06201E-02 6.16056E+00 1.04838E+00 3.68362E-02 1.37482E+00 1.04807E+00 1.06396E-02 1.07049E-02 3.74691E-01 4.72000E+00-2.20303E+01-4.39333E+01



 n o d a l   p r i n t   o u t   f o r   t i m e  s t e p   24603                              ( at time 1.2299769E+01 )

 nodal point  x-rot      y-rot       z-rot       x-rot vel   y-rot vel   z-rot vel   x-rot acc   y-rot acc   z-rot acc
    22626 -4.32286E-02 4.68833E-04-1.57879E-04-1.04511E-02 3.92362E-04 2.99752E-04-7.34329E-05 1.97851E-04 3.08215E-05



 n o d a l   p r i n t   o u t   f o r   t i m e  s t e p   24803                              ( at time 1.2399759E+01 )

 nodal point  x-disp     y-disp      z-disp      x-vel       y-vel       z-vel      x-accl      y-accl      z-accl      x-coor      y-coor      z-coor
    22626  6.42945E-02 6.29814E+00 1.15489E+00 3.73948E-02 1.37694E+00 1.08193E+00 5.58623E-03 2.12131E-02 3.38691E-01 4.72367E+00-2.18927E+01-4.38268E+01



 n o d a l   p r i n t   o u t   f o r   t i m e  s t e p   24803                              ( at time 1.2399759E+01 )

 nodal point  x-rot      y-rot       z-rot       x-rot vel   y-rot vel   z-rot vel   x-rot acc   y-rot acc   z-rot acc
    22626 -4.42748E-02 5.07316E-04-1.27675E-04-1.04640E-02 3.92543E-04 2.95811E-04-1.28815E-04 1.80957E-06-3.94158E-05



 n o d a l   p r i n t   o u t   f o r   t i m e  s t e p   25003                              ( at time 1.2499749E+01 )

 nodal point  x-disp     y-disp      z-disp      x-vel       y-vel       z-vel      x-accl      y-accl      z-accl      x-coor      y-coor      z-coor
    22626  6.80676E-02 6.43595E+00 1.26488E+00 3.82268E-02 1.37820E+00 1.11911E+00 8.32072E-03 1.26553E-02 3.71833E-01 4.72744E+00-2.17549E+01-4.37168E+01



 n o d a l   p r i n t   o u t   f o r   t i m e  s t e p   25003                              ( at time 1.2499749E+01 )

 nodal point  x-rot      y-rot       z-rot       x-rot vel   y-rot vel   z-rot vel   x-rot acc   y-rot acc   z-rot acc
    22626 -4.53238E-02 5.47628E-04-9.55125E-05-1.05053E-02 4.08842E-04 3.37530E-04-4.13102E-04 1.63013E-04 4.17239E-04



 n o d a l   p r i n t   o u t   f o r   t i m e  s t e p   25203                              ( at time 1.2599739E+01 )

 nodal point  x-disp     y-disp      z-disp      x-vel       y-vel       z-vel      x-accl      y-accl      z-accl      x-coor      y-coor      z-coor
    22626  7.19754E-02 6.57384E+00 1.37861E+00 3.92057E-02 1.37984E+00 1.15518E+00 9.79023E-03 1.63095E-02 3.60660E-01 4.73135E+00-2.16170E+01-4.36031E+01



 n o d a l   p r i n t   o u t   f o r   t i m e  s t e p   25203                              ( at time 1.2599739E+01 )

 nodal point  x-rot      y-rot       z-rot       x-rot vel   y-rot vel   z-rot vel   x-rot acc   y-rot acc   z-rot acc
    22626 -4.63759E-02 5.89843E-04-6.09248E-05-1.05129E-02 4.19580E-04 3.36951E-04-7.61061E-05 1.07387E-04-5.79167E-06



 n o d a l   p r i n t   o u t   f o r   t i m e  s t e p   25403                              ( at time 1.2699729E+01 )

 nodal point  x-disp     y-disp      z-disp      x-vel       y-vel       z-vel      x-accl      y-accl      z-accl      x-coor      y-coor      z-coor
    22626  7.59294E-02 6.71189E+00 1.49568E+00 3.99103E-02 1.38071E+00 1.18793E+00 7.04632E-03 8.79377E-03 3.27604E-01 4.73530E+00-2.14789E+01-4.34860E+01



 n o d a l   p r i n t   o u t   f o r   t i m e  s t e p   25403                              ( at time 1.2699729E+01 )

 nodal point  x-rot      y-rot       z-rot       x-rot vel   y-rot vel   z-rot vel   x-rot acc   y-rot acc   z-rot acc
    22626 -4.74279E-02 6.31692E-04-2.78820E-05-1.05167E-02 4.20066E-04 3.39571E-04-3.81229E-05 4.85938E-06 2.62031E-05



 n o d a l   p r i n t   o u t   f o r   t i m e  s t e p   25603                              ( at time 1.2799719E+01 )

 nodal point  x-disp     y-disp      z-disp      x-vel       y-vel       z-vel      x-accl      y-accl      z-accl      x-coor      y-coor      z-coor
    22626  7.99187E-02 6.84994E+00 1.61641E+00 4.02001E-02 1.37989E+00 1.22597E+00 2.89849E-03-8.24654E-03 3.80414E-01 4.73929E+00-2.13409E+01-4.33653E+01



 n o d a l   p r i n t   o u t   f o r   t i m e  s t e p   25603                              ( at time 1.2799719E+01 )

 nodal point  x-rot      y-rot       z-rot       x-rot vel   y-rot vel   z-rot vel   x-rot acc   y-rot acc   z-rot acc
    22626 -4.84838E-02 6.74366E-04 8.14082E-06-1.05961E-02 4.41855E-04 3.68822E-04-7.93474E-04 2.17911E-04 2.92541E-04



 n o d a l   p r i n t   o u t   f o r   t i m e  s t e p   25803                              ( at time 1.2899709E+01 )

 nodal point  x-disp     y-disp      z-disp      x-vel       y-vel       z-vel      x-accl      y-accl      z-accl      x-coor      y-coor      z-coor
    22626  8.40653E-02 6.98804E+00 1.74083E+00 4.20147E-02 1.38108E+00 1.25992E+00 1.81479E-02 1.19305E-02 3.39509E-01 4.74344E+00-2.12028E+01-4.32409E+01



 n o d a l   p r i n t   o u t   f o r   t i m e  s t e p   25803                              ( at time 1.2899709E+01 )

 nodal point  x-rot      y-rot       z-rot       x-rot vel   y-rot vel   z-rot vel   x-rot acc   y-rot acc   z-rot acc
    22626 -4.95445E-02 7.18476E-04 4.41352E-05-1.06147E-02 4.34453E-04 3.37984E-04-1.85827E-04-7.40214E-05-3.08419E-04



 n o d a l   p r i n t   o u t   f o r   t i m e  s t e p   26003                              ( at time 1.2999699E+01 )

 nodal point  x-disp     y-disp      z-disp      x-vel       y-vel       z-vel      x-accl      y-accl      z-accl      x-coor      y-coor      z-coor
    22626  8.82969E-02 7.12618E+00 1.86842E+00 4.15723E-02 1.38133E+00 1.29308E+00-4.42468E-03 2.42973E-03 3.31674E-01 4.74767E+00-2.10646E+01-4.31133E+01



 n o d a l   p r i n t   o u t   f o r   t i m e  s t e p   26003                              ( at time 1.2999699E+01 )

 nodal point  x-rot      y-rot       z-rot       x-rot vel   y-rot vel   z-rot vel   x-rot acc   y-rot acc   z-rot acc
    22626 -5.06044E-02 7.62311E-04 8.04102E-05-1.06037E-02 4.30007E-04 3.63369E-04 1.09535E-04-4.44647E-05 2.53879E-04



 n o d a l   p r i n t   o u t   f o r   t i m e  s t e p   26203                              ( at time 1.3099689E+01 )

 nodal point  x-disp     y-disp      z-disp      x-vel       y-vel       z-vel      x-accl      y-accl      z-accl      x-coor      y-coor      z-coor
    22626  9.24781E-02 7.26422E+00 1.99966E+00 4.25372E-02 1.38016E+00 1.33160E+00 9.65030E-03-1.16455E-02 3.85264E-01 4.75185E+00-2.09266E+01-4.29821E+01



 n o d a l   p r i n t   o u t   f o r   t i m e  s t e p   26203                              ( at time 1.3099689E+01 )

 nodal point  x-rot      y-rot       z-rot       x-rot vel   y-rot vel   z-rot vel   x-rot acc   y-rot acc   z-rot acc
    22626 -5.16691E-02 8.06201E-04 1.17336E-04-1.06822E-02 4.38193E-04 3.62478E-04-7.85222E-04 8.18619E-05-8.91482E-06



 n o d a l   p r i n t   o u t   f o r   t i m e  s t e p   26403                              ( at time 1.3199679E+01 )

 nodal point  x-disp     y-disp      z-disp      x-vel       y-vel       z-vel      x-accl      y-accl      z-accl      x-coor      y-coor      z-coor
    22626  9.68442E-02 7.40226E+00 2.13454E+00 4.46733E-02 1.38168E+00 1.36509E+00 2.13631E-02 1.51696E-02 3.34892E-01 4.75622E+00-2.07886E+01-4.28472E+01



 n o d a l   p r i n t   o u t   f o r   t i m e  s t e p   26403                              ( at time 1.3199679E+01 )

 nodal point  x-rot      y-rot       z-rot       x-rot vel   y-rot vel   z-rot vel   x-rot acc   y-rot acc   z-rot acc
    22626 -5.27402E-02 8.51041E-04 1.54359E-04-1.06823E-02 4.65025E-04 4.01481E-04-7.82383E-07 2.68353E-04 3.90065E-04



 n o d a l   p r i n t   o u t   f o r   t i m e  s t e p   26603                              ( at time 1.3299669E+01 )

 nodal point  x-disp     y-disp      z-disp      x-vel       y-vel       z-vel      x-accl      y-accl      z-accl      x-coor      y-coor      z-coor
    22626  1.01281E-01 7.54035E+00 2.27242E+00 4.33084E-02 1.38115E+00 1.39507E+00-1.36502E-02-5.31966E-03 2.99776E-01 4.76066E+00-2.06505E+01-4.27093E+01



 n o d a l   p r i n t   o u t   f o r   t i m e  s t e p   26603                              ( at time 1.3299669E+01 )

 nodal point  x-rot      y-rot       z-rot       x-rot vel   y-rot vel   z-rot vel   x-rot acc   y-rot acc   z-rot acc
    22626 -5.38099E-02 8.97403E-04 1.93359E-04-1.06732E-02 4.43396E-04 3.67576E-04 9.11019E-05-2.16315E-04-3.39077E-04



 n o d a l   p r i n t   o u t   f o r   t i m e  s t e p   26803                              ( at time 1.3399659E+01 )

 nodal point  x-disp     y-disp      z-disp      x-vel       y-vel       z-vel      x-accl      y-accl      z-accl      x-coor      y-coor      z-coor
    22626  1.05526E-01 7.67826E+00 2.41367E+00 4.22704E-02 1.37900E+00 1.43191E+00-1.03812E-02-2.14777E-02 3.68504E-01 4.76490E+00-2.05126E+01-4.25680E+01



 n o d a l   p r i n t   o u t   f o r   t i m e  s t e p   26803                              ( at time 1.3399659E+01 )

 nodal point  x-rot      y-rot       z-rot       x-rot vel   y-rot vel   z-rot vel   x-rot acc   y-rot acc   z-rot acc
    22626 -5.48823E-02 9.39896E-04 2.27362E-04-1.07565E-02 4.27815E-04 3.25119E-04-8.33627E-04-1.55824E-04-4.24619E-04
