 LSTC 50th% Full_FE H-III Dummy (Beta Version, February 17, 2019)        
                    ls-dyna smp s R16 R16.0_619_d222963 date 03/18/2025

{BEGIN LEGEND}
 Entity #        Title
        1     Upper_Neck_Force_INJURY                                              
{END LEGEND}



 line#1  section#     time        x-force     y-force     z-force    magnitude
 line#2  resultant  moments       x-moment    y-moment    z-moment   magnitude
 line#3  centroids                x           y           z            area  
           1    0.00000E+00     0.0000E+00  0.0000E+00  0.0000E+00  0.0000E+00
ac ID =   33377                 0.0000E+00  0.0000E+00  0.0000E+00  0.0000E+00
                               -3.7437E-01  1.0501E+01 -4.6940E+01  0.0000E+00

           1    1.00490E-01     1.3643E-04 -4.9878E-03  2.5982E-01  2.5987E-01
ac ID =   33377                 4.2550E-01 -1.2521E+00 -2.7103E-02  1.3227E+00
                               -3.7387E-01  1.0590E+01 -4.6886E+01  2.5147E+03

           1    2.00480E-01    -4.4285E-02  5.3968E-04  4.4139E-01  4.4360E-01
ac ID =   33377                 3.0767E-01 -1.5975E+00  2.1144E-02  1.6270E+00
                               -3.7386E-01  1.0591E+01 -4.6888E+01  2.5147E+03

           1    3.00470E-01     1.4603E-02 -3.0866E-03  2.1759E-01  2.1810E-01
ac ID =   33377                 2.8075E-02 -3.3560E-01  6.7167E-02  3.4341E-01
                               -3.7382E-01  1.0591E+01 -4.6889E+01  2.5147E+03

           1    4.00460E-01     2.7889E-03  1.0647E-02  8.7648E-02  8.8336E-02
ac ID =   33377                -4.9907E-01 -9.4497E-01 -1.4769E-03  1.0687E+00
                               -3.7383E-01  1.0592E+01 -4.6890E+01  2.5147E+03

           1    5.00450E-01    -4.0809E-02  4.5028E-03  1.6198E-01  1.6711E-01
ac ID =   33377                -3.9518E-01 -1.5052E+00 -1.0953E-01  1.5601E+00
                               -3.7385E-01  1.0594E+01 -4.6893E+01  2.5147E+03

           1    6.00440E-01    -1.0816E-02  3.7001E-03  3.4325E-01  3.4344E-01
ac ID =   33377                 9.4971E-02 -1.3211E+00 -3.5039E-02  1.3249E+00
                               -3.7385E-01  1.0595E+01 -4.6897E+01  2.5147E+03

           1    7.00430E-01     2.6623E-03 -5.3921E-03  2.9480E-01  2.9486E-01
ac ID =   33377                 1.3836E-01 -5.0527E-01  8.2854E-02  5.3039E-01
                               -3.7389E-01  1.0597E+01 -4.6901E+01  2.5147E+03

           1    8.00420E-01    -3.1136E-02 -9.1585E-04  1.0069E-01  1.0539E-01
ac ID =   33377                 8.2742E-02 -1.0556E+00  5.0662E-02  1.0600E+00
                               -3.7394E-01  1.0599E+01 -4.6905E+01  2.5147E+03

           1    9.00410E-01    -3.9159E-02  8.8131E-04  6.2288E-02  7.3580E-02
ac ID =   33377                 8.7547E-02 -1.0745E+00 -5.1729E-03  1.0780E+00
                               -3.7399E-01  1.0601E+01 -4.6909E+01  2.5147E+03

           1    1.00040E+00     1.4895E-02 -3.8354E-03  2.2062E-01  2.2116E-01
ac ID =   33377                 3.7109E-01 -2.8395E-01 -5.4834E-02  4.7047E-01
                               -3.7400E-01  1.0604E+01 -4.6915E+01  2.5147E+03

           1    1.10039E+00     2.0092E-04 -3.2623E-03  2.7087E-01  2.7089E-01
ac ID =   33377                 3.4299E-01 -8.8471E-01 -5.4244E-02  9.5041E-01
                               -3.7401E-01  1.0607E+01 -4.6921E+01  2.5147E+03

           1    1.20038E+00    -3.2293E-02 -3.5254E-04  1.2935E-01  1.3332E-01
ac ID =   33377                -1.5283E-01 -1.1814E+00  9.9852E-03  1.1912E+00
                               -3.7403E-01  1.0610E+01 -4.6927E+01  2.5147E+03

           1    1.30037E+00    -9.9854E-03  4.5377E-03  7.4673E-02  7.5475E-02
ac ID =   33377                -3.0285E-01 -8.8875E-01  1.8617E-02  9.3912E-01
                               -3.7407E-01  1.0612E+01 -4.6933E+01  2.5147E+03

           1    1.40036E+00     7.4022E-03  3.8695E-03  1.7386E-01  1.7406E-01
ac ID =   33377                -2.9240E-01 -8.3612E-01  3.1441E-02  8.8633E-01
                               -3.7409E-01  1.0616E+01 -4.6941E+01  2.5147E+03

           1    1.50035E+00    -2.7123E-02  1.0670E-03  3.2869E-01  3.2981E-01
ac ID =   33377                -2.1785E-02 -1.5736E+00 -4.7822E-02  1.5745E+00
                               -3.7413E-01  1.0620E+01 -4.6949E+01  2.5147E+03

           1    1.60034E+00    -1.9596E-02 -2.1630E-03  2.2101E-01  2.2189E-01
ac ID =   33377                -1.4922E-02 -1.3706E+00 -1.6528E-02  1.3708E+00
                               -3.7420E-01  1.0624E+01 -4.6957E+01  2.5147E+03

           1    1.70033E+00    -2.9777E-03 -5.7954E-04  5.8587E-02  5.8666E-02
ac ID =   33377                -4.6435E-02 -6.7132E-01  9.0983E-02  6.7905E-01
                               -3.7427E-01  1.0627E+01 -4.6965E+01  2.5147E+03

           1    1.80032E+00    -1.9858E-02  7.9495E-04  7.7484E-02  7.9993E-02
ac ID =   33377                 8.3243E-02 -1.1112E+00  1.2621E-01  1.1214E+00
                               -3.7434E-01  1.0632E+01 -4.6974E+01  2.5147E+03

           1    1.90031E+00    -7.7449E-03 -2.8368E-03  1.9151E-01  1.9168E-01
ac ID =   33377                 2.6710E-01 -8.2210E-01 -6.7665E-02  8.6705E-01
                               -3.7439E-01  1.0636E+01 -4.6984E+01  2.5147E+03

           1    2.00030E+00    -2.2854E-03 -4.4174E-03  1.5651E-01  1.5659E-01
ac ID =   33377                 2.1104E-01 -4.4605E-01 -1.4259E-01  5.1364E-01
                               -3.7444E-01  1.0641E+01 -4.6993E+01  2.5147E+03

           1    2.10029E+00    -2.5211E-02  2.6736E-03  2.9200E-03  2.5520E-02
ac ID =   33377                -7.5138E-02 -6.8774E-01  3.7378E-02  6.9284E-01
                               -3.7450E-01  1.0645E+01 -4.7003E+01  2.5147E+03

           1    2.20028E+00    -1.2951E-02  5.0130E-03  3.1155E-03  1.4233E-02
ac ID =   33377                -2.3870E-01 -6.5603E-01  2.6796E-02  6.9862E-01
                               -3.7456E-01  1.0650E+01 -4.7013E+01  2.5147E+03

           1    2.30027E+00     1.2637E-03  4.6846E-03  1.4884E-01  1.4892E-01
ac ID =   33377                -1.4847E-01 -8.1548E-01 -6.2062E-02  8.3120E-01
                               -3.7462E-01  1.0655E+01 -4.7024E+01  2.5147E+03

           1    2.40026E+00    -1.7399E-02 -1.6251E-03  1.8887E-01  1.8967E-01
ac ID =   33377                -1.5503E-01 -1.1834E+00  7.8389E-02  1.1961E+00
                               -3.7469E-01  1.0661E+01 -4.7035E+01  2.5147E+03

           1    2.50025E+00    -1.8550E-02  1.2666E-03  3.7171E-04  1.8597E-02
ac ID =   33377                -1.9447E-01 -8.8510E-01  1.2976E-01  9.1545E-01
                               -3.7479E-01  1.0665E+01 -4.7045E+01  2.5147E+03

           1    2.60024E+00    -7.0066E-03  5.8825E-03 -7.6522E-02  7.7067E-02
ac ID =   33377                -2.0638E-01 -1.7952E-01  3.9486E-02  2.7637E-01
                               -3.7490E-01  1.0671E+01 -4.7056E+01  2.5147E+03

           1    2.70023E+00    -1.1778E-02 -1.4316E-03  9.8098E-03  1.5395E-02
ac ID =   33377                 3.0917E-02 -2.1757E-01  3.2233E-02  2.2210E-01
                               -3.7501E-01  1.0676E+01 -4.7068E+01  2.5147E+03

           1    2.80022E+00    -5.5821E-03 -4.5267E-03  6.3691E-02  6.4095E-02
ac ID =   33377                 3.7002E-01 -1.4064E-01 -1.9845E-02  3.9635E-01
                               -3.7511E-01  1.0682E+01 -4.7079E+01  2.5147E+03

           1    2.90021E+00     5.6056E-03 -2.4640E-03 -9.9633E-03  1.1694E-02
ac ID =   33377                 1.4581E-01  3.1148E-01 -8.1878E-02  3.5353E-01
                               -3.7520E-01  1.0687E+01 -4.7090E+01  2.5147E+03

           1    3.00020E+00    -7.2866E-03  2.0542E-03 -8.8717E-02  8.9040E-02
ac ID =   33377                -3.3468E-02  7.9122E-02 -5.1411E-02  1.0012E-01
                               -3.7530E-01  1.0692E+01 -4.7101E+01  2.5147E+03

           1    3.10019E+00    -2.8895E-03  4.3093E-04 -9.0095E-03  9.4713E-03
ac ID =   33377                 4.0799E-02 -2.5145E-01 -3.4190E-02  2.5702E-01
                               -3.7538E-01  1.0698E+01 -4.7113E+01  2.5147E+03

           1    3.20018E+00     3.4857E-03  1.9821E-03  6.9741E-02  6.9856E-02
ac ID =   33377                -2.3412E-02 -3.3603E-01  2.0732E-02  3.3748E-01
                               -3.7545E-01  1.0703E+01 -4.7125E+01  2.5147E+03

           1    3.30017E+00     4.6765E-04  1.0054E-03  1.3639E-02  1.3684E-02
ac ID =   33377                -2.3003E-01 -3.6834E-01  1.1241E-01  4.4858E-01
                               -3.7554E-01  1.0708E+01 -4.7137E+01  2.5147E+03

           1    3.40016E+00    -2.7714E-03  2.9267E-03 -1.0119E-01  1.0127E-01
ac ID =   33377                -3.0684E-01 -3.4413E-02  1.1496E-01  3.2947E-01
                               -3.7565E-01  1.0713E+01 -4.7148E+01  2.5147E+03

           1    3.50015E+00    -5.0258E-03  3.1795E-03 -1.3183E-01  1.3197E-01
ac ID =   33377                -1.5899E-01  2.7048E-01  4.5509E-02  3.1703E-01
                               -3.7576E-01  1.0719E+01 -4.7160E+01  2.5147E+03

           1    3.60014E+00     6.2441E-03 -3.0906E-03 -5.2836E-02  5.3293E-02
ac ID =   33377                 1.2112E-01  7.3884E-01 -9.8343E-02  7.5514E-01
                               -3.7586E-01  1.0724E+01 -4.7172E+01  2.5147E+03

           1    3.70013E+00     1.0780E-02 -5.0253E-03 -4.6309E-02  4.7812E-02
ac ID =   33377                 3.0818E-01  8.5813E-01 -1.6934E-01  9.2738E-01
                               -3.7596E-01  1.0729E+01 -4.7183E+01  2.5147E+03

           1    3.80012E+00     7.3978E-03 -2.8125E-03 -1.2908E-01  1.2932E-01
ac ID =   33377                 2.4913E-01  1.0829E+00 -6.8133E-02  1.1132E+00
                               -3.7605E-01  1.0734E+01 -4.7195E+01  2.5147E+03

           1    3.90011E+00     9.2755E-03 -4.3051E-04 -1.9053E-01  1.9076E-01
ac ID =   33377                 1.6585E-01  1.1411E+00 -5.4944E-02  1.1544E+00
                               -3.7613E-01  1.0739E+01 -4.7206E+01  2.5147E+03

           1    4.00010E+00     4.4740E-03 -9.3975E-04 -1.3949E-01  1.3957E-01
ac ID =   33377                -2.5121E-02  7.6052E-01 -1.6786E-02  7.6112E-01
                               -3.7618E-01  1.0744E+01 -4.7217E+01  2.5147E+03

           1    4.10009E+00     5.8263E-03 -2.9112E-04 -1.0116E-01  1.0133E-01
ac ID =   33377                -7.4011E-02  5.6162E-01  2.2336E-02  5.6691E-01
                               -3.7623E-01  1.0748E+01 -4.7228E+01  2.5147E+03

           1    4.20008E+00     3.2331E-03  3.2372E-03 -1.4649E-01  1.4656E-01
ac ID =   33377                -2.3241E-01  5.6926E-01  1.0491E-01  6.2376E-01
                               -3.7629E-01  1.0753E+01 -4.7239E+01  2.5147E+03

           1    4.30007E+00     9.4478E-03  4.9265E-03 -2.4923E-01  2.4946E-01
ac ID =   33377                -3.4899E-01  1.0519E+00  5.7138E-02  1.1097E+00
                               -3.7636E-01  1.0757E+01 -4.7249E+01  2.5147E+03

           1    4.40006E+00     2.4230E-02  5.1544E-03 -2.2632E-01  2.2767E-01
ac ID =   33377                -1.5601E-01  1.4648E+00  1.3362E-02  1.4731E+00
                               -3.7643E-01  1.0762E+01 -4.7260E+01  2.5147E+03

           1    4.50005E+00     2.1634E-02 -6.1013E-04 -1.4736E-01  1.4894E-01
ac ID =   33377                 1.7510E-01  1.3126E+00  1.5358E-02  1.3243E+00
                               -3.7649E-01  1.0766E+01 -4.7270E+01  2.5147E+03

           1    4.60004E+00     2.7293E-02 -4.9428E-03 -1.9494E-01  1.9690E-01
ac ID =   33377                 3.1347E-01  1.5629E+00 -4.9813E-02  1.5948E+00
                               -3.7656E-01  1.0771E+01 -4.7280E+01  2.5147E+03

           1    4.70003E+00     3.0637E-02 -1.3445E-04 -2.7243E-01  2.7414E-01
ac ID =   33377                 1.8854E-01  1.6037E+00 -1.7979E-01  1.6247E+00
                               -3.7661E-01  1.0775E+01 -4.7290E+01  2.5147E+03

           1    4.80002E+00     3.3657E-02  1.2184E-03 -3.0475E-01  3.0660E-01
ac ID =   33377                 2.2527E-02  1.5155E+00 -6.1049E-02  1.5169E+00
                               -3.7665E-01  1.0780E+01 -4.7299E+01  2.5147E+03

           1    4.90001E+00     3.6574E-02 -2.2480E-03 -2.5085E-01  2.5351E-01
ac ID =   33377                 1.1076E-01  1.5889E+00  9.8551E-02  1.5958E+00
                               -3.7668E-01  1.0786E+01 -4.7309E+01  2.5147E+03

           1    5.00000E+00     4.2014E-02  2.2660E-03 -2.4279E-01  2.4641E-01
ac ID =   33377                -2.0432E-01  1.5994E+00  2.1011E-01  1.6260E+00
                               -3.7669E-01  1.0792E+01 -4.7319E+01  2.5147E+03

           1    5.10049E+00     5.0317E-02  7.1296E-03 -3.3753E-01  3.4133E-01
ac ID =   33377                -4.3464E-01  1.8910E+00  7.9353E-02  1.9419E+00
                               -3.7670E-01  1.0798E+01 -4.7329E+01  2.5147E+03

           1    5.20048E+00     5.5201E-02  2.4589E-03 -3.7379E-01  3.7785E-01
ac ID =   33377                -2.6527E-01  2.2162E+00 -1.6938E-01  2.2384E+00
                               -3.7674E-01  1.0806E+01 -4.7338E+01  2.5147E+03

           1    5.30047E+00     6.3515E-02  3.9892E-04 -3.5649E-01  3.6211E-01
ac ID =   33377                -1.3729E-01  2.3846E+00 -6.9195E-02  2.3895E+00
                               -3.7675E-01  1.0814E+01 -4.7348E+01  2.5147E+03

           1    5.40046E+00     7.3391E-02  4.6132E-03 -3.5278E-01  3.6036E-01
ac ID =   33377                -1.3136E-02  2.5936E+00  1.2085E-01  2.5964E+00
                               -3.7674E-01  1.0824E+01 -4.7358E+01  2.5147E+03

           1    5.50045E+00     8.0075E-02  2.2634E-03 -4.4411E-01  4.5127E-01
ac ID =   33377                 1.0828E-01  2.7999E+00  4.7241E-02  2.8024E+00
                               -3.7675E-01  1.0834E+01 -4.7368E+01  2.5147E+03

           1    5.60044E+00     7.3429E-02 -6.4326E-03 -5.1587E-01  5.2111E-01
ac ID =   33377                 2.3080E-01  2.9235E+00 -2.5355E-01  2.9436E+00
                               -3.7672E-01  1.0846E+01 -4.7379E+01  2.5147E+03

           1    5.70043E+00     8.6939E-02  2.6804E-03 -5.3732E-01  5.4432E-01
ac ID =   33377                -5.1781E-02  3.0545E+00 -2.6549E-01  3.0665E+00
                               -3.7664E-01  1.0859E+01 -4.7389E+01  2.5147E+03

           1    5.80042E+00     9.3800E-02  1.0288E-02 -5.1743E-01  5.2597E-01
ac ID =   33377                -1.7119E-01  3.1328E+00  4.8440E-02  3.1379E+00
                               -3.7657E-01  1.0874E+01 -4.7400E+01  2.5147E+03

           1    5.90041E+00     1.0510E-01  3.3100E-03 -5.2343E-01  5.3389E-01
ac ID =   33377                -1.2346E-01  3.3803E+00  2.3593E-01  3.3908E+00
                               -3.7646E-01  1.0890E+01 -4.7412E+01  2.5147E+03

           1    6.00040E+00     1.0235E-01  1.6026E-03 -6.0464E-01  6.1325E-01
ac ID =   33377                -4.6904E-01  3.6472E+00  3.1984E-04  3.6772E+00
                               -3.7632E-01  1.0908E+01 -4.7423E+01  2.5147E+03

           1    6.10039E+00     1.0507E-01  1.1317E-02 -6.1620E-01  6.2520E-01
ac ID =   33377                -6.1147E-01  3.5517E+00 -3.2874E-01  3.6189E+00
                               -3.7620E-01  1.0929E+01 -4.7435E+01  2.5147E+03

           1    6.20038E+00     1.1565E-01  1.1957E-02 -6.0343E-01  6.1453E-01
ac ID =   33377                -3.9481E-01  3.6453E+00 -2.0202E-01  3.6721E+00
                               -3.7609E-01  1.0951E+01 -4.7448E+01  2.5147E+03

           1    6.30037E+00     1.1987E-01 -1.6468E-03 -6.3891E-01  6.5006E-01
ac ID =   33377                -5.3719E-02  3.7414E+00  1.6453E-01  3.7454E+00
                               -3.7593E-01  1.0975E+01 -4.7461E+01  2.5147E+03

           1    6.40036E+00     1.1748E-01  4.3252E-03 -7.2523E-01  7.3470E-01
ac ID =   33377                -2.3820E-01  3.9624E+00  2.1535E-01  3.9754E+00
                               -3.7577E-01  1.1002E+01 -4.7474E+01  2.5147E+03

           1    6.50035E+00     1.3266E-01  7.8198E-03 -7.9454E-01  8.0558E-01
ac ID =   33377                -2.9884E-01  4.5577E+00  1.6582E-02  4.5675E+00
                               -3.7561E-01  1.1030E+01 -4.7489E+01  2.5147E+03

           1    6.60034E+00     1.3979E-01 -1.1035E-04 -7.9138E-01  8.0363E-01
ac ID =   33377                 1.1404E-01  4.7490E+00  3.4106E-02  4.7504E+00
                               -3.7540E-01  1.1061E+01 -4.7504E+01  2.5147E+03

           1    6.70033E+00     1.3946E-01  1.6663E-03 -7.9356E-01  8.0572E-01
ac ID =   33377                -2.0795E-01  4.8708E+00  2.6297E-01  4.8823E+00
                               -3.7514E-01  1.1095E+01 -4.7519E+01  2.5147E+03

           1    6.80032E+00     1.4553E-01  1.3988E-02 -8.6070E-01  8.7303E-01
ac ID =   33377                -5.0543E-01  4.9514E+00  1.2044E-01  4.9786E+00
                               -3.7489E-01  1.1131E+01 -4.7535E+01  2.5147E+03

           1    6.90031E+00     1.5291E-01  7.9744E-03 -9.2666E-01  9.3923E-01
ac ID =   33377                -6.0231E-01  5.4533E+00 -1.7183E-01  5.4891E+00
                               -3.7460E-01  1.1170E+01 -4.7552E+01  2.5147E+03

           1    7.00030E+00     1.4338E-01  2.0916E-03 -9.3085E-01  9.4183E-01
ac ID =   33377                -5.8416E-01  5.0826E+00 -1.7054E-01  5.1189E+00
                               -3.7424E-01  1.1211E+01 -4.7569E+01  2.5147E+03

           1    7.10029E+00     1.5483E-01  1.5201E-02 -9.7888E-01  9.9116E-01
ac ID =   33377                -6.3672E-01  5.3400E+00 -1.1248E-01  5.3790E+00
                               -3.7393E-01  1.1255E+01 -4.7587E+01  2.5147E+03

           1    7.20028E+00     1.6399E-01  6.9564E-03 -1.0563E+00  1.0690E+00
ac ID =   33377                -6.5427E-01  5.6936E+00 -9.2848E-02  5.7318E+00
                               -3.7359E-01  1.1302E+01 -4.7605E+01  2.5147E+03

           1    7.30027E+00     1.5847E-01 -4.2759E-03 -1.1449E+00  1.1559E+00
ac ID =   33377                -6.7111E-02  5.9849E+00 -2.7591E-01  5.9916E+00
                               -3.7327E-01  1.1351E+01 -4.7624E+01  2.5147E+03

           1    7.40026E+00     1.7419E-01 -1.0069E-04 -1.1926E+00  1.2052E+00
ac ID =   33377                -2.3523E-01  6.6095E+00 -1.2703E-01  6.6149E+00
                               -3.7294E-01  1.1403E+01 -4.7643E+01  2.5147E+03

           1    7.50025E+00     1.8088E-01  1.6378E-02 -1.2015E+00  1.2151E+00
ac ID =   33377                -3.3629E-01  6.7831E+00  1.7176E-01  6.7936E+00
                               -3.7262E-01  1.1457E+01 -4.7663E+01  2.5147E+03

           1    7.60024E+00     1.8214E-01 -7.0627E-04 -1.2550E+00  1.2682E+00
ac ID =   33377                -4.2079E-02  6.8979E+00 -1.1782E-02  6.8981E+00
                               -3.7221E-01  1.1514E+01 -4.7683E+01  2.5147E+03

           1    7.70023E+00     1.9255E-01  1.4807E-02 -1.3029E+00  1.3171E+00
ac ID =   33377                -7.3612E-01  7.1003E+00 -1.5065E-01  7.1399E+00
                               -3.7171E-01  1.1574E+01 -4.7703E+01  2.5147E+03

           1    7.80022E+00     1.8150E-01  1.0946E-02 -1.3534E+00  1.3656E+00
ac ID =   33377                -9.5339E-01  7.0701E+00 -2.9367E-01  7.1402E+00
                               -3.7117E-01  1.1637E+01 -4.7724E+01  2.5147E+03

           1    7.90021E+00     1.9764E-01  6.7356E-03 -1.4044E+00  1.4183E+00
ac ID =   33377                -8.4937E-01  7.3713E+00 -1.1429E-01  7.4210E+00
                               -3.7063E-01  1.1702E+01 -4.7745E+01  2.5147E+03

           1    8.00020E+00     2.0745E-01  1.5115E-02 -1.4490E+00  1.4639E+00
ac ID =   33377                -8.3371E-01  7.7289E+00  2.3004E-01  7.7771E+00
                               -3.7011E-01  1.1770E+01 -4.7766E+01  2.5147E+03

           1    8.10019E+00     2.1472E-01  1.6475E-02 -1.5450E+00  1.5600E+00
ac ID =   33377                -7.9297E-01  8.4796E+00  1.6854E-01  8.5183E+00
                               -3.6956E-01  1.1841E+01 -4.7787E+01  2.5147E+03

           1    8.20018E+00     2.1937E-01  8.0042E-03 -1.6300E+00  1.6447E+00
ac ID =   33377                -5.4580E-01  8.8815E+00 -4.1477E-02  8.8984E+00
                               -3.6895E-01  1.1914E+01 -4.7808E+01  2.5147E+03

           1    8.30017E+00     2.3331E-01 -1.6150E-04 -1.6722E+00  1.6884E+00
ac ID =   33377                -2.6323E-01  9.4219E+00 -2.0302E-01  9.4277E+00
                               -3.6829E-01  1.1990E+01 -4.7829E+01  2.5147E+03

           1    8.40016E+00     2.5349E-01  6.6906E-03 -1.7097E+00  1.7284E+00
ac ID =   33377                -3.2365E-01  9.8319E+00 -9.8368E-02  9.8377E+00
                               -3.6757E-01  1.2069E+01 -4.7850E+01  2.5147E+03

           1    8.50015E+00     2.3460E-01  1.0504E-02 -1.7964E+00  1.8117E+00
ac ID =   33377                -5.5151E-01  9.8665E+00 -1.6408E-02  9.8820E+00
                               -3.6683E-01  1.2151E+01 -4.7871E+01  2.5147E+03

           1    8.60014E+00     2.4600E-01  1.4025E-02 -1.8828E+00  1.8989E+00
ac ID =   33377                -9.5435E-01  1.0282E+01 -1.2343E-01  1.0327E+01
                               -3.6601E-01  1.2235E+01 -4.7891E+01  2.5147E+03

           1    8.70013E+00     2.5662E-01  6.7689E-03 -1.9366E+00  1.9535E+00
ac ID =   33377                -9.7064E-01  1.0686E+01 -2.4657E-01  1.0733E+01
                               -3.6515E-01  1.2322E+01 -4.7912E+01  2.5147E+03

           1    8.80012E+00     2.5478E-01  1.2638E-02 -2.0044E+00  2.0205E+00
ac ID =   33377                -1.0056E+00  1.0758E+01 -1.5637E-02  1.0805E+01
                               -3.6427E-01  1.2412E+01 -4.7932E+01  2.5147E+03

           1    8.90011E+00     2.6548E-01  1.7957E-02 -2.0717E+00  2.0887E+00
ac ID =   33377                -1.1952E+00  1.1379E+01  5.5477E-02  1.1442E+01
                               -3.6339E-01  1.2504E+01 -4.7951E+01  2.5147E+03

           1    9.00010E+00     2.8874E-01  7.4183E-03 -2.1758E+00  2.1949E+00
ac ID =   33377                -7.6038E-01  1.2219E+01  4.9974E-02  1.2242E+01
                               -3.6248E-01  1.2599E+01 -4.7970E+01  2.5147E+03

           1    9.10009E+00     2.9323E-01 -1.4835E-04 -2.2395E+00  2.2586E+00
ac ID =   33377                -4.8254E-01  1.2761E+01  7.0218E-02  1.2770E+01
                               -3.6149E-01  1.2696E+01 -4.7988E+01  2.5147E+03

           1    9.20008E+00     2.9012E-01  2.8077E-03 -2.2771E+00  2.2955E+00
ac ID =   33377                -5.8424E-01  1.2742E+01  2.0789E-02  1.2755E+01
                               -3.6046E-01  1.2795E+01 -4.8005E+01  2.5147E+03

           1    9.30007E+00     3.0001E-01  7.3172E-03 -2.3526E+00  2.3717E+00
ac ID =   33377                -4.5335E-01  1.3141E+01 -3.8533E-02  1.3149E+01
                               -3.5942E-01  1.2897E+01 -4.8021E+01  2.5147E+03

           1    9.40006E+00     3.1207E-01 -1.7271E-03 -2.4320E+00  2.4519E+00
ac ID =   33377                -5.2928E-01  1.3646E+01 -2.1593E-01  1.3658E+01
                               -3.5829E-01  1.3002E+01 -4.8037E+01  2.5147E+03

           1    9.50005E+00     3.0267E-01  1.1454E-02 -2.5088E+00  2.5270E+00
ac ID =   33377                -1.1022E+00  1.4062E+01 -1.0010E-01  1.4106E+01
                               -3.5713E-01  1.3108E+01 -4.8051E+01  2.5147E+03

           1    9.60004E+00     3.1439E-01  1.5245E-02 -2.5584E+00  2.5777E+00
ac ID =   33377                -1.2037E+00  1.4553E+01 -1.5769E-02  1.4603E+01
                               -3.5595E-01  1.3217E+01 -4.8064E+01  2.5147E+03

           1    9.70003E+00     3.4219E-01  7.8935E-03 -2.5964E+00  2.6189E+00
ac ID =   33377                -1.0419E+00  1.5505E+01  7.4060E-02  1.5540E+01
                               -3.5471E-01  1.3328E+01 -4.8076E+01  2.5147E+03

           1    9.80002E+00     3.4350E-01  7.8774E-03 -2.6648E+00  2.6868E+00
ac ID =   33377                -1.0802E+00  1.5820E+01 -8.6289E-03  1.5857E+01
                               -3.5348E-01  1.3441E+01 -4.8086E+01  2.5147E+03

           1    9.90001E+00     3.2734E-01  5.9321E-03 -2.7424E+00  2.7619E+00
ac ID =   33377                -8.2965E-01  1.6030E+01 -6.3992E-02  1.6051E+01
                               -3.5225E-01  1.3556E+01 -4.8095E+01  2.5147E+03

           1    1.00005E+01     3.5195E-01  4.9453E-03 -2.8030E+00  2.8250E+00
ac ID =   33377                -6.0377E-01  1.6761E+01 -8.0127E-02  1.6772E+01
                               -3.5094E-01  1.3673E+01 -4.8102E+01  2.5147E+03

           1    1.01005E+01     3.6831E-01 -3.2427E-03 -2.8648E+00  2.8884E+00
ac ID =   33377                -5.2205E-01  1.7399E+01  1.1133E-01  1.7407E+01
                               -3.4956E-01  1.3792E+01 -4.8108E+01  2.5147E+03

           1    1.02005E+01     3.4174E-01 -2.0540E-03 -2.9283E+00  2.9482E+00
ac ID =   33377                -4.9638E-01  1.7286E+01  3.6564E-02  1.7293E+01
                               -3.4818E-01  1.3912E+01 -4.8111E+01  2.5147E+03

           1    1.03005E+01     3.6499E-01  2.4213E-03 -3.0087E+00  3.0307E+00
ac ID =   33377                -8.0879E-01  1.8000E+01 -4.2477E-01  1.8023E+01
                               -3.4673E-01  1.4033E+01 -4.8112E+01  2.5147E+03

           1    1.04005E+01     3.8279E-01 -2.0070E-04 -3.0616E+00  3.0854E+00
ac ID =   33377                -8.1983E-01  1.8788E+01 -5.6908E-01  1.8815E+01
                               -3.4521E-01  1.4156E+01 -4.8111E+01  2.5147E+03

           1    1.05004E+01     3.6436E-01  1.7014E-02 -3.0752E+00  3.0968E+00
ac ID =   33377                -1.2012E+00  1.8604E+01 -1.8126E-01  1.8644E+01
                               -3.4370E-01  1.4280E+01 -4.8108E+01  2.5147E+03

           1    1.06004E+01     3.6842E-01  9.6411E-03 -3.1201E+00  3.1417E+00
ac ID =   33377                -1.0444E+00  1.9125E+01  2.5467E-01  1.9155E+01
                               -3.4210E-01  1.4406E+01 -4.8101E+01  2.5147E+03

           1    1.07004E+01     3.9027E-01 -2.7746E-03 -3.1433E+00  3.1674E+00
ac ID =   33377                -8.4146E-01  1.9451E+01  3.9767E-01  1.9473E+01
                               -3.4047E-01  1.4532E+01 -4.8092E+01  2.5147E+03

           1    1.08004E+01     3.7903E-01  4.7392E-03 -3.2037E+00  3.2261E+00
ac ID =   33377                -6.2481E-01  1.9196E+01  1.3506E-01  1.9207E+01
                               -3.3889E-01  1.4659E+01 -4.8080E+01  2.5147E+03

           1    1.09004E+01     3.7056E-01 -1.8913E-03 -3.2369E+00  3.2581E+00
ac ID =   33377                -6.4516E-01  1.9399E+01 -7.6180E-03  1.9410E+01
                               -3.3719E-01  1.4787E+01 -4.8065E+01  2.5147E+03

           1    1.10004E+01     3.8797E-01  7.0703E-03 -3.2741E+00  3.2971E+00
ac ID =   33377                -5.2980E-01  1.9822E+01 -3.2751E-01  1.9832E+01
                               -3.3550E-01  1.4915E+01 -4.8046E+01  2.5147E+03

           1    1.11004E+01     4.1146E-01 -4.3058E-03 -3.3455E+00  3.3707E+00
ac ID =   33377                -3.7636E-01  2.1028E+01 -1.0616E-01  2.1032E+01
                               -3.3368E-01  1.5044E+01 -4.8024E+01  2.5147E+03

           1    1.12004E+01     3.9800E-01 -3.6174E-03 -3.3693E+00  3.3927E+00
ac ID =   33377                -5.1417E-01  2.1076E+01  1.2572E-01  2.1083E+01
                               -3.3184E-01  1.5173E+01 -4.7999E+01  2.5147E+03

           1    1.13004E+01     4.1737E-01  4.4614E-03 -3.3919E+00  3.4175E+00
ac ID =   33377                -7.5970E-01  2.1979E+01 -5.0533E-04  2.1992E+01
                               -3.2995E-01  1.5303E+01 -4.7971E+01  2.5147E+03

           1    1.14004E+01     4.3162E-01 -8.1659E-03 -3.4215E+00  3.4487E+00
ac ID =   33377                -6.1219E-01  2.2101E+01  2.8644E-02  2.2109E+01
                               -3.2799E-01  1.5434E+01 -4.7939E+01  2.5147E+03

           1    1.15003E+01     4.2047E-01  9.7136E-03 -3.4314E+00  3.4571E+00
ac ID =   33377                -9.1393E-01  2.2264E+01  2.0703E-02  2.2283E+01
                               -3.2601E-01  1.5565E+01 -4.7904E+01  2.5147E+03

           1    1.16003E+01     4.2636E-01 -2.5730E-03 -3.4738E+00  3.4999E+00
ac ID =   33377                -6.8921E-01  2.2732E+01 -1.0154E-01  2.2742E+01
                               -3.2399E-01  1.5696E+01 -4.7866E+01  2.5147E+03

           1    1.17003E+01     4.4715E-01 -4.2776E-03 -3.5217E+00  3.5500E+00
ac ID =   33377                -3.4174E-01  2.3001E+01 -1.4071E-01  2.3004E+01
                               -3.2197E-01  1.5828E+01 -4.7824E+01  2.5147E+03

           1    1.18003E+01     4.4102E-01  3.0320E-03 -3.5076E+00  3.5352E+00
ac ID =   33377                -4.6722E-01  2.3368E+01  5.8073E-02  2.3373E+01
                               -3.1987E-01  1.5961E+01 -4.7779E+01  2.5147E+03

           1    1.19003E+01     4.5289E-01 -5.5099E-03 -3.5589E+00  3.5876E+00
ac ID =   33377                -9.2549E-02  2.3872E+01 -7.9052E-02  2.3872E+01
                               -3.1775E-01  1.6094E+01 -4.7730E+01  2.5147E+03

           1    1.20003E+01     4.5650E-01 -7.6458E-03 -3.5673E+00  3.5964E+00
ac ID =   33377                -2.6505E-01  2.4389E+01  9.1487E-02  2.4391E+01
                               -3.1556E-01  1.6227E+01 -4.7678E+01  2.5147E+03

           1    1.21003E+01     4.5910E-01 -4.5122E-04 -3.5193E+00  3.5491E+00
ac ID =   33377                -3.3956E-01  2.4238E+01  1.7077E-01  2.4241E+01
                               -3.1331E-01  1.6360E+01 -4.7622E+01  2.5147E+03

           1    1.22003E+01     4.7841E-01 -1.5766E-03 -3.5456E+00  3.5777E+00
ac ID =   33377                -2.2789E-01  2.4935E+01 -3.0014E-01  2.4938E+01
                               -3.1102E-01  1.6493E+01 -4.7563E+01  2.5147E+03

           1    1.23003E+01     4.5378E-01  1.0500E-03 -3.5125E+00  3.5417E+00
ac ID =   33377                -6.0787E-01  2.4558E+01 -3.7010E-01  2.4568E+01
                               -3.0869E-01  1.6627E+01 -4.7500E+01  2.5147E+03

           1    1.24003E+01     4.5204E-01  2.2289E-03 -3.4750E+00  3.5043E+00
ac ID =   33377                -6.3122E-01  2.4494E+01  1.1187E-01  2.4502E+01
                               -3.0631E-01  1.6761E+01 -4.7434E+01  2.5147E+03

           1    1.25002E+01     4.7378E-01 -1.8399E-04 -3.4842E+00  3.5162E+00
ac ID =   33377                -2.9589E-01  2.4983E+01  8.5192E-02  2.4985E+01
                               -3.0393E-01  1.6894E+01 -4.7365E+01  2.5147E+03

           1    1.26002E+01     4.6713E-01  2.4991E-03 -3.4388E+00  3.4704E+00
ac ID =   33377                -7.1756E-03  2.4776E+01 -1.4040E-01  2.4777E+01
                               -3.0149E-01  1.7028E+01 -4.7291E+01  2.5147E+03

           1    1.27002E+01     4.6915E-01  9.3184E-03 -3.4400E+00  3.4718E+00
ac ID =   33377                -4.5418E-01  2.5208E+01 -3.1055E-01  2.5214E+01
                               -2.9903E-01  1.7162E+01 -4.7215E+01  2.5147E+03

           1    1.28002E+01     4.7388E-01 -9.1989E-03 -3.4064E+00  3.4392E+00
ac ID =   33377                 2.4241E-01  2.5405E+01 -5.8677E-01  2.5413E+01
                               -2.9653E-01  1.7296E+01 -4.7135E+01  2.5147E+03

           1    1.29002E+01     4.7777E-01 -1.4915E-02 -3.3242E+00  3.3584E+00
ac ID =   33377                 1.4219E-01  2.5483E+01  1.3024E-01  2.5483E+01
                               -2.9391E-01  1.7430E+01 -4.7051E+01  2.5147E+03

           1    1.30002E+01     4.8161E-01  1.1321E-02 -3.3356E+00  3.3702E+00
ac ID =   33377                -5.1004E-01  2.5376E+01  5.7233E-01  2.5387E+01
                               -2.9134E-01  1.7564E+01 -4.6964E+01  2.5147E+03

           1    1.31002E+01     4.5952E-01 -4.3951E-03 -3.2777E+00  3.3097E+00
ac ID =   33377                 5.0918E-02  2.4956E+01  2.6085E-01  2.4957E+01
                               -2.8869E-01  1.7698E+01 -4.6874E+01  2.5147E+03

           1    1.32002E+01     4.6371E-01  7.3759E-04 -3.2056E+00  3.2390E+00
ac ID =   33377                -3.1190E-01  2.5036E+01 -3.3175E-01  2.5040E+01
                               -2.8594E-01  1.7832E+01 -4.6781E+01  2.5147E+03

           1    1.33002E+01     4.8910E-01 -1.2476E-03 -3.2310E+00  3.2678E+00
ac ID =   33377                -5.2097E-01  2.5734E+01 -5.2405E-01  2.5744E+01
                               -2.8322E-01  1.7965E+01 -4.6684E+01  2.5147E+03

           1    1.34002E+01     4.5609E-01  2.7649E-02 -3.1805E+00  3.2132E+00
ac ID =   33377                -1.0386E+00  2.5158E+01  4.2448E-01  2.5183E+01
                               -2.8051E-01  1.8099E+01 -4.6584E+01  2.5147E+03

