 LSTC 50th% Full_FE H-III Dummy (Beta Version, February 17, 2019)        
                    ls-dyna smp s R16 R16.0_619_d222963 date 03/18/2025

{BEGIN LEGEND}
 Entity #        Title
    22626                                                                                     
{END LEGEND}




 n o d a l   p r i n t   o u t   f o r   t i m e  s t e p       1                              ( at time 0.0000000E+00 )

 nodal point  x-disp     y-disp      z-disp      x-vel       y-vel       z-vel      x-accl      y-accl      z-accl      x-coor      y-coor      z-coor
    22626  0.00000E+00 0.00000E+00 0.00000E+00 0.00000E+00 0.00000E+00 0.00000E+00 0.00000E+00 0.00000E+00 0.00000E+00 4.65938E+00-2.81908E+01-4.49817E+01



 n o d a l   p r i n t   o u t   f o r   t i m e  s t e p       1                              ( at time 0.0000000E+00 )

 nodal point  x-rot      y-rot       z-rot       x-rot vel   y-rot vel   z-rot vel   x-rot acc   y-rot acc   z-rot acc
    22626  0.00000E+00 0.00000E+00 0.00000E+00 0.00000E+00 0.00000E+00 0.00000E+00 0.00000E+00 0.00000E+00 0.00000E+00



 n o d a l   p r i n t   o u t   f o r   t i m e  s t e p     201                              ( at time 9.9989993E-02 )

 nodal point  x-disp     y-disp      z-disp      x-vel       y-vel       z-vel      x-accl      y-accl      z-accl      x-coor      y-coor      z-coor
    22626  2.73691E-07 1.73548E-06-5.34264E-05 4.19786E-05 2.55492E-04-1.46806E-03 4.19828E-04 2.55517E-03-1.46821E-02 4.65938E+00-2.81908E+01-4.49818E+01



 n o d a l   p r i n t   o u t   f o r   t i m e  s t e p     201                              ( at time 9.9989993E-02 )

 nodal point  x-rot      y-rot       z-rot       x-rot vel   y-rot vel   z-rot vel   x-rot acc   y-rot acc   z-rot acc
    22626 -5.99245E-08-8.39698E-09-5.47086E-09-5.87074E-06-9.70667E-07-9.28039E-07-5.87133E-05-9.70764E-06-9.28132E-06



 n o d a l   p r i n t   o u t   f o r   t i m e  s t e p     401                              ( at time 1.9997999E-01 )

 nodal point  x-disp     y-disp      z-disp      x-vel       y-vel       z-vel      x-accl      y-accl      z-accl      x-coor      y-coor      z-coor
    22626  1.73091E-05 3.61697E-04-6.67527E-04 3.10602E-05 7.80957E-03-1.21515E-02-1.09195E-04 7.55484E-02-1.06845E-01 4.65939E+00-2.81905E+01-4.49824E+01



 n o d a l   p r i n t   o u t   f o r   t i m e  s t e p     401                              ( at time 1.9997999E-01 )

 nodal point  x-rot      y-rot       z-rot       x-rot vel   y-rot vel   z-rot vel   x-rot acc   y-rot acc   z-rot acc
    22626 -2.82072E-06-3.37279E-07-3.34782E-07-3.94239E-05-1.77757E-06-2.29608E-06-3.35565E-04-8.06979E-06-1.36818E-05



 n o d a l   p r i n t   o u t   f o r   t i m e  s t e p     601                              ( at time 2.9996998E-01 )

 nodal point  x-disp     y-disp      z-disp      x-vel       y-vel       z-vel      x-accl      y-accl      z-accl      x-coor      y-coor      z-coor
    22626  2.73898E-05 1.23957E-03-2.33774E-03 4.23177E-04 8.43946E-03-1.92390E-02 3.92156E-03 6.29951E-03-7.08821E-02 4.65940E+00-2.81896E+01-4.49841E+01



 n o d a l   p r i n t   o u t   f o r   t i m e  s t e p     601                              ( at time 2.9996998E-01 )

 nodal point  x-rot      y-rot       z-rot       x-rot vel   y-rot vel   z-rot vel   x-rot acc   y-rot acc   z-rot acc
    22626 -5.39428E-06-3.91558E-07-6.42937E-07-1.55530E-05-5.49589E-06-6.67551E-06 2.38733E-04-3.71870E-05-4.37986E-05



 n o d a l   p r i n t   o u t   f o r   t i m e  s t e p     801                              ( at time 3.9995997E-01 )

 nodal point  x-disp     y-disp      z-disp      x-vel       y-vel       z-vel      x-accl      y-accl      z-accl      x-coor      y-coor      z-coor
    22626  2.60831E-05 2.16099E-03-4.28059E-03-3.12109E-04 1.07365E-02-2.10665E-02-7.35360E-03 2.29723E-02-1.82766E-02 4.65940E+00-2.81887E+01-4.49860E+01



 n o d a l   p r i n t   o u t   f o r   t i m e  s t e p     801                              ( at time 3.9995997E-01 )

 nodal point  x-rot      y-rot       z-rot       x-rot vel   y-rot vel   z-rot vel   x-rot acc   y-rot acc   z-rot acc
    22626 -7.63461E-06-1.25274E-06-9.84285E-07-4.49407E-05-6.24895E-06-1.53902E-06-2.93906E-04-7.53134E-06 5.13700E-05



 n o d a l   p r i n t   o u t   f o r   t i m e  s t e p    1001                              ( at time 4.9994997E-01 )

 nodal point  x-disp     y-disp      z-disp      x-vel       y-vel       z-vel      x-accl      y-accl      z-accl      x-coor      y-coor      z-coor
    22626  4.06324E-06 3.43415E-03-6.73941E-03-2.38382E-04 1.41112E-02-2.86432E-02 7.37346E-04 3.37508E-02-7.57746E-02 4.65938E+00-2.81874E+01-4.49885E+01



 n o d a l   p r i n t   o u t   f o r   t i m e  s t e p    1001                              ( at time 4.9994997E-01 )

 nodal point  x-rot      y-rot       z-rot       x-rot vel   y-rot vel   z-rot vel   x-rot acc   y-rot acc   z-rot acc
    22626 -1.35985E-05-1.17272E-06-9.53646E-07-8.48517E-05 3.25550E-06 4.19538E-06-3.99150E-04 9.50541E-05 5.73497E-05



 n o d a l   p r i n t   o u t   f o r   t i m e  s t e p    1201                              ( at time 5.9993996E-01 )

 nodal point  x-disp     y-disp      z-disp      x-vel       y-vel       z-vel      x-accl      y-accl      z-accl      x-coor      y-coor      z-coor
    22626 -8.98011E-07 4.99814E-03-9.69445E-03 4.46270E-05 1.64869E-02-3.07177E-02 2.83038E-03 2.37596E-02-2.07470E-02 4.65937E+00-2.81858E+01-4.49914E+01



 n o d a l   p r i n t   o u t   f o r   t i m e  s t e p    1201                              ( at time 5.9993996E-01 )

 nodal point  x-rot      y-rot       z-rot       x-rot vel   y-rot vel   z-rot vel   x-rot acc   y-rot acc   z-rot acc
    22626 -2.05079E-05-8.99688E-07-9.74972E-07-6.18461E-05 3.57355E-06-2.56633E-06 2.30079E-04 3.18077E-06-6.76238E-05



 n o d a l   p r i n t   o u t   f o r   t i m e  s t e p    1401                              ( at time 6.9992995E-01 )

 nodal point  x-disp     y-disp      z-disp      x-vel       y-vel       z-vel      x-accl      y-accl      z-accl      x-coor      y-coor      z-coor
    22626 -4.90943E-05 6.80947E-03-1.31117E-02-4.50761E-04 1.93449E-02-3.84491E-02-4.95437E-03 2.85823E-02-7.73213E-02 4.65933E+00-2.81840E+01-4.49948E+01



 n o d a l   p r i n t   o u t   f o r   t i m e  s t e p    1401                              ( at time 6.9992995E-01 )

 nodal point  x-rot      y-rot       z-rot       x-rot vel   y-rot vel   z-rot vel   x-rot acc   y-rot acc   z-rot acc
    22626 -2.67853E-05-9.90884E-07-7.38536E-07-7.47273E-05-7.30608E-07 2.67749E-06-1.28825E-04-4.30459E-05 5.24435E-05



 n o d a l   p r i n t   o u t   f o r   t i m e  s t e p    1601                              ( at time 7.9991994E-01 )

 nodal point  x-disp     y-disp      z-disp      x-vel       y-vel       z-vel      x-accl      y-accl      z-accl      x-coor      y-coor      z-coor
    22626 -7.44294E-05 8.90632E-03-1.73343E-02-4.66968E-04 2.16960E-02-4.42150E-02-1.62084E-04 2.35143E-02-5.76654E-02 4.65930E+00-2.81819E+01-4.49991E+01



 n o d a l   p r i n t   o u t   f o r   t i m e  s t e p    1601                              ( at time 7.9991994E-01 )

 nodal point  x-rot      y-rot       z-rot       x-rot vel   y-rot vel   z-rot vel   x-rot acc   y-rot acc   z-rot acc
    22626 -3.54469E-05-1.07788E-06-7.75648E-07-9.80572E-05-6.15483E-06-4.17941E-07-2.33322E-04-5.42477E-05-3.09574E-05



 n o d a l   p r i n t   o u t   f o r   t i m e  s t e p    1801                              ( at time 8.9990994E-01 )

 nodal point  x-disp     y-disp      z-disp      x-vel       y-vel       z-vel      x-accl      y-accl      z-accl      x-coor      y-coor      z-coor
    22626 -1.08480E-04 1.11145E-02-2.17463E-02-2.50472E-04 2.32945E-02-4.41816E-02 2.16517E-03 1.59857E-02 3.34751E-04 4.65927E+00-2.81797E+01-4.50035E+01



 n o d a l   p r i n t   o u t   f o r   t i m e  s t e p    1801                              ( at time 8.9990994E-01 )

 nodal point  x-rot      y-rot       z-rot       x-rot vel   y-rot vel   z-rot vel   x-rot acc   y-rot acc   z-rot acc
    22626 -4.46511E-05-1.35991E-06-1.06115E-06-9.23158E-05-9.82289E-07-4.80500E-06 5.74196E-05 5.17306E-05-4.38750E-05



 n o d a l   p r i n t   o u t   f o r   t i m e  s t e p    2001                              ( at time 9.9989993E-01 )

 nodal point  x-disp     y-disp      z-disp      x-vel       y-vel       z-vel      x-accl      y-accl      z-accl      x-coor      y-coor      z-coor
    22626 -1.34123E-04 1.35616E-02-2.63105E-02 1.22949E-04 2.54093E-02-4.78837E-02 3.73458E-03 2.11505E-02-3.70251E-02 4.65924E+00-2.81773E+01-4.50080E+01



 n o d a l   p r i n t   o u t   f o r   t i m e  s t e p    2001                              ( at time 9.9989993E-01 )

 nodal point  x-rot      y-rot       z-rot       x-rot vel   y-rot vel   z-rot vel   x-rot acc   y-rot acc   z-rot acc
    22626 -5.48320E-05-1.71237E-06-1.51102E-06-1.19119E-04-4.22946E-06-9.64173E-06-2.68061E-04-3.24750E-05-4.83721E-05



 n o d a l   p r i n t   o u t   f o r   t i m e  s t e p    2201                              ( at time 1.0998899E+00 )

 nodal point  x-disp     y-disp      z-disp      x-vel       y-vel       z-vel      x-accl      y-accl      z-accl      x-coor      y-coor      z-coor
    22626 -1.22167E-04 1.61759E-02-3.13792E-02-2.71026E-05 2.74927E-02-5.30856E-02-1.50066E-03 2.08363E-02-5.20243E-02 4.65925E+00-2.81747E+01-4.50131E+01



 n o d a l   p r i n t   o u t   f o r   t i m e  s t e p    2201                              ( at time 1.0998899E+00 )

 nodal point  x-rot      y-rot       z-rot       x-rot vel   y-rot vel   z-rot vel   x-rot acc   y-rot acc   z-rot acc
    22626 -6.74345E-05-2.55038E-06-2.62916E-06-1.19889E-04-1.76285E-05-1.22794E-05-7.69583E-06-1.34004E-04-2.63790E-05



 n o d a l   p r i n t   o u t   f o r   t i m e  s t e p    2401                              ( at time 1.1998799E+00 )

 nodal point  x-disp     y-disp      z-disp      x-vel       y-vel       z-vel      x-accl      y-accl      z-accl      x-coor      y-coor      z-coor
    22626 -1.11652E-04 1.89399E-02-3.68983E-02 2.31163E-04 2.79390E-02-5.68609E-02 2.58291E-03 4.46355E-03-3.77571E-02 4.65926E+00-2.81719E+01-4.50186E+01



 n o d a l   p r i n t   o u t   f o r   t i m e  s t e p    2401                              ( at time 1.1998799E+00 )

 nodal point  x-rot      y-rot       z-rot       x-rot vel   y-rot vel   z-rot vel   x-rot acc   y-rot acc   z-rot acc
    22626 -7.97644E-05-4.34155E-06-4.03614E-06-1.29888E-04-2.04660E-05-1.63497E-05-1.00007E-04-2.83785E-05-4.07077E-05



 n o d a l   p r i n t   o u t   f o r   t i m e  s t e p    2601                              ( at time 1.2998699E+00 )

 nodal point  x-disp     y-disp      z-disp      x-vel       y-vel       z-vel      x-accl      y-accl      z-accl      x-coor      y-coor      z-coor
    22626 -9.94558E-05 2.18273E-02-4.26599E-02 2.89772E-04 2.95877E-02-5.81208E-02 5.86155E-04 1.64885E-02-1.25999E-02 4.65928E+00-2.81690E+01-4.50244E+01



 n o d a l   p r i n t   o u t   f o r   t i m e  s t e p    2601                              ( at time 1.2998699E+00 )

 nodal point  x-rot      y-rot       z-rot       x-rot vel   y-rot vel   z-rot vel   x-rot acc   y-rot acc   z-rot acc
    22626 -9.40904E-05-6.39215E-06-5.83055E-06-1.64815E-04-1.63713E-05-1.88789E-05-3.49303E-04 4.09514E-05-2.52942E-05



 n o d a l   p r i n t   o u t   f o r   t i m e  s t e p    2801                              ( at time 1.3998599E+00 )

 nodal point  x-disp     y-disp      z-disp      x-vel       y-vel       z-vel      x-accl      y-accl      z-accl      x-coor      y-coor      z-coor
    22626 -6.86416E-05 2.48662E-02-4.84740E-02 1.54353E-04 3.07519E-02-5.88351E-02-1.35433E-03 1.16431E-02-7.14340E-03 4.65931E+00-2.81660E+01-4.50302E+01



 n o d a l   p r i n t   o u t   f o r   t i m e  s t e p    2801                              ( at time 1.3998599E+00 )

 nodal point  x-rot      y-rot       z-rot       x-rot vel   y-rot vel   z-rot vel   x-rot acc   y-rot acc   z-rot acc
    22626 -1.11439E-04-8.08925E-06-7.95950E-06-1.83265E-04-2.32596E-05-2.39152E-05-1.84515E-04-6.88898E-05-5.03683E-05



 n o d a l   p r i n t   o u t   f o r   t i m e  s t e p    3001                              ( at time 1.4998499E+00 )

 nodal point  x-disp     y-disp      z-disp      x-vel       y-vel       z-vel      x-accl      y-accl      z-accl      x-coor      y-coor      z-coor
    22626 -3.51933E-05 2.80504E-02-5.46031E-02 4.92695E-04 3.28665E-02-6.43169E-02 3.38376E-03 2.11476E-02-5.48242E-02 4.65934E+00-2.81628E+01-4.50363E+01



 n o d a l   p r i n t   o u t   f o r   t i m e  s t e p    3001                              ( at time 1.4998499E+00 )

 nodal point  x-rot      y-rot       z-rot       x-rot vel   y-rot vel   z-rot vel   x-rot acc   y-rot acc   z-rot acc
    22626 -1.29921E-04-1.07556E-05-1.06057E-05-1.82986E-04-2.89944E-05-3.05315E-05 2.79105E-06-5.73538E-05-6.61695E-05



 n o d a l   p r i n t   o u t   f o r   t i m e  s t e p    3201                              ( at time 1.5998399E+00 )

 nodal point  x-disp     y-disp      z-disp      x-vel       y-vel       z-vel      x-accl      y-accl      z-accl      x-coor      y-coor      z-coor
    22626  1.56580E-07 3.14851E-02-6.12976E-02 3.70949E-04 3.58549E-02-6.88396E-02-1.21758E-03 2.98869E-02-4.52311E-02 4.65938E+00-2.81593E+01-4.50430E+01



 n o d a l   p r i n t   o u t   f o r   t i m e  s t e p    3201                              ( at time 1.5998399E+00 )

 nodal point  x-rot      y-rot       z-rot       x-rot vel   y-rot vel   z-rot vel   x-rot acc   y-rot acc   z-rot acc
    22626 -1.48083E-04-1.38686E-05-1.35792E-05-1.88281E-04-3.30845E-05-3.11072E-05-5.29555E-05-4.09046E-05-5.75771E-06



 n o d a l   p r i n t   o u t   f o r   t i m e  s t e p    3401                              ( at time 1.6998299E+00 )

 nodal point  x-disp     y-disp      z-disp      x-vel       y-vel       z-vel      x-accl      y-accl      z-accl      x-coor      y-coor      z-coor
    22626  4.66160E-05 3.51519E-02-6.83227E-02 3.94871E-04 3.71159E-02-7.10224E-02 2.39245E-04 1.26118E-02-2.18305E-02 4.65942E+00-2.81557E+01-4.50500E+01



 n o d a l   p r i n t   o u t   f o r   t i m e  s t e p    3401                              ( at time 1.6998299E+00 )

 nodal point  x-rot      y-rot       z-rot       x-rot vel   y-rot vel   z-rot vel   x-rot acc   y-rot acc   z-rot acc
    22626 -1.68303E-04-1.69387E-05-1.69181E-05-2.03447E-04-2.80870E-05-3.39076E-05-1.51680E-04 4.99796E-05-2.80065E-05



 n o d a l   p r i n t   o u t   f o r   t i m e  s t e p    3601                              ( at time 1.7998199E+00 )

 nodal point  x-disp     y-disp      z-disp      x-vel       y-vel       z-vel      x-accl      y-accl      z-accl      x-coor      y-coor      z-coor
    22626  7.29187E-05 3.89041E-02-7.55145E-02 1.86611E-04 3.80647E-02-7.27018E-02-2.08282E-03 9.48857E-03-1.67959E-02 4.65945E+00-2.81519E+01-4.50572E+01



 n o d a l   p r i n t   o u t   f o r   t i m e  s t e p    3601                              ( at time 1.7998199E+00 )

 nodal point  x-rot      y-rot       z-rot       x-rot vel   y-rot vel   z-rot vel   x-rot acc   y-rot acc   z-rot acc
    22626 -1.89728E-04-1.97743E-05-2.05057E-05-2.11087E-04-3.01751E-05-4.12939E-05-7.64034E-05-2.08835E-05-7.38702E-05



 n o d a l   p r i n t   o u t   f o r   t i m e  s t e p    3801                              ( at time 1.8998099E+00 )

 nodal point  x-disp     y-disp      z-disp      x-vel       y-vel       z-vel      x-accl      y-accl      z-accl      x-coor      y-coor      z-coor
    22626  9.43596E-05 4.28066E-02-8.29378E-02 4.07653E-04 3.95844E-02-7.60994E-02 2.21064E-03 1.51987E-02-3.39790E-02 4.65947E+00-2.81480E+01-4.50647E+01



 n o d a l   p r i n t   o u t   f o r   t i m e  s t e p    3801                              ( at time 1.8998099E+00 )

 nodal point  x-rot      y-rot       z-rot       x-rot vel   y-rot vel   z-rot vel   x-rot acc   y-rot acc   z-rot acc
    22626 -2.11801E-04-2.29483E-05-2.45099E-05-2.29666E-04-3.59155E-05-4.12319E-05-1.85807E-04-5.74090E-05 6.19682E-07



 n o d a l   p r i n t   o u t   f o r   t i m e  s t e p    4001                              ( at time 1.9997999E+00 )

 nodal point  x-disp     y-disp      z-disp      x-vel       y-vel       z-vel      x-accl      y-accl      z-accl      x-coor      y-coor      z-coor
    22626  1.46993E-04 4.67611E-02-9.07375E-02 7.01252E-04 3.98403E-02-7.96124E-02 2.93628E-03 2.55975E-03-3.51335E-02 4.65952E+00-2.81441E+01-4.50725E+01



 n o d a l   p r i n t   o u t   f o r   t i m e  s t e p    4001                              ( at time 1.9997999E+00 )

 nodal point  x-rot      y-rot       z-rot       x-rot vel   y-rot vel   z-rot vel   x-rot acc   y-rot acc   z-rot acc
    22626 -2.35748E-04-2.63843E-05-2.89576E-05-2.40940E-04-3.95452E-05-4.70456E-05-1.12752E-04-3.63008E-05-5.81426E-05



 n o d a l   p r i n t   o u t   f o r   t i m e  s t e p    4201                              ( at time 2.0997899E+00 )

 nodal point  x-disp     y-disp      z-disp      x-vel       y-vel       z-vel      x-accl      y-accl      z-accl      x-coor      y-coor      z-coor
    22626  2.26346E-04 5.07677E-02-9.87629E-02 8.90619E-04 4.02347E-02-8.08704E-02 1.89386E-03 3.94443E-03-1.25813E-02 4.65960E+00-2.81401E+01-4.50805E+01



 n o d a l   p r i n t   o u t   f o r   t i m e  s t e p    4201                              ( at time 2.0997899E+00 )

 nodal point  x-rot      y-rot       z-rot       x-rot vel   y-rot vel   z-rot vel   x-rot acc   y-rot acc   z-rot acc
    22626 -2.60255E-04-3.04047E-05-3.39922E-05-2.45829E-04-4.16211E-05-5.11654E-05-4.88995E-05-2.07613E-05-4.12019E-05



 n o d a l   p r i n t   o u t   f o r   t i m e  s t e p    4401                              ( at time 2.1997798E+00 )

 nodal point  x-disp     y-disp      z-disp      x-vel       y-vel       z-vel      x-accl      y-accl      z-accl      x-coor      y-coor      z-coor
    22626  2.82895E-04 5.48074E-02-1.06872E-01 5.42632E-04 4.03720E-02-8.12532E-02-3.48022E-03 1.37250E-03-3.82864E-03 4.65966E+00-2.81360E+01-4.50886E+01



 n o d a l   p r i n t   o u t   f o r   t i m e  s t e p    4401                              ( at time 2.1997798E+00 )

 nodal point  x-rot      y-rot       z-rot       x-rot vel   y-rot vel   z-rot vel   x-rot acc   y-rot acc   z-rot acc
    22626 -2.86580E-04-3.41453E-05-3.92793E-05-2.70121E-04-3.94705E-05-5.68988E-05-2.42937E-04 2.15086E-05-5.73399E-05



 n o d a l   p r i n t   o u t   f o r   t i m e  s t e p    4601                              ( at time 2.2997698E+00 )

 nodal point  x-disp     y-disp      z-disp      x-vel       y-vel       z-vel      x-accl      y-accl      z-accl      x-coor      y-coor      z-coor
    22626  3.52496E-04 5.88553E-02-1.15018E-01 5.31824E-04 4.06809E-02-8.20260E-02-1.08093E-04 3.08961E-03-7.72791E-03 4.65973E+00-2.81320E+01-4.50967E+01



 n o d a l   p r i n t   o u t   f o r   t i m e  s t e p    4601                              ( at time 2.2997698E+00 )

 nodal point  x-rot      y-rot       z-rot       x-rot vel   y-rot vel   z-rot vel   x-rot acc   y-rot acc   z-rot acc
    22626 -3.14671E-04-3.75047E-05-4.49411E-05-2.77948E-04-2.92675E-05-5.70722E-05-7.82822E-05 1.02040E-04-1.73472E-06



 n o d a l   p r i n t   o u t   f o r   t i m e  s t e p    4801                              ( at time 2.3997598E+00 )

 nodal point  x-disp     y-disp      z-disp      x-vel       y-vel       z-vel      x-accl      y-accl      z-accl      x-coor      y-coor      z-coor
    22626  3.50543E-04 6.29815E-02-1.23357E-01-4.79859E-05 4.14043E-02-8.51566E-02-5.79869E-03 7.23431E-03-3.13097E-02 4.65973E+00-2.81278E+01-4.51051E+01



 n o d a l   p r i n t   o u t   f o r   t i m e  s t e p    4801                              ( at time 2.3997598E+00 )

 nodal point  x-rot      y-rot       z-rot       x-rot vel   y-rot vel   z-rot vel   x-rot acc   y-rot acc   z-rot acc
    22626 -3.43629E-04-4.01001E-05-5.02361E-05-2.91617E-04-1.79262E-05-5.29550E-05-1.36701E-04 1.13424E-04 4.11764E-05



 n o d a l   p r i n t   o u t   f o r   t i m e  s t e p    5001                              ( at time 2.4997498E+00 )

 nodal point  x-disp     y-disp      z-disp      x-vel       y-vel       z-vel      x-accl      y-accl      z-accl      x-coor      y-coor      z-coor
    22626  3.26927E-04 6.71757E-02-1.32008E-01-4.54872E-04 4.18350E-02-8.68076E-02-4.06926E-03 4.30805E-03-1.65111E-02 4.65970E+00-2.81237E+01-4.51137E+01



 n o d a l   p r i n t   o u t   f o r   t i m e  s t e p    5001                              ( at time 2.4997498E+00 )

 nodal point  x-rot      y-rot       z-rot       x-rot vel   y-rot vel   z-rot vel   x-rot acc   y-rot acc   z-rot acc
    22626 -3.73794E-04-4.21054E-05-5.62682E-05-2.97039E-04-1.99927E-05-6.06517E-05-5.42296E-05-2.06674E-05-7.69746E-05



 n o d a l   p r i n t   o u t   f o r   t i m e  s t e p    5201                              ( at time 2.5997398E+00 )

 nodal point  x-disp     y-disp      z-disp      x-vel       y-vel       z-vel      x-accl      y-accl      z-accl      x-coor      y-coor      z-coor
    22626  3.01982E-04 7.13423E-02-1.40632E-01-5.30785E-04 4.10580E-02-8.57857E-02-7.59211E-04-7.77074E-03 1.02192E-02 4.65968E+00-2.81195E+01-4.51224E+01



 n o d a l   p r i n t   o u t   f o r   t i m e  s t e p    5201                              ( at time 2.5997398E+00 )

 nodal point  x-rot      y-rot       z-rot       x-rot vel   y-rot vel   z-rot vel   x-rot acc   y-rot acc   z-rot acc
    22626 -4.04830E-04-4.35444E-05-6.22135E-05-3.12888E-04-9.55303E-06-5.96624E-05-1.58503E-04 1.04407E-04 9.89365E-06



 n o d a l   p r i n t   o u t   f o r   t i m e  s t e p    5401                              ( at time 2.6997298E+00 )

 nodal point  x-disp     y-disp      z-disp      x-vel       y-vel       z-vel      x-accl      y-accl      z-accl      x-coor      y-coor      z-coor
    22626  2.04174E-04 7.53850E-02-1.49123E-01-9.82520E-04 3.99233E-02-8.42773E-02-4.51779E-03-1.13488E-02 1.50863E-02 4.65958E+00-2.81154E+01-4.51308E+01



 n o d a l   p r i n t   o u t   f o r   t i m e  s t e p    5401                              ( at time 2.6997298E+00 )

 nodal point  x-rot      y-rot       z-rot       x-rot vel   y-rot vel   z-rot vel   x-rot acc   y-rot acc   z-rot acc
    22626 -4.38287E-04-4.38983E-05-6.79177E-05-3.41532E-04 1.72911E-06-6.62756E-05-2.86465E-04 1.12833E-04-6.61387E-05



 n o d a l   p r i n t   o u t   f o r   t i m e  s t e p    5601                              ( at time 2.7997198E+00 )

 nodal point  x-disp     y-disp      z-disp      x-vel       y-vel       z-vel      x-accl      y-accl      z-accl      x-coor      y-coor      z-coor
    22626  1.14080E-04 7.93521E-02-1.57504E-01-1.19657E-03 3.90962E-02-8.33039E-02-2.14070E-03-8.27124E-03 9.73435E-03 4.65949E+00-2.81115E+01-4.51392E+01



 n o d a l   p r i n t   o u t   f o r   t i m e  s t e p    5601                              ( at time 2.7997198E+00 )

 nodal point  x-rot      y-rot       z-rot       x-rot vel   y-rot vel   z-rot vel   x-rot acc   y-rot acc   z-rot acc
    22626 -4.73635E-04-4.32142E-05-7.45193E-05-3.41109E-04 5.72591E-06-6.36103E-05 4.22630E-06 3.99721E-05 2.66558E-05



 n o d a l   p r i n t   o u t   f o r   t i m e  s t e p    5801                              ( at time 2.8997098E+00 )

 nodal point  x-disp     y-disp      z-disp      x-vel       y-vel       z-vel      x-accl      y-accl      z-accl      x-coor      y-coor      z-coor
    22626 -1.43695E-05 8.32406E-02-1.65851E-01-1.12805E-03 3.89507E-02-8.36546E-02 6.85293E-04-1.45532E-03-3.50697E-03 4.65936E+00-2.81076E+01-4.51476E+01



 n o d a l   p r i n t   o u t   f o r   t i m e  s t e p    5801                              ( at time 2.8997098E+00 )

 nodal point  x-rot      y-rot       z-rot       x-rot vel   y-rot vel   z-rot vel   x-rot acc   y-rot acc   z-rot acc
    22626 -5.08460E-04-4.29974E-05-8.13549E-05-3.51337E-04-1.25546E-06-6.98465E-05-1.02289E-04-6.98208E-05-6.23679E-05



 n o d a l   p r i n t   o u t   f o r   t i m e  s t e p    6001                              ( at time 2.9996998E+00 )

 nodal point  x-disp     y-disp      z-disp      x-vel       y-vel       z-vel      x-accl      y-accl      z-accl      x-coor      y-coor      z-coor
    22626 -9.76442E-05 8.70560E-02-1.74176E-01-3.25294E-04 3.77198E-02-8.26314E-02 8.02832E-03-1.23104E-02 1.02333E-02 4.65928E+00-2.81038E+01-4.51559E+01



 n o d a l   p r i n t   o u t   f o r   t i m e  s t e p    6001                              ( at time 2.9996998E+00 )

 nodal point  x-rot      y-rot       z-rot       x-rot vel   y-rot vel   z-rot vel   x-rot acc   y-rot acc   z-rot acc
    22626 -5.45222E-04-4.36222E-05-8.88689E-05-3.71640E-04-3.95426E-06-7.77746E-05-2.03048E-04-2.69907E-05-7.92891E-05



 n o d a l   p r i n t   o u t   f o r   t i m e  s t e p    6201                              ( at time 3.0996898E+00 )

 nodal point  x-disp     y-disp      z-disp      x-vel       y-vel       z-vel      x-accl      y-accl      z-accl      x-coor      y-coor      z-coor
    22626 -1.42730E-04 9.08898E-02-1.82333E-01-1.06832E-03 3.89198E-02-8.06921E-02-7.43099E-03 1.20015E-02 1.93943E-02 4.65923E+00-2.80999E+01-4.51641E+01



 n o d a l   p r i n t   o u t   f o r   t i m e  s t e p    6201                              ( at time 3.0996898E+00 )

 nodal point  x-rot      y-rot       z-rot       x-rot vel   y-rot vel   z-rot vel   x-rot acc   y-rot acc   z-rot acc
    22626 -5.82855E-04-4.34709E-05-9.70168E-05-3.65831E-04 1.10101E-06-8.49022E-05 5.80913E-05 5.05578E-05-7.12832E-05



 n o d a l   p r i n t   o u t   f o r   t i m e  s t e p    6401                              ( at time 3.1996798E+00 )

 nodal point  x-disp     y-disp      z-disp      x-vel       y-vel       z-vel      x-accl      y-accl      z-accl      x-coor      y-coor      z-coor
    22626 -2.98611E-04 9.48815E-02-1.90468E-01-1.76387E-03 4.15125E-02-8.21607E-02-6.95621E-03 2.59290E-02-1.46870E-02 4.65908E+00-2.80959E+01-4.51722E+01



 n o d a l   p r i n t   o u t   f o r   t i m e  s t e p    6401                              ( at time 3.1996798E+00 )

 nodal point  x-rot      y-rot       z-rot       x-rot vel   y-rot vel   z-rot vel   x-rot acc   y-rot acc   z-rot acc
    22626 -6.21171E-04-4.36120E-05-1.06519E-04-3.85589E-04 6.99316E-08-1.03074E-04-1.97595E-04-1.03118E-05-1.81737E-04



 n o d a l   p r i n t   o u t   f o r   t i m e  s t e p    6601                              ( at time 3.2996698E+00 )

 nodal point  x-disp     y-disp      z-disp      x-vel       y-vel       z-vel      x-accl      y-accl      z-accl      x-coor      y-coor      z-coor
    22626 -5.59984E-04 9.93194E-02-1.98774E-01-3.22772E-03 4.74522E-02-8.34590E-02-1.46400E-02 5.94034E-02-1.29845E-02 4.65881E+00-2.80915E+01-4.51805E+01



 n o d a l   p r i n t   o u t   f o r   t i m e  s t e p    6601                              ( at time 3.2996698E+00 )

 nodal point  x-rot      y-rot       z-rot       x-rot vel   y-rot vel   z-rot vel   x-rot acc   y-rot acc   z-rot acc
    22626 -6.61354E-04-4.33716E-05-1.16804E-04-4.19796E-04 5.60708E-06-1.00958E-04-3.42107E-04 5.53771E-05 2.11656E-05



 n o d a l   p r i n t   o u t   f o r   t i m e  s t e p    6801                              ( at time 3.3996598E+00 )

 nodal point  x-disp     y-disp      z-disp      x-vel       y-vel       z-vel      x-accl      y-accl      z-accl      x-coor      y-coor      z-coor
    22626 -8.61068E-04 1.04493E-01-2.07098E-01-2.81319E-03 5.66281E-02-8.34370E-02 4.14567E-03 9.17678E-02 2.19739E-04 4.65851E+00-2.80863E+01-4.51888E+01



 n o d a l   p r i n t   o u t   f o r   t i m e  s t e p    6801                              ( at time 3.3996598E+00 )

 nodal point  x-rot      y-rot       z-rot       x-rot vel   y-rot vel   z-rot vel   x-rot acc   y-rot acc   z-rot acc
    22626 -7.05745E-04-4.27738E-05-1.27196E-04-4.68037E-04 8.54034E-06-1.09423E-04-4.82461E-04 2.93355E-05-8.46645E-05



 n o d a l   p r i n t   o u t   f o r   t i m e  s t e p    7001                              ( at time 3.4996498E+00 )

 nodal point  x-disp     y-disp      z-disp      x-vel       y-vel       z-vel      x-accl      y-accl      z-accl      x-coor      y-coor      z-coor
    22626 -1.15839E-03 1.10831E-01-2.15372E-01-3.61776E-03 7.09178E-02-8.19001E-02-8.04648E-03 1.42912E-01 1.53711E-02 4.65822E+00-2.80800E+01-4.51971E+01



 n o d a l   p r i n t   o u t   f o r   t i m e  s t e p    7001                              ( at time 3.4996498E+00 )

 nodal point  x-rot      y-rot       z-rot       x-rot vel   y-rot vel   z-rot vel   x-rot acc   y-rot acc   z-rot acc
    22626 -7.55798E-04-4.16312E-05-1.38196E-04-5.24863E-04 1.56601E-05-1.08750E-04-5.68313E-04 7.12052E-05 6.73181E-06



 n o d a l   p r i n t   o u t   f o r   t i m e  s t e p    7201                              ( at time 3.5996397E+00 )

 nodal point  x-disp     y-disp      z-disp      x-vel       y-vel       z-vel      x-accl      y-accl      z-accl      x-coor      y-coor      z-coor
    22626 -1.52482E-03 1.18872E-01-2.23534E-01-3.45573E-03 9.04664E-02-8.23795E-02 1.62043E-03 1.95505E-01-4.79523E-03 4.65785E+00-2.80720E+01-4.52053E+01



 n o d a l   p r i n t   o u t   f o r   t i m e  s t e p    7201                              ( at time 3.5996397E+00 )

 nodal point  x-rot      y-rot       z-rot       x-rot vel   y-rot vel   z-rot vel   x-rot acc   y-rot acc   z-rot acc
    22626 -8.11883E-04-4.04954E-05-1.49658E-04-5.95605E-04 8.21747E-06-1.24612E-04-7.07497E-04-7.44343E-05-1.58638E-04



 n o d a l   p r i n t   o u t   f o r   t i m e  s t e p    7401                              ( at time 3.6996297E+00 )

 nodal point  x-disp     y-disp      z-disp      x-vel       y-vel       z-vel      x-accl      y-accl      z-accl      x-coor      y-coor      z-coor
    22626 -1.93727E-03 1.29086E-01-2.31861E-01-4.65126E-03 1.14909E-01-8.42962E-02-1.19564E-02 2.44455E-01-1.91686E-02 4.65744E+00-2.80617E+01-4.52136E+01



 n o d a l   p r i n t   o u t   f o r   t i m e  s t e p    7401                              ( at time 3.6996297E+00 )

 nodal point  x-rot      y-rot       z-rot       x-rot vel   y-rot vel   z-rot vel   x-rot acc   y-rot acc   z-rot acc
    22626 -8.75797E-04-4.05010E-05-1.64056E-04-6.77555E-04-1.00064E-05-1.51615E-04-8.19580E-04-1.82257E-04-2.70054E-04



 n o d a l   p r i n t   o u t   f o r   t i m e  s t e p    7601                              ( at time 3.7996197E+00 )

 nodal point  x-disp     y-disp      z-disp      x-vel       y-vel       z-vel      x-accl      y-accl      z-accl      x-coor      y-coor      z-coor
    22626 -2.37087E-03 1.41975E-01-2.40413E-01-3.83543E-03 1.42883E-01-8.69398E-02 8.15906E-03 2.79766E-01-2.64381E-02 4.65700E+00-2.80489E+01-4.52221E+01



 n o d a l   p r i n t   o u t   f o r   t i m e  s t e p    7601                              ( at time 3.7996197E+00 )

 nodal point  x-rot      y-rot       z-rot       x-rot vel   y-rot vel   z-rot vel   x-rot acc   y-rot acc   z-rot acc
    22626 -9.48260E-04-4.21251E-05-1.79905E-04-7.77610E-04-2.20593E-05-1.68440E-04-1.00065E-03-1.20541E-04-1.68264E-04



 n o d a l   p r i n t   o u t   f o r   t i m e  s t e p    7801                              ( at time 3.8996097E+00 )

 nodal point  x-disp     y-disp      z-disp      x-vel       y-vel       z-vel      x-accl      y-accl      z-accl      x-coor      y-coor      z-coor
    22626 -2.78026E-03 1.57805E-01-2.49227E-01-4.87221E-03 1.74008E-01-8.94128E-02-1.03688E-02 3.11276E-01-2.47327E-02 4.65659E+00-2.80330E+01-4.52309E+01



 n o d a l   p r i n t   o u t   f o r   t i m e  s t e p    7801                              ( at time 3.8996097E+00 )

 nodal point  x-rot      y-rot       z-rot       x-rot vel   y-rot vel   z-rot vel   x-rot acc   y-rot acc   z-rot acc
    22626 -1.03215E-03-4.40852E-05-1.97110E-04-9.00935E-04-2.35457E-05-1.91300E-04-1.23337E-03-1.48652E-05-2.28629E-04



 n o d a l   p r i n t   o u t   f o r   t i m e  s t e p    8001                              ( at time 3.9995997E+00 )

 nodal point  x-disp     y-disp      z-disp      x-vel       y-vel       z-vel      x-accl      y-accl      z-accl      x-coor      y-coor      z-coor
    22626 -3.32171E-03 1.76968E-01-2.58243E-01-6.00146E-03 2.09236E-01-9.08576E-02-1.12937E-02 3.52316E-01-1.44498E-02 4.65605E+00-2.80139E+01-4.52400E+01



 n o d a l   p r i n t   o u t   f o r   t i m e  s t e p    8001                              ( at time 3.9995997E+00 )

 nodal point  x-rot      y-rot       z-rot       x-rot vel   y-rot vel   z-rot vel   x-rot acc   y-rot acc   z-rot acc
    22626 -1.13086E-03-4.75459E-05-2.17726E-04-1.06169E-03-3.76990E-05-2.17297E-04-1.60770E-03-1.41547E-04-2.59996E-04



 n o d a l   p r i n t   o u t   f o r   t i m e  s t e p    8201                              ( at time 4.0995897E+00 )

 nodal point  x-disp     y-disp      z-disp      x-vel       y-vel       z-vel      x-accl      y-accl      z-accl      x-coor      y-coor      z-coor
    22626 -4.01101E-03 1.99841E-01-2.67493E-01-7.14390E-03 2.48703E-01-9.49675E-02-1.14255E-02 3.94714E-01-4.11024E-02 4.65536E+00-2.79910E+01-4.52492E+01



 n o d a l   p r i n t   o u t   f o r   t i m e  s t e p    8201                              ( at time 4.0995897E+00 )

 nodal point  x-rot      y-rot       z-rot       x-rot vel   y-rot vel   z-rot vel   x-rot acc   y-rot acc   z-rot acc
    22626 -1.24420E-03-5.11149E-05-2.40016E-04-1.22025E-03-2.28719E-05-2.13999E-04-1.58582E-03 1.48285E-04 3.29929E-05



 n o d a l   p r i n t   o u t   f o r   t i m e  s t e p    8401                              ( at time 4.1995797E+00 )

 nodal point  x-disp     y-disp      z-disp      x-vel       y-vel       z-vel      x-accl      y-accl      z-accl      x-coor      y-coor      z-coor
    22626 -4.78873E-03 2.26858E-01-2.77209E-01-8.11955E-03 2.92090E-01-9.91437E-02-9.75747E-03 4.33911E-01-4.17666E-02 4.65459E+00-2.79640E+01-4.52589E+01



 n o d a l   p r i n t   o u t   f o r   t i m e  s t e p    8401                              ( at time 4.1995797E+00 )

 nodal point  x-rot      y-rot       z-rot       x-rot vel   y-rot vel   z-rot vel   x-rot acc   y-rot acc   z-rot acc
    22626 -1.37486E-03-5.38469E-05-2.62743E-04-1.40429E-03-3.24554E-05-2.37802E-04-1.84055E-03-9.58438E-05-2.38058E-04



 n o d a l   p r i n t   o u t   f o r   t i m e  s t e p    8601                              ( at time 4.2995697E+00 )

 nodal point  x-disp     y-disp      z-disp      x-vel       y-vel       z-vel      x-accl      y-accl      z-accl      x-coor      y-coor      z-coor
    22626 -5.67788E-03 2.58363E-01-2.87262E-01-1.02574E-02 3.38008E-01-1.01732E-01-2.13803E-02 4.59222E-01-2.58841E-02 4.65370E+00-2.79325E+01-4.52690E+01



 n o d a l   p r i n t   o u t   f o r   t i m e  s t e p    8601                              ( at time 4.2995697E+00 )

 nodal point  x-rot      y-rot       z-rot       x-rot vel   y-rot vel   z-rot vel   x-rot acc   y-rot acc   z-rot acc
    22626 -1.52495E-03-5.70960E-05-2.87388E-04-1.60111E-03-2.96028E-05-2.49739E-04-1.96840E-03 2.85289E-05-1.19382E-04



 n o d a l   p r i n t   o u t   f o r   t i m e  s t e p    8801                              ( at time 4.3995597E+00 )

 nodal point  x-disp     y-disp      z-disp      x-vel       y-vel       z-vel      x-accl      y-accl      z-accl      x-coor      y-coor      z-coor
    22626 -6.69767E-03 2.94546E-01-2.97524E-01-1.02164E-02 3.85817E-01-1.03848E-01 4.09777E-04 4.78147E-01-2.11591E-02 4.65268E+00-2.78963E+01-4.52792E+01



 n o d a l   p r i n t   o u t   f o r   t i m e  s t e p    8801                              ( at time 4.3995597E+00 )

 nodal point  x-rot      y-rot       z-rot       x-rot vel   y-rot vel   z-rot vel   x-rot acc   y-rot acc   z-rot acc
    22626 -1.69579E-03-5.97241E-05-3.12712E-04-1.81800E-03-2.83037E-05-2.58619E-04-2.16912E-03 1.29915E-05-8.88091E-05



 n o d a l   p r i n t   o u t   f o r   t i m e  s t e p    9001                              ( at time 4.4995497E+00 )

 nodal point  x-disp     y-disp      z-disp      x-vel       y-vel       z-vel      x-accl      y-accl      z-accl      x-coor      y-coor      z-coor
    22626 -7.71180E-03 3.35707E-01-3.08091E-01-1.00050E-02 4.37975E-01-1.07933E-01 2.11423E-03 5.21623E-01-4.08605E-02 4.65166E+00-2.78551E+01-4.52898E+01



 n o d a l   p r i n t   o u t   f o r   t i m e  s t e p    9001                              ( at time 4.4995497E+00 )

 nodal point  x-rot      y-rot       z-rot       x-rot vel   y-rot vel   z-rot vel   x-rot acc   y-rot acc   z-rot acc
    22626 -1.88980E-03-6.32486E-05-3.38639E-04-2.05569E-03-3.61686E-05-2.59727E-04-2.37709E-03-7.86567E-05-1.10853E-05



 n o d a l   p r i n t   o u t   f o r   t i m e  s t e p    9201                              ( at time 4.5995397E+00 )

 nodal point  x-disp     y-disp      z-disp      x-vel       y-vel       z-vel      x-accl      y-accl      z-accl      x-coor      y-coor      z-coor
    22626 -8.73430E-03 3.82188E-01-3.19115E-01-9.81813E-03 4.90884E-01-1.12456E-01 1.86870E-03 5.29148E-01-4.52364E-02 4.65064E+00-2.78086E+01-4.53008E+01



 n o d a l   p r i n t   o u t   f o r   t i m e  s t e p    9201                              ( at time 4.5995397E+00 )

 nodal point  x-rot      y-rot       z-rot       x-rot vel   y-rot vel   z-rot vel   x-rot acc   y-rot acc   z-rot acc
    22626 -2.10755E-03-6.81259E-05-3.65720E-04-2.30993E-03-6.43923E-05-2.81352E-04-2.54266E-03-2.82266E-04-2.16269E-04



 n o d a l   p r i n t   o u t   f o r   t i m e  s t e p    9401                              ( at time 4.6995297E+00 )

 nodal point  x-disp     y-disp      z-disp      x-vel       y-vel       z-vel      x-accl      y-accl      z-accl      x-coor      y-coor      z-coor
    22626 -9.69433E-03 4.34040E-01-3.30484E-01-9.79683E-03 5.46289E-01-1.15646E-01 2.13024E-04 5.54104E-01-3.19014E-02 4.64968E+00-2.77568E+01-4.53122E+01



 n o d a l   p r i n t   o u t   f o r   t i m e  s t e p    9401                              ( at time 4.6995297E+00 )

 nodal point  x-rot      y-rot       z-rot       x-rot vel   y-rot vel   z-rot vel   x-rot acc   y-rot acc   z-rot acc
    22626 -2.35185E-03-7.46693E-05-3.93894E-04-2.58676E-03-6.43535E-05-2.75281E-04-2.76864E-03 3.88139E-07 6.07164E-05



 n o d a l   p r i n t   o u t   f o r   t i m e  s t e p    9601                              ( at time 4.7995197E+00 )

 nodal point  x-disp     y-disp      z-disp      x-vel       y-vel       z-vel      x-accl      y-accl      z-accl      x-coor      y-coor      z-coor
    22626 -1.06582E-02 4.91525E-01-3.42203E-01-9.57034E-03 6.03378E-01-1.17821E-01 2.26519E-03 5.70943E-01-2.17519E-02 4.64872E+00-2.76993E+01-4.53239E+01



 n o d a l   p r i n t   o u t   f o r   t i m e  s t e p    9601                              ( at time 4.7995197E+00 )

 nodal point  x-rot      y-rot       z-rot       x-rot vel   y-rot vel   z-rot vel   x-rot acc   y-rot acc   z-rot acc
    22626 -2.62506E-03-7.98512E-05-4.20622E-04-2.87139E-03-5.30395E-05-2.66175E-04-2.84659E-03 1.13152E-04 9.10704E-05



 n o d a l   p r i n t   o u t   f o r   t i m e  s t e p    9801                              ( at time 4.8995097E+00 )

 nodal point  x-disp     y-disp      z-disp      x-vel       y-vel       z-vel      x-accl      y-accl      z-accl      x-coor      y-coor      z-coor
    22626 -1.16061E-02 5.54755E-01-3.54155E-01-9.63267E-03 6.61973E-01-1.21877E-01-6.23444E-04 5.86012E-01-4.05636E-02 4.64777E+00-2.76361E+01-4.53359E+01



 n o d a l   p r i n t   o u t   f o r   t i m e  s t e p    9801                              ( at time 4.8995097E+00 )

 nodal point  x-rot      y-rot       z-rot       x-rot vel   y-rot vel   z-rot vel   x-rot acc   y-rot acc   z-rot acc
    22626 -2.92628E-03-8.58662E-05-4.47589E-04-3.15679E-03-5.92166E-05-2.73894E-04-2.85430E-03-6.17777E-05-7.71996E-05



 n o d a l   p r i n t   o u t   f o r   t i m e  s t e p   10001                              ( at time 4.9994997E+00 )

 nodal point  x-disp     y-disp      z-disp      x-vel       y-vel       z-vel      x-accl      y-accl      z-accl      x-coor      y-coor      z-coor
    22626 -1.26299E-02 6.23926E-01-3.66579E-01-1.03479E-02 7.21454E-01-1.25856E-01-7.15263E-03 5.94868E-01-3.97933E-02 4.64675E+00-2.75669E+01-4.53483E+01



 n o d a l   p r i n t   o u t   f o r   t i m e  s t e p   10001                              ( at time 4.9994997E+00 )

 nodal point  x-rot      y-rot       z-rot       x-rot vel   y-rot vel   z-rot vel   x-rot acc   y-rot acc   z-rot acc
    22626 -3.25600E-03-9.20526E-05-4.74544E-04-3.44416E-03-5.65980E-05-2.67873E-04-2.87389E-03 2.61888E-05 6.02114E-05



 n o d a l   p r i n t   o u t   f o r   t i m e  s t e p   10202                              ( at time 5.0999896E+00 )

 nodal point  x-disp     y-disp      z-disp      x-vel       y-vel       z-vel      x-accl      y-accl      z-accl      x-coor      y-coor      z-coor
    22626 -1.36234E-02 6.99506E-01-3.79317E-01-9.64236E-03 7.82559E-01-1.27741E-01 7.02067E-03 6.08072E-01-1.87537E-02 4.64575E+00-2.74913E+01-4.53610E+01



 n o d a l   p r i n t   o u t   f o r   t i m e  s t e p   10202                              ( at time 5.0999896E+00 )

 nodal point  x-rot      y-rot       z-rot       x-rot vel   y-rot vel   z-rot vel   x-rot acc   y-rot acc   z-rot acc
    22626 -3.61846E-03-9.75483E-05-5.00404E-04-3.77137E-03-4.48652E-05-2.52282E-04-3.25621E-03 1.16756E-04 1.55156E-04



 n o d a l   p r i n t   o u t   f o r   t i m e  s t e p   10402                              ( at time 5.1999796E+00 )

 nodal point  x-disp     y-disp      z-disp      x-vel       y-vel       z-vel      x-accl      y-accl      z-accl      x-coor      y-coor      z-coor
    22626 -1.45389E-02 7.80788E-01-3.92136E-01-9.66208E-03 8.42856E-01-1.28766E-01-1.97161E-04 6.03029E-01-1.02586E-02 4.64484E+00-2.74100E+01-4.53739E+01



 n o d a l   p r i n t   o u t   f o r   t i m e  s t e p   10402                              ( at time 5.1999796E+00 )

 nodal point  x-rot      y-rot       z-rot       x-rot vel   y-rot vel   z-rot vel   x-rot acc   y-rot acc   z-rot acc
    22626 -4.01020E-03-1.02134E-04-5.25261E-04-4.06205E-03-4.78760E-05-2.47134E-04-2.90709E-03-3.01107E-05 5.14821E-05



 n o d a l   p r i n t   o u t   f o r   t i m e  s t e p   10602                              ( at time 5.2999696E+00 )

 nodal point  x-disp     y-disp      z-disp      x-vel       y-vel       z-vel      x-accl      y-accl      z-accl      x-coor      y-coor      z-coor
    22626 -1.55335E-02 8.68066E-01-4.05077E-01-1.01975E-02 9.02853E-01-1.29656E-01-5.35497E-03 6.00034E-01-8.89987E-03 4.64384E+00-2.73228E+01-4.53868E+01



 n o d a l   p r i n t   o u t   f o r   t i m e  s t e p   10602                              ( at time 5.2999696E+00 )

 nodal point  x-rot      y-rot       z-rot       x-rot vel   y-rot vel   z-rot vel   x-rot acc   y-rot acc   z-rot acc
    22626 -4.43267E-03-1.07773E-04-5.50867E-04-4.37232E-03-5.70903E-05-2.58431E-04-3.10295E-03-9.21531E-05-1.12983E-04



 n o d a l   p r i n t   o u t   f o r   t i m e  s t e p   10802                              ( at time 5.3999596E+00 )

 nodal point  x-disp     y-disp      z-disp      x-vel       y-vel       z-vel      x-accl      y-accl      z-accl      x-coor      y-coor      z-coor
    22626 -1.65168E-02 9.61390E-01-4.18101E-01-9.35649E-03 9.63294E-01-1.30530E-01 8.41110E-03 6.04468E-01-8.73654E-03 4.64286E+00-2.72294E+01-4.53998E+01



 n o d a l   p r i n t   o u t   f o r   t i m e  s t e p   10802                              ( at time 5.3999596E+00 )

 nodal point  x-rot      y-rot       z-rot       x-rot vel   y-rot vel   z-rot vel   x-rot acc   y-rot acc   z-rot acc
    22626 -4.88776E-03-1.13243E-04-5.75655E-04-4.70219E-03-4.38086E-05-2.35781E-04-3.29905E-03 1.32830E-04 2.26523E-04



 n o d a l   p r i n t   o u t   f o r   t i m e  s t e p   11002                              ( at time 5.4999496E+00 )

 nodal point  x-disp     y-disp      z-disp      x-vel       y-vel       z-vel      x-accl      y-accl      z-accl      x-coor      y-coor      z-coor
    22626 -1.74007E-02 1.06074E+00-4.31098E-01-8.61508E-03 1.02285E+00-1.29763E-01 7.41487E-03 5.95585E-01 7.66593E-03 4.64197E+00-2.71301E+01-4.54128E+01



 n o d a l   p r i n t   o u t   f o r   t i m e  s t e p   11002                              ( at time 5.4999496E+00 )

 nodal point  x-rot      y-rot       z-rot       x-rot vel   y-rot vel   z-rot vel   x-rot acc   y-rot acc   z-rot acc
    22626 -5.37297E-03-1.17644E-04-5.99230E-04-5.00392E-03-4.52756E-05-2.36901E-04-3.01768E-03-1.46710E-05-1.12026E-05



 n o d a l   p r i n t   o u t   f o r   t i m e  s t e p   11202                              ( at time 5.5999396E+00 )

 nodal point  x-disp     y-disp      z-disp      x-vel       y-vel       z-vel      x-accl      y-accl      z-accl      x-coor      y-coor      z-coor
    22626 -1.83221E-02 1.16597E+00-4.43900E-01-9.87912E-03 1.08167E+00-1.26150E-01-1.26416E-02 5.88313E-01 3.61336E-02 4.64105E+00-2.70249E+01-4.54256E+01



 n o d a l   p r i n t   o u t   f o r   t i m e  s t e p   11202                              ( at time 5.5999396E+00 )

 nodal point  x-rot      y-rot       z-rot       x-rot vel   y-rot vel   z-rot vel   x-rot acc   y-rot acc   z-rot acc
    22626 -5.88910E-03-1.21934E-04-6.22605E-04-5.31101E-03-3.86350E-05-2.24761E-04-3.07113E-03 6.64128E-05 1.21414E-04



 n o d a l   p r i n t   o u t   f o r   t i m e  s t e p   11402                              ( at time 5.6999296E+00 )

 nodal point  x-disp     y-disp      z-disp      x-vel       y-vel       z-vel      x-accl      y-accl      z-accl      x-coor      y-coor      z-coor
    22626 -1.92546E-02 1.27702E+00-4.56280E-01-9.00933E-03 1.13953E+00-1.21205E-01 8.69866E-03 5.78640E-01 4.94539E-02 4.64012E+00-2.69138E+01-4.54380E+01



 n o d a l   p r i n t   o u t   f o r   t i m e  s t e p   11402                              ( at time 5.6999296E+00 )

 nodal point  x-rot      y-rot       z-rot       x-rot vel   y-rot vel   z-rot vel   x-rot acc   y-rot acc   z-rot acc
    22626 -6.43535E-03-1.25356E-04-6.44755E-04-5.61069E-03-2.44373E-05-1.98359E-04-2.99712E-03 1.41990E-04 2.64049E-04



 n o d a l   p r i n t   o u t   f o r   t i m e  s t e p   11602                              ( at time 5.7999195E+00 )

 nodal point  x-disp     y-disp      z-disp      x-vel       y-vel       z-vel      x-accl      y-accl      z-accl      x-coor      y-coor      z-coor
    22626 -2.01980E-02 1.39384E+00-4.68103E-01-9.31120E-03 1.19696E+00-1.14981E-01-3.01901E-03 5.74356E-01 6.22467E-02 4.63918E+00-2.67970E+01-4.54498E+01



 n o d a l   p r i n t   o u t   f o r   t i m e  s t e p   11602                              ( at time 5.7999195E+00 )

 nodal point  x-rot      y-rot       z-rot       x-rot vel   y-rot vel   z-rot vel   x-rot acc   y-rot acc   z-rot acc
    22626 -7.01144E-03-1.26119E-04-6.64356E-04-5.89558E-03 7.73685E-06-1.90351E-04-2.84922E-03 3.21774E-04 8.00896E-05



 n o d a l   p r i n t   o u t   f o r   t i m e  s t e p   11802                              ( at time 5.8999095E+00 )

 nodal point  x-disp     y-disp      z-disp      x-vel       y-vel       z-vel      x-accl      y-accl      z-accl      x-coor      y-coor      z-coor
    22626 -2.11518E-02 1.51634E+00-4.79353E-01-1.02433E-02 1.25274E+00-1.09270E-01-9.32201E-03 5.57821E-01 5.71219E-02 4.63822E+00-2.66745E+01-4.54611E+01



 n o d a l   p r i n t   o u t   f o r   t i m e  s t e p   11802                              ( at time 5.8999095E+00 )

 nodal point  x-rot      y-rot       z-rot       x-rot vel   y-rot vel   z-rot vel   x-rot acc   y-rot acc   z-rot acc
    22626 -7.61729E-03-1.25657E-04-6.83234E-04-6.20534E-03 3.91709E-06-1.81542E-04-3.09788E-03-3.82015E-05 8.80934E-05



 n o d a l   p r i n t   o u t   f o r   t i m e  s t e p   12002                              ( at time 5.9998995E+00 )

 nodal point  x-disp     y-disp      z-disp      x-vel       y-vel       z-vel      x-accl      y-accl      z-accl      x-coor      y-coor      z-coor
    22626 -2.22244E-02 1.64446E+00-4.89928E-01-1.06629E-02 1.30883E+00-1.01801E-01-4.19654E-03 5.60994E-01 7.46982E-02 4.63715E+00-2.65464E+01-4.54716E+01



 n o d a l   p r i n t   o u t   f o r   t i m e  s t e p   12002                              ( at time 5.9998995E+00 )

 nodal point  x-rot      y-rot       z-rot       x-rot vel   y-rot vel   z-rot vel   x-rot acc   y-rot acc   z-rot acc
    22626 -8.25100E-03-1.23824E-04-6.99706E-04-6.46642E-03 3.72201E-05-1.52397E-04-2.61105E-03 3.33064E-04 2.91482E-04



 n o d a l   p r i n t   o u t   f o r   t i m e  s t e p   12202                              ( at time 6.0998895E+00 )

 nodal point  x-disp     y-disp      z-disp      x-vel       y-vel       z-vel      x-accl      y-accl      z-accl      x-coor      y-coor      z-coor
    22626 -2.32655E-02 1.77806E+00-4.99645E-01-9.93844E-03 1.36350E+00-9.21032E-02 7.24548E-03 5.46755E-01 9.69842E-02 4.63611E+00-2.64128E+01-4.54814E+01



 n o d a l   p r i n t   o u t   f o r   t i m e  s t e p   12202                              ( at time 6.0998895E+00 )

 nodal point  x-rot      y-rot       z-rot       x-rot vel   y-rot vel   z-rot vel   x-rot acc   y-rot acc   z-rot acc
    22626 -8.91037E-03-1.19690E-04-7.14141E-04-6.72469E-03 3.99051E-05-1.40836E-04-2.58301E-03 2.68532E-05 1.15626E-04



 n o d a l   p r i n t   o u t   f o r   t i m e  s t e p   12402                              ( at time 6.1998795E+00 )

 nodal point  x-disp     y-disp      z-disp      x-vel       y-vel       z-vel      x-accl      y-accl      z-accl      x-coor      y-coor      z-coor
    22626 -2.42100E-02 1.91706E+00-5.08445E-01-9.42205E-03 1.41643E+00-8.40158E-02 5.16445E-03 5.29393E-01 8.08829E-02 4.63516E+00-2.62738E+01-4.54902E+01



 n o d a l   p r i n t   o u t   f o r   t i m e  s t e p   12402                              ( at time 6.1998795E+00 )

 nodal point  x-rot      y-rot       z-rot       x-rot vel   y-rot vel   z-rot vel   x-rot acc   y-rot acc   z-rot acc
    22626 -9.59616E-03-1.15284E-04-7.26994E-04-6.97991E-03 4.58123E-05-1.16598E-04-2.55240E-03 5.90780E-05 2.42403E-04



 n o d a l   p r i n t   o u t   f o r   t i m e  s t e p   12602                              ( at time 6.2998695E+00 )

 nodal point  x-disp     y-disp      z-disp      x-vel       y-vel       z-vel      x-accl      y-accl      z-accl      x-coor      y-coor      z-coor
    22626 -2.51654E-02 2.06136E+00-5.16385E-01-9.59573E-03 1.46932E+00-7.41470E-02-1.73701E-03 5.28953E-01 9.86974E-02 4.63421E+00-2.61295E+01-4.54981E+01



 n o d a l   p r i n t   o u t   f o r   t i m e  s t e p   12602                              ( at time 6.2998695E+00 )

 nodal point  x-rot      y-rot       z-rot       x-rot vel   y-rot vel   z-rot vel   x-rot acc   y-rot acc   z-rot acc
    22626 -1.03046E-02-1.10018E-04-7.37595E-04-7.18109E-03 5.55529E-05-1.02858E-04-2.01197E-03 9.74149E-05 1.37406E-04



 n o d a l   p r i n t   o u t   f o r   t i m e  s t e p   12802                              ( at time 6.3998595E+00 )

 nodal point  x-disp     y-disp      z-disp      x-vel       y-vel       z-vel      x-accl      y-accl      z-accl      x-coor      y-coor      z-coor
    22626 -2.61077E-02 2.21079E+00-5.23246E-01-9.30934E-03 1.51875E+00-6.28596E-02 2.86421E-03 4.94338E-01 1.12886E-01 4.63327E+00-2.59800E+01-4.55050E+01



 n o d a l   p r i n t   o u t   f o r   t i m e  s t e p   12802                              ( at time 6.3998595E+00 )

 nodal point  x-rot      y-rot       z-rot       x-rot vel   y-rot vel   z-rot vel   x-rot acc   y-rot acc   z-rot acc
    22626 -1.10341E-02-1.02982E-04-7.46670E-04-7.40011E-03 8.01808E-05-8.07225E-05-2.19047E-03 2.46305E-04 2.21382E-04



 n o d a l   p r i n t   o u t   f o r   t i m e  s t e p   13002                              ( at time 6.4998495E+00 )

 nodal point  x-disp     y-disp      z-disp      x-vel       y-vel       z-vel      x-accl      y-accl      z-accl      x-coor      y-coor      z-coor
    22626 -2.70483E-02 2.36525E+00-5.28877E-01-8.99880E-03 1.56925E+00-5.03213E-02 3.10570E-03 5.05014E-01 1.25395E-01 4.63233E+00-2.58256E+01-4.55106E+01



 n o d a l   p r i n t   o u t   f o r   t i m e  s t e p   13002                              ( at time 6.4998495E+00 )

 nodal point  x-rot      y-rot       z-rot       x-rot vel   y-rot vel   z-rot vel   x-rot acc   y-rot acc   z-rot acc
    22626 -1.17827E-02-9.46526E-05-7.53562E-04-7.57016E-03 8.27557E-05-7.28726E-05-1.70071E-03 2.57511E-05 7.85069E-05



 n o d a l   p r i n t   o u t   f o r   t i m e  s t e p   13202                              ( at time 6.5998395E+00 )

 nodal point  x-disp     y-disp      z-disp      x-vel       y-vel       z-vel      x-accl      y-accl      z-accl      x-coor      y-coor      z-coor
    22626 -2.79516E-02 2.52459E+00-5.33185E-01-8.66173E-03 1.61613E+00-3.61394E-02 3.37103E-03 4.68812E-01 1.41833E-01 4.63142E+00-2.56662E+01-4.55149E+01



 n o d a l   p r i n t   o u t   f o r   t i m e  s t e p   13202                              ( at time 6.5998395E+00 )

 nodal point  x-rot      y-rot       z-rot       x-rot vel   y-rot vel   z-rot vel   x-rot acc   y-rot acc   z-rot acc
    22626 -1.25469E-02-8.64481E-05-7.59282E-04-7.71392E-03 8.07866E-05-4.69947E-05-1.43768E-03-1.96923E-05 2.58804E-04



 n o d a l   p r i n t   o u t   f o r   t i m e  s t e p   13402                              ( at time 6.6998295E+00 )

 nodal point  x-disp     y-disp      z-disp      x-vel       y-vel       z-vel      x-accl      y-accl      z-accl      x-coor      y-coor      z-coor
    22626 -2.87732E-02 2.68859E+00-5.36108E-01-8.30332E-03 1.66401E+00-2.24417E-02 3.58449E-03 4.78876E-01 1.36991E-01 4.63060E+00-2.55022E+01-4.55178E+01



 n o d a l   p r i n t   o u t   f o r   t i m e  s t e p   13402                              ( at time 6.6998295E+00 )

 nodal point  x-rot      y-rot       z-rot       x-rot vel   y-rot vel   z-rot vel   x-rot acc   y-rot acc   z-rot acc
    22626 -1.33254E-02-7.67392E-05-7.63148E-04-7.83894E-03 9.47245E-05-3.76968E-05-1.25032E-03 1.39392E-04 9.29883E-05



 n o d a l   p r i n t   o u t   f o r   t i m e  s t e p   13602                              ( at time 6.7998195E+00 )

 nodal point  x-disp     y-disp      z-disp      x-vel       y-vel       z-vel      x-accl      y-accl      z-accl      x-coor      y-coor      z-coor
    22626 -2.95124E-02 2.85719E+00-5.37648E-01-6.82166E-03 1.70740E+00-7.69571E-03 1.48181E-02 4.33997E-01 1.47475E-01 4.62986E+00-2.53336E+01-4.55194E+01



 n o d a l   p r i n t   o u t   f o r   t i m e  s t e p   13602                              ( at time 6.7998195E+00 )

 nodal point  x-rot      y-rot       z-rot       x-rot vel   y-rot vel   z-rot vel   x-rot acc   y-rot acc   z-rot acc
    22626 -1.41152E-02-6.79842E-05-7.66516E-04-7.94528E-03 8.13842E-05-2.93217E-05-1.06353E-03-1.33416E-04 8.37599E-05



 n o d a l   p r i n t   o u t   f o r   t i m e  s t e p   13802                              ( at time 6.8998095E+00 )

 nodal point  x-disp     y-disp      z-disp      x-vel       y-vel       z-vel      x-accl      y-accl      z-accl      x-coor      y-coor      z-coor
    22626 -3.02077E-02 3.03007E+00-5.37624E-01-7.04209E-03 1.74954E+00 8.97629E-03-2.20452E-03 4.21359E-01 1.66737E-01 4.62917E+00-2.51608E+01-4.55193E+01



 n o d a l   p r i n t   o u t   f o r   t i m e  s t e p   13802                              ( at time 6.8998095E+00 )

 nodal point  x-rot      y-rot       z-rot       x-rot vel   y-rot vel   z-rot vel   x-rot acc   y-rot acc   z-rot acc
    22626 -1.49146E-02-5.96606E-05-7.68063E-04-8.02935E-03 8.94480E-05-6.18970E-06-8.40836E-04 8.06456E-05 2.31343E-04



 n o d a l   p r i n t   o u t   f o r   t i m e  s t e p   14002                              ( at time 6.9997995E+00 )

 nodal point  x-disp     y-disp      z-disp      x-vel       y-vel       z-vel      x-accl      y-accl      z-accl      x-coor      y-coor      z-coor
    22626 -3.08673E-02 3.20701E+00-5.35793E-01-6.15438E-03 1.78944E+00 2.77615E-02 8.87800E-03 3.99034E-01 1.87871E-01 4.62851E+00-2.49838E+01-4.55175E+01



 n o d a l   p r i n t   o u t   f o r   t i m e  s t e p   14002                              ( at time 6.9997995E+00 )

 nodal point  x-rot      y-rot       z-rot       x-rot vel   y-rot vel   z-rot vel   x-rot acc   y-rot acc   z-rot acc
    22626 -1.57209E-02-5.07327E-05-7.68740E-04-8.08383E-03 9.68494E-05-7.14256E-06-5.44842E-04 7.40217E-05-9.52953E-06



 n o d a l   p r i n t   o u t   f o r   t i m e  s t e p   14202                              ( at time 7.0997895E+00 )

 nodal point  x-disp     y-disp      z-disp      x-vel       y-vel       z-vel      x-accl      y-accl      z-accl      x-coor      y-coor      z-coor
    22626 -3.14605E-02 3.38785E+00-5.32047E-01-6.03956E-03 1.82645E+00 4.70001E-02 1.14831E-03 3.70144E-01 1.92404E-01 4.62791E+00-2.48030E+01-4.55138E+01



 n o d a l   p r i n t   o u t   f o r   t i m e  s t e p   14202                              ( at time 7.0997895E+00 )

 nodal point  x-rot      y-rot       z-rot       x-rot vel   y-rot vel   z-rot vel   x-rot acc   y-rot acc   z-rot acc
    22626 -1.65318E-02-4.09691E-05-7.68286E-04-8.13471E-03 1.02237E-04 1.16427E-05-5.08858E-04 5.38785E-05 1.87871E-04



 n o d a l   p r i n t   o u t   f o r   t i m e  s t e p   14402                              ( at time 7.1997794E+00 )

 nodal point  x-disp     y-disp      z-disp      x-vel       y-vel       z-vel      x-accl      y-accl      z-accl      x-coor      y-coor      z-coor
    22626 -3.21009E-02 3.57224E+00-5.26174E-01-6.21906E-03 1.86204E+00 7.06080E-02-1.79520E-03 3.55996E-01 2.36102E-01 4.62727E+00-2.46186E+01-4.55079E+01



 n o d a l   p r i n t   o u t   f o r   t i m e  s t e p   14402                              ( at time 7.1997794E+00 )

 nodal point  x-rot      y-rot       z-rot       x-rot vel   y-rot vel   z-rot vel   x-rot acc   y-rot acc   z-rot acc
    22626 -1.73462E-02-3.09552E-05-7.66141E-04-8.14373E-03 9.65432E-05 2.86386E-05-9.01984E-05-5.69411E-05 1.69976E-04



 n o d a l   p r i n t   o u t   f o r   t i m e  s t e p   14602                              ( at time 7.2997694E+00 )

 nodal point  x-disp     y-disp      z-disp      x-vel       y-vel       z-vel      x-accl      y-accl      z-accl      x-coor      y-coor      z-coor
    22626 -3.25875E-02 3.76011E+00-5.17843E-01-3.37986E-03 1.89497E+00 9.67187E-02 2.83949E-02 3.29322E-01 2.61134E-01 4.62679E+00-2.44307E+01-4.54996E+01



 n o d a l   p r i n t   o u t   f o r   t i m e  s t e p   14602                              ( at time 7.2997694E+00 )

 nodal point  x-rot      y-rot       z-rot       x-rot vel   y-rot vel   z-rot vel   x-rot acc   y-rot acc   z-rot acc
    22626 -1.81616E-02-2.25559E-05-7.63570E-04-8.15548E-03 8.19013E-05 4.01875E-05-1.17508E-04-1.46433E-04 1.15500E-04



 n o d a l   p r i n t   o u t   f o r   t i m e  s t e p   14802                              ( at time 7.3997594E+00 )

 nodal point  x-disp     y-disp      z-disp      x-vel       y-vel       z-vel      x-accl      y-accl      z-accl      x-coor      y-coor      z-coor
    22626 -3.28679E-02 3.95105E+00-5.06759E-01-2.24586E-03 1.92448E+00 1.25536E-01 1.13412E-02 2.95101E-01 2.88207E-01 4.62651E+00-2.42398E+01-4.54885E+01



 n o d a l   p r i n t   o u t   f o r   t i m e  s t e p   14802                              ( at time 7.3997594E+00 )

 nodal point  x-rot      y-rot       z-rot       x-rot vel   y-rot vel   z-rot vel   x-rot acc   y-rot acc   z-rot acc
    22626 -1.89775E-02-1.49125E-05-7.59005E-04-8.14693E-03 6.82399E-05 5.45029E-05 8.55227E-05-1.36628E-04 1.43168E-04



 n o d a l   p r i n t   o u t   f o r   t i m e  s t e p   15002                              ( at time 7.4997494E+00 )

 nodal point  x-disp     y-disp      z-disp      x-vel       y-vel       z-vel      x-accl      y-accl      z-accl      x-coor      y-coor      z-coor
    22626 -3.31028E-02 4.14480E+00-4.92791E-01-2.36993E-03 1.94989E+00 1.56205E-01-1.24080E-03 2.54162E-01 3.06713E-01 4.62627E+00-2.40460E+01-4.54745E+01



 n o d a l   p r i n t   o u t   f o r   t i m e  s t e p   15002                              ( at time 7.4997494E+00 )

 nodal point  x-rot      y-rot       z-rot       x-rot vel   y-rot vel   z-rot vel   x-rot acc   y-rot acc   z-rot acc
    22626 -1.97929E-02-9.02924E-06-7.55389E-04-8.10912E-03 5.22345E-05 3.82883E-05 3.78181E-04-1.60070E-04-1.62161E-04



 n o d a l   p r i n t   o u t   f o r   t i m e  s t e p   15202                              ( at time 7.5997394E+00 )

 nodal point  x-disp     y-disp      z-disp      x-vel       y-vel       z-vel      x-accl      y-accl      z-accl      x-coor      y-coor      z-coor
    22626 -3.32802E-02 4.34095E+00-4.75637E-01-1.30852E-03 1.97371E+00 1.88022E-01 1.06152E-02 2.38167E-01 3.18207E-01 4.62609E+00-2.38499E+01-4.54574E+01



 n o d a l   p r i n t   o u t   f o r   t i m e  s t e p   15202                              ( at time 7.5997394E+00 )

 nodal point  x-rot      y-rot       z-rot       x-rot vel   y-rot vel   z-rot vel   x-rot acc   y-rot acc   z-rot acc
    22626 -2.06061E-02-2.90612E-06-7.50402E-04-8.10603E-03 6.32035E-05 7.05326E-05 3.08485E-05 1.09701E-04 3.22475E-04



 n o d a l   p r i n t   o u t   f o r   t i m e  s t e p   15402                              ( at time 7.6997294E+00 )

 nodal point  x-disp     y-disp      z-disp      x-vel       y-vel       z-vel      x-accl      y-accl      z-accl      x-coor      y-coor      z-coor
    22626 -3.33991E-02 4.53926E+00-4.55004E-01-1.54674E-03 1.99237E+00 2.25558E-01-2.38246E-03 1.86642E-01 3.75390E-01 4.62598E+00-2.36516E+01-4.54367E+01



 n o d a l   p r i n t   o u t   f o r   t i m e  s t e p   15402                              ( at time 7.6997294E+00 )

 nodal point  x-rot      y-rot       z-rot       x-rot vel   y-rot vel   z-rot vel   x-rot acc   y-rot acc   z-rot acc
    22626 -2.14178E-02 3.15588E-06-7.43409E-04-8.09564E-03 5.11846E-05 6.57611E-05 1.03918E-04-1.20201E-04-4.77198E-05



 n o d a l   p r i n t   o u t   f o r   t i m e  s t e p   15602                              ( at time 7.7997194E+00 )

 nodal point  x-disp     y-disp      z-disp      x-vel       y-vel       z-vel      x-accl      y-accl      z-accl      x-coor      y-coor      z-coor
    22626 -3.35284E-02 4.73942E+00-4.30571E-01-1.57539E-03 2.00971E+00 2.62484E-01-2.86527E-04 1.73385E-01 3.69303E-01 4.62585E+00-2.34514E+01-4.54123E+01



 n o d a l   p r i n t   o u t   f o r   t i m e  s t e p   15602                              ( at time 7.7997194E+00 )

 nodal point  x-rot      y-rot       z-rot       x-rot vel   y-rot vel   z-rot vel   x-rot acc   y-rot acc   z-rot acc
    22626 -2.22265E-02 9.25693E-06-7.36313E-04-8.04628E-03 7.74542E-05 8.04335E-05 4.93651E-04 2.62723E-04 1.46739E-04



 n o d a l   p r i n t   o u t   f o r   t i m e  s t e p   15802                              ( at time 7.8997094E+00 )

 nodal point  x-disp     y-disp      z-disp      x-vel       y-vel       z-vel      x-accl      y-accl      z-accl      x-coor      y-coor      z-coor
    22626 -3.36010E-02 4.94111E+00-4.02331E-01-7.93020E-04 2.02408E+00 3.02615E-01 7.82448E-03 1.43793E-01 4.01345E-01 4.62577E+00-2.32497E+01-4.53841E+01



 n o d a l   p r i n t   o u t   f o r   t i m e  s t e p   15802                              ( at time 7.8997094E+00 )

 nodal point  x-rot      y-rot       z-rot       x-rot vel   y-rot vel   z-rot vel   x-rot acc   y-rot acc   z-rot acc
    22626 -2.30287E-02 1.68534E-05-7.27199E-04-7.99499E-03 7.62762E-05 7.91146E-05 5.12950E-04-1.17807E-05-1.31907E-05



 n o d a l   p r i n t   o u t   f o r   t i m e  s t e p   16002                              ( at time 7.9996994E+00 )

 nodal point  x-disp     y-disp      z-disp      x-vel       y-vel       z-vel      x-accl      y-accl      z-accl      x-coor      y-coor      z-coor
    22626 -3.36293E-02 5.14412E+00-3.69829E-01-4.50500E-04 2.03450E+00 3.45672E-01 3.42552E-03 1.04146E-01 4.30612E-01 4.62575E+00-2.30467E+01-4.53516E+01



 n o d a l   p r i n t   o u t   f o r   t i m e  s t e p   16002                              ( at time 7.9996994E+00 )

 nodal point  x-rot      y-rot       z-rot       x-rot vel   y-rot vel   z-rot vel   x-rot acc   y-rot acc   z-rot acc
    22626 -2.38252E-02 2.32865E-05-7.18855E-04-7.91031E-03 6.23854E-05 8.75233E-05 8.46868E-04-1.38921E-04 8.40950E-05



 n o d a l   p r i n t   o u t   f o r   t i m e  s t e p   16202                              ( at time 8.0996894E+00 )

 nodal point  x-disp     y-disp      z-disp      x-vel       y-vel       z-vel      x-accl      y-accl      z-accl      x-coor      y-coor      z-coor
    22626 -3.36543E-02 5.34809E+00-3.33170E-01 3.06397E-04 2.04415E+00 3.89252E-01 7.56974E-03 9.65931E-02 4.35852E-01 4.62572E+00-2.28427E+01-4.53149E+01



 n o d a l   p r i n t   o u t   f o r   t i m e  s t e p   16202                              ( at time 8.0996894E+00 )

 nodal point  x-rot      y-rot       z-rot       x-rot vel   y-rot vel   z-rot vel   x-rot acc   y-rot acc   z-rot acc
    22626 -2.46143E-02 2.86930E-05-7.09083E-04-7.83451E-03 5.29286E-05 9.78934E-05 7.58145E-04-9.45779E-05 1.03712E-04



 n o d a l   p r i n t   o u t   f o r   t i m e  s t e p   16402                              ( at time 8.1996794E+00 )

 nodal point  x-disp     y-disp      z-disp      x-vel       y-vel       z-vel      x-accl      y-accl      z-accl      x-coor      y-coor      z-coor
    22626 -3.35588E-02 5.55257E+00-2.91818E-01 2.32011E-03 2.04662E+00 4.38238E-01 2.01391E-02 2.46860E-02 4.89909E-01 4.62582E+00-2.26383E+01-4.52735E+01



 n o d a l   p r i n t   o u t   f o r   t i m e  s t e p   16402                              ( at time 8.1996794E+00 )

 nodal point  x-rot      y-rot       z-rot       x-rot vel   y-rot vel   z-rot vel   x-rot acc   y-rot acc   z-rot acc
    22626 -2.53949E-02 3.26878E-05-6.99559E-04-7.72499E-03 3.78989E-05 9.99915E-05 1.09527E-03-1.50312E-04 2.09829E-05



 n o d a l   p r i n t   o u t   f o r   t i m e  s t e p   16602                              ( at time 8.2996694E+00 )

 nodal point  x-disp     y-disp      z-disp      x-vel       y-vel       z-vel      x-accl      y-accl      z-accl      x-coor      y-coor      z-coor
    22626 -3.33439E-02 5.75731E+00-2.45793E-01 2.00225E-03 2.04947E+00 4.84015E-01-3.17890E-03 2.84343E-02 4.57813E-01 4.62603E+00-2.24335E+01-4.52275E+01



 n o d a l   p r i n t   o u t   f o r   t i m e  s t e p   16602                              ( at time 8.2996694E+00 )

 nodal point  x-rot      y-rot       z-rot       x-rot vel   y-rot vel   z-rot vel   x-rot acc   y-rot acc   z-rot acc
    22626 -2.61639E-02 3.72105E-05-6.88451E-04-7.60299E-03 3.78658E-05 1.07903E-04 1.22009E-03-3.31563E-07 7.91227E-05



 n o d a l   p r i n t   o u t   f o r   t i m e  s t e p   16802                              ( at time 8.3996594E+00 )

 nodal point  x-disp     y-disp      z-disp      x-vel       y-vel       z-vel      x-accl      y-accl      z-accl      x-coor      y-coor      z-coor
    22626 -3.31242E-02 5.96216E+00-1.95005E-01 1.85973E-03 2.04897E+00 5.32948E-01-1.42532E-03-4.93338E-03 4.89383E-01 4.62625E+00-2.22287E+01-4.51767E+01



 n o d a l   p r i n t   o u t   f o r   t i m e  s t e p   16802                              ( at time 8.3996594E+00 )

 nodal point  x-rot      y-rot       z-rot       x-rot vel   y-rot vel   z-rot vel   x-rot acc   y-rot acc   z-rot acc
    22626 -2.69219E-02 4.01318E-05-6.77530E-04-7.49957E-03 2.85409E-05 1.06590E-04 1.03434E-03-9.32584E-05-1.31312E-05



 n o d a l   p r i n t   o u t   f o r   t i m e  s t e p   17002                              ( at time 8.4996494E+00 )

 nodal point  x-disp     y-disp      z-disp      x-vel       y-vel       z-vel      x-accl      y-accl      z-accl      x-coor      y-coor      z-coor
    22626 -3.29412E-02 6.16685E+00-1.39309E-01 2.10635E-03 2.04582E+00 5.81116E-01 2.46640E-03-3.15650E-02 4.81722E-01 4.62643E+00-2.20240E+01-4.51210E+01



 n o d a l   p r i n t   o u t   f o r   t i m e  s t e p   17002                              ( at time 8.4996494E+00 )

 nodal point  x-rot      y-rot       z-rot       x-rot vel   y-rot vel   z-rot vel   x-rot acc   y-rot acc   z-rot acc
    22626 -2.76657E-02 4.45158E-05-6.64047E-04-7.34771E-03 4.25607E-05 1.41065E-04 1.51874E-03 1.40212E-04 3.44788E-04



 n o d a l   p r i n t   o u t   f o r   t i m e  s t e p   17202                              ( at time 8.5996394E+00 )

 nodal point  x-disp     y-disp      z-disp      x-vel       y-vel       z-vel      x-accl      y-accl      z-accl      x-coor      y-coor      z-coor
    22626 -3.26183E-02 6.37132E+00-7.87151E-02 3.81427E-03 2.04366E+00 6.30782E-01 1.70809E-02-2.15671E-02 4.96711E-01 4.62676E+00-2.18195E+01-4.50604E+01



 n o d a l   p r i n t   o u t   f o r   t i m e  s t e p   17202                              ( at time 8.5996394E+00 )

 nodal point  x-rot      y-rot       z-rot       x-rot vel   y-rot vel   z-rot vel   x-rot acc   y-rot acc   z-rot acc
    22626 -2.83943E-02 4.79905E-05-6.50207E-04-7.21110E-03 3.57059E-05 1.43142E-04 1.36628E-03-6.85550E-05 2.07744E-05



 n o d a l   p r i n t   o u t   f o r   t i m e  s t e p   17402                              ( at time 8.6996293E+00 )

 nodal point  x-disp     y-disp      z-disp      x-vel       y-vel       z-vel      x-accl      y-accl      z-accl      x-coor      y-coor      z-coor
    22626 -3.22761E-02 6.57535E+00-1.30029E-02 3.90131E-03 2.03692E+00 6.82838E-01 8.70559E-04-6.74262E-02 5.20609E-01 4.62710E+00-2.16155E+01-4.49947E+01



 n o d a l   p r i n t   o u t   f o r   t i m e  s t e p   17402                              ( at time 8.6996293E+00 )

 nodal point  x-rot      y-rot       z-rot       x-rot vel   y-rot vel   z-rot vel   x-rot acc   y-rot acc   z-rot acc
    22626 -2.91084E-02 5.11832E-05-6.36116E-04-7.04005E-03 3.26389E-05 1.57651E-04 1.71064E-03-3.06723E-05 1.45094E-04



 n o d a l   p r i n t   o u t   f o r   t i m e  s t e p   17602                              ( at time 8.7996193E+00 )

 nodal point  x-disp     y-disp      z-disp      x-vel       y-vel       z-vel      x-accl      y-accl      z-accl      x-coor      y-coor      z-coor
    22626 -3.18404E-02 6.77874E+00 5.79039E-02 5.52432E-03 2.03043E+00 7.35614E-01 1.62317E-02-6.48946E-02 5.27809E-01 4.62753E+00-2.14121E+01-4.49238E+01



 n o d a l   p r i n t   o u t   f o r   t i m e  s t e p   17602                              ( at time 8.7996193E+00 )

 nodal point  x-rot      y-rot       z-rot       x-rot vel   y-rot vel   z-rot vel   x-rot acc   y-rot acc   z-rot acc
    22626 -2.98055E-02 5.35294E-05-6.21519E-04-6.87705E-03 2.15302E-05 1.50222E-04 1.63017E-03-1.11099E-04-7.42965E-05



 n o d a l   p r i n t   o u t   f o r   t i m e  s t e p   17802                              ( at time 8.8996093E+00 )

 nodal point  x-disp     y-disp      z-disp      x-vel       y-vel       z-vel      x-accl      y-accl      z-accl      x-coor      y-coor      z-coor
    22626 -3.12840E-02 6.98141E+00 1.34075E-01 6.07160E-03 2.02344E+00 7.87818E-01 5.47338E-03-6.99186E-02 5.22096E-01 4.62809E+00-2.12094E+01-4.48476E+01



 n o d a l   p r i n t   o u t   f o r   t i m e  s t e p   17802                              ( at time 8.8996093E+00 )

 nodal point  x-rot      y-rot       z-rot       x-rot vel   y-rot vel   z-rot vel   x-rot acc   y-rot acc   z-rot acc
    22626 -3.04878E-02 5.54374E-05-6.06772E-04-6.73093E-03 2.06714E-05 1.62748E-04 1.46133E-03-8.58885E-06 1.25276E-04



 n o d a l   p r i n t   o u t   f o r   t i m e  s t e p   18002                              ( at time 8.9995993E+00 )

 nodal point  x-disp     y-disp      z-disp      x-vel       y-vel       z-vel      x-accl      y-accl      z-accl      x-coor      y-coor      z-coor
    22626 -3.06466E-02 7.18315E+00 2.15608E-01 6.58504E-03 2.01201E+00 8.43189E-01 5.13490E-03-1.14312E-01 5.53768E-01 4.62873E+00-2.10077E+01-4.47661E+01



 n o d a l   p r i n t   o u t   f o r   t i m e  s t e p   18002                              ( at time 8.9995993E+00 )

 nodal point  x-rot      y-rot       z-rot       x-rot vel   y-rot vel   z-rot vel   x-rot acc   y-rot acc   z-rot acc
    22626 -3.11532E-02 5.68771E-05-5.91213E-04-6.56537E-03 4.25811E-06 1.53780E-04 1.65574E-03-1.64149E-04-8.96898E-05



 n o d a l   p r i n t   o u t   f o r   t i m e  s t e p   18202                              ( at time 9.0995893E+00 )

 nodal point  x-disp     y-disp      z-disp      x-vel       y-vel       z-vel      x-accl      y-accl      z-accl      x-coor      y-coor      z-coor
    22626 -2.99416E-02 7.38378E+00 3.02690E-01 7.14671E-03 2.00169E+00 8.98041E-01 5.61727E-03-1.03224E-01 5.48576E-01 4.62943E+00-2.08071E+01-4.46790E+01



 n o d a l   p r i n t   o u t   f o r   t i m e  s t e p   18202                              ( at time 9.0995893E+00 )

 nodal point  x-rot      y-rot       z-rot       x-rot vel   y-rot vel   z-rot vel   x-rot acc   y-rot acc   z-rot acc
    22626 -3.18028E-02 5.72199E-05-5.76729E-04-6.44649E-03 1.54794E-05 1.47330E-04 1.18894E-03 1.12224E-04-6.45035E-05



 n o d a l   p r i n t   o u t   f o r   t i m e  s t e p   18402                              ( at time 9.1995793E+00 )

 nodal point  x-disp     y-disp      z-disp      x-vel       y-vel       z-vel      x-accl      y-accl      z-accl      x-coor      y-coor      z-coor
    22626 -2.91493E-02 7.58321E+00 3.95430E-01 8.80599E-03 1.98745E+00 9.57041E-01 1.65945E-02-1.42373E-01 5.90060E-01 4.63023E+00-2.06076E+01-4.45863E+01



 n o d a l   p r i n t   o u t   f o r   t i m e  s t e p   18402                              ( at time 9.1995793E+00 )

 nodal point  x-rot      y-rot       z-rot       x-rot vel   y-rot vel   z-rot vel   x-rot acc   y-rot acc   z-rot acc
    22626 -3.24414E-02 6.09732E-05-5.60431E-04-6.32966E-03 5.44307E-05 1.61136E-04 1.16843E-03 3.89553E-04 1.38070E-04



 n o d a l   p r i n t   o u t   f o r   t i m e  s t e p   18602                              ( at time 9.2995693E+00 )

 nodal point  x-disp     y-disp      z-disp      x-vel       y-vel       z-vel      x-accl      y-accl      z-accl      x-coor      y-coor      z-coor
    22626 -2.82141E-02 7.78137E+00 4.94000E-01 9.42389E-03 1.97478E+00 1.01381E+00 6.17962E-03-1.26735E-01 5.67778E-01 4.63116E+00-2.04095E+01-4.44877E+01



 n o d a l   p r i n t   o u t   f o r   t i m e  s t e p   18602                              ( at time 9.2995693E+00 )

 nodal point  x-rot      y-rot       z-rot       x-rot vel   y-rot vel   z-rot vel   x-rot acc   y-rot acc   z-rot acc
    22626 -3.30674E-02 6.46362E-05-5.43474E-04-6.20032E-03 1.44753E-05 1.58021E-04 1.29353E-03-3.99595E-04-3.11533E-05



 n o d a l   p r i n t   o u t   f o r   t i m e  s t e p   18802                              ( at time 9.3995593E+00 )

 nodal point  x-disp     y-disp      z-disp      x-vel       y-vel       z-vel      x-accl      y-accl      z-accl      x-coor      y-coor      z-coor
    22626 -2.72836E-02 7.97807E+00 5.98275E-01 9.42621E-03 1.96007E+00 1.07129E+00 2.32016E-05-1.47113E-01 5.74841E-01 4.63209E+00-2.02128E+01-4.43834E+01



 n o d a l   p r i n t   o u t   f o r   t i m e  s t e p   18802                              ( at time 9.3995593E+00 )

 nodal point  x-rot      y-rot       z-rot       x-rot vel   y-rot vel   z-rot vel   x-rot acc   y-rot acc   z-rot acc
    22626 -3.36810E-02 6.86640E-05-5.26291E-04-6.11028E-03 5.76723E-05 1.69354E-04 9.00498E-04 4.32014E-04 1.13348E-04



 n o d a l   p r i n t   o u t   f o r   t i m e  s t e p   19002                              ( at time 9.4995493E+00 )

 nodal point  x-disp     y-disp      z-disp      x-vel       y-vel       z-vel      x-accl      y-accl      z-accl      x-coor      y-coor      z-coor
    22626 -2.62110E-02 8.17330E+00 7.08414E-01 1.17196E-02 1.94469E+00 1.13094E+00 2.29358E-02-1.53853E-01 5.96518E-01 4.63316E+00-2.00175E+01-4.42733E+01



 n o d a l   p r i n t   o u t   f o r   t i m e  s t e p   19002                              ( at time 9.4995493E+00 )

 nodal point  x-rot      y-rot       z-rot       x-rot vel   y-rot vel   z-rot vel   x-rot acc   y-rot acc   z-rot acc
    22626 -3.42854E-02 7.45967E-05-5.09058E-04-6.02494E-03 5.10031E-05 1.57241E-04 8.53443E-04-6.66985E-05-1.21144E-04



 n o d a l   p r i n t   o u t   f o r   t i m e  s t e p   19202                              ( at time 9.5995393E+00 )

 nodal point  x-disp     y-disp      z-disp      x-vel       y-vel       z-vel      x-accl      y-accl      z-accl      x-coor      y-coor      z-coor
    22626 -2.50591E-02 8.36695E+00 8.24549E-01 1.15406E-02 1.93000E+00 1.18958E+00-1.78944E-03-1.46861E-01 5.86431E-01 4.63432E+00-1.98239E+01-4.41572E+01



 n o d a l   p r i n t   o u t   f o r   t i m e  s t e p   19202                              ( at time 9.5995393E+00 )

 nodal point  x-rot      y-rot       z-rot       x-rot vel   y-rot vel   z-rot vel   x-rot acc   y-rot acc   z-rot acc
    22626 -3.48799E-02 7.99211E-05-4.91272E-04-5.92519E-03 6.84207E-05 1.84309E-04 9.97617E-04 1.74192E-04 2.70705E-04



 n o d a l   p r i n t   o u t   f o r   t i m e  s t e p   19402                              ( at time 9.6995293E+00 )

 nodal point  x-disp     y-disp      z-disp      x-vel       y-vel       z-vel      x-accl      y-accl      z-accl      x-coor      y-coor      z-coor
    22626 -2.38181E-02 8.55906E+00 9.46389E-01 1.18835E-02 1.91279E+00 1.24643E+00 3.42874E-03-1.72086E-01 5.68574E-01 4.63556E+00-1.96318E+01-4.40353E+01



 n o d a l   p r i n t   o u t   f o r   t i m e  s t e p   19402                              ( at time 9.6995293E+00 )

 nodal point  x-rot      y-rot       z-rot       x-rot vel   y-rot vel   z-rot vel   x-rot acc   y-rot acc   z-rot acc
    22626 -3.54648E-02 8.71269E-05-4.73145E-04-5.81431E-03 8.69447E-05 1.72691E-04 1.10887E-03 1.85259E-04-1.16199E-04



 n o d a l   p r i n t   o u t   f o r   t i m e  s t e p   19602                              ( at time 9.7995193E+00 )

 nodal point  x-disp     y-disp      z-disp      x-vel       y-vel       z-vel      x-accl      y-accl      z-accl      x-coor      y-coor      z-coor
    22626 -2.25198E-02 8.74959E+00 1.07382E+00 1.34456E-02 1.89843E+00 1.30347E+00 1.56224E-02-1.43681E-01 5.70486E-01 4.63686E+00-1.94412E+01-4.39079E+01



 n o d a l   p r i n t   o u t   f o r   t i m e  s t e p   19602                              ( at time 9.7995193E+00 )

 nodal point  x-rot      y-rot       z-rot       x-rot vel   y-rot vel   z-rot vel   x-rot acc   y-rot acc   z-rot acc
    22626 -3.60405E-02 9.42782E-05-4.55777E-04-5.75357E-03 7.42127E-05 1.76469E-04 6.07531E-04-1.27333E-04 3.77877E-05



 n o d a l   p r i n t   o u t   f o r   t i m e  s t e p   19802                              ( at time 9.8995093E+00 )

 nodal point  x-disp     y-disp      z-disp      x-vel       y-vel       z-vel      x-accl      y-accl      z-accl      x-coor      y-coor      z-coor
    22626 -2.11097E-02 8.93848E+00 1.20717E+00 1.45875E-02 1.88159E+00 1.36170E+00 1.14206E-02-1.68389E-01 5.82344E-01 4.63827E+00-1.92524E+01-4.37745E+01



 n o d a l   p r i n t   o u t   f o r   t i m e  s t e p   19802                              ( at time 9.8995093E+00 )

 nodal point  x-rot      y-rot       z-rot       x-rot vel   y-rot vel   z-rot vel   x-rot acc   y-rot acc   z-rot acc
    22626 -3.66107E-02 1.01767E-04-4.37627E-04-5.69587E-03 8.50209E-05 1.80321E-04 5.77036E-04 1.08093E-04 3.85251E-05



 n o d a l   p r i n t   o u t   f o r   t i m e  s t e p   20003                              ( at time 9.9999992E+00 )

 nodal point  x-disp     y-disp      z-disp      x-vel       y-vel       z-vel      x-accl      y-accl      z-accl      x-coor      y-coor      z-coor
[...]
    22626 -2.37587E-01 3.00188E-04 4.35169E-04-2.79411E-02 3.69118E-05 2.78818E-04 1.70783E-04 7.82236E-05 8.22649E-05



 n o d a l   p r i n t   o u t   f o r   t i m e  s t e p   45205                              ( at time 2.2599738E+01 )

 nodal point  x-disp     y-disp      z-disp      x-vel       y-vel       z-vel      x-accl      y-accl      z-accl      x-coor      y-coor      z-coor
    22626  1.76139E-01 3.19777E+01 2.21006E+01 9.78153E-03 1.48043E+00 1.34356E+00 6.32528E-04-6.29936E-02 8.07025E-02 4.83551E+00 3.78684E+00-2.28811E+01



 n o d a l   p r i n t   o u t   f o r   t i m e  s t e p   45205                              ( at time 2.2599738E+01 )

 nodal point  x-rot      y-rot       z-rot       x-rot vel   y-rot vel   z-rot vel   x-rot acc   y-rot acc   z-rot acc
    22626 -2.40381E-01 3.03676E-04 4.63478E-04-2.79086E-02 2.95198E-05 2.88934E-04 3.24782E-04-7.39266E-05 1.01165E-04



 n o d a l   p r i n t   o u t   f o r   t i m e  s t e p   45405                              ( at time 2.2699728E+01 )

 nodal point  x-disp     y-disp      z-disp      x-vel       y-vel       z-vel      x-accl      y-accl      z-accl      x-coor      y-coor      z-coor
    22626  1.77132E-01 3.21254E+01 2.22355E+01 1.00175E-02 1.47528E+00 1.35238E+00 2.36033E-03-5.14731E-02 8.81936E-02 4.83651E+00 3.93461E+00-2.27463E+01



 n o d a l   p r i n t   o u t   f o r   t i m e  s t e p   45405                              ( at time 2.2699728E+01 )

 nodal point  x-rot      y-rot       z-rot       x-rot vel   y-rot vel   z-rot vel   x-rot acc   y-rot acc   z-rot acc
    22626 -2.43171E-01 3.05791E-04 4.92753E-04-2.78944E-02 2.10978E-05 2.87952E-04 1.42639E-04-8.42292E-05-9.81810E-06



 n o d a l   p r i n t   o u t   f o r   t i m e  s t e p   45605                              ( at time 2.2799718E+01 )

 nodal point  x-disp     y-disp      z-disp      x-vel       y-vel       z-vel      x-accl      y-accl      z-accl      x-coor      y-coor      z-coor
    22626  1.78162E-01 3.22727E+01 2.23711E+01 1.05924E-02 1.46950E+00 1.36145E+00 5.74901E-03-5.77729E-02 9.07230E-02 4.83754E+00 4.08186E+00-2.26106E+01



 n o d a l   p r i n t   o u t   f o r   t i m e  s t e p   45605                              ( at time 2.2799718E+01 )

 nodal point  x-rot      y-rot       z-rot       x-rot vel   y-rot vel   z-rot vel   x-rot acc   y-rot acc   z-rot acc
    22626 -2.45958E-01 3.07910E-04 5.22018E-04-2.78535E-02 1.61747E-05 2.92369E-04 4.08981E-04-4.92358E-05 4.41726E-05



 n o d a l   p r i n t   o u t   f o r   t i m e  s t e p   45805                              ( at time 2.2899708E+01 )

 nodal point  x-disp     y-disp      z-disp      x-vel       y-vel       z-vel      x-accl      y-accl      z-accl      x-coor      y-coor      z-coor
    22626  1.79266E-01 3.24194E+01 2.25077E+01 1.16739E-02 1.46483E+00 1.36969E+00 1.08160E-02-4.66828E-02 8.24101E-02 4.83864E+00 4.22858E+00-2.24741E+01



 n o d a l   p r i n t   o u t   f o r   t i m e  s t e p   45805                              ( at time 2.2899708E+01 )

 nodal point  x-rot      y-rot       z-rot       x-rot vel   y-rot vel   z-rot vel   x-rot acc   y-rot acc   z-rot acc
    22626 -2.48742E-01 3.08782E-04 5.52049E-04-2.78191E-02 3.29168E-06 3.05570E-04 3.43584E-04-1.28844E-04 1.32023E-04



 n o d a l   p r i n t   o u t   f o r   t i m e  s t e p   46005                              ( at time 2.2999698E+01 )

 nodal point  x-disp     y-disp      z-disp      x-vel       y-vel       z-vel      x-accl      y-accl      z-accl      x-coor      y-coor      z-coor
    22626  1.80413E-01 3.25657E+01 2.26451E+01 1.13638E-02 1.46029E+00 1.37834E+00-3.10123E-03-4.54527E-02 8.65157E-02 4.83979E+00 4.37485E+00-2.23366E+01



 n o d a l   p r i n t   o u t   f o r   t i m e  s t e p   46005                              ( at time 2.2999698E+01 )

 nodal point  x-rot      y-rot       z-rot       x-rot vel   y-rot vel   z-rot vel   x-rot acc   y-rot acc   z-rot acc
    22626 -2.51521E-01 3.08561E-04 5.83205E-04-2.77703E-02-1.14317E-05 3.12519E-04 4.88002E-04-1.47247E-04 6.95028E-05



 n o d a l   p r i n t   o u t   f o r   t i m e  s t e p   46205                              ( at time 2.3099688E+01 )

 nodal point  x-disp     y-disp      z-disp      x-vel       y-vel       z-vel      x-accl      y-accl      z-accl      x-coor      y-coor      z-coor
    22626  1.81589E-01 3.27115E+01 2.27833E+01 1.18871E-02 1.45665E+00 1.38644E+00 5.23360E-03-3.63807E-02 8.10212E-02 4.84096E+00 4.52065E+00-2.21984E+01



 n o d a l   p r i n t   o u t   f o r   t i m e  s t e p   46205                              ( at time 2.3099688E+01 )

 nodal point  x-rot      y-rot       z-rot       x-rot vel   y-rot vel   z-rot vel   x-rot acc   y-rot acc   z-rot acc
    22626 -2.54295E-01 3.07688E-04 6.14638E-04-2.77131E-02-1.22946E-05 3.15855E-04 5.72659E-04-8.63008E-06 3.33634E-05



 n o d a l   p r i n t   o u t   f o r   t i m e  s t e p   46405                              ( at time 2.3199678E+01 )

 nodal point  x-disp     y-disp      z-disp      x-vel       y-vel       z-vel      x-accl      y-accl      z-accl      x-coor      y-coor      z-coor
    22626  1.82787E-01 3.28570E+01 2.29223E+01 1.20800E-02 1.45308E+00 1.39456E+00 1.92989E-03-3.57458E-02 8.12080E-02 4.84216E+00 4.66613E+00-2.20594E+01



 n o d a l   p r i n t   o u t   f o r   t i m e  s t e p   46405                              ( at time 2.3199678E+01 )

 nodal point  x-rot      y-rot       z-rot       x-rot vel   y-rot vel   z-rot vel   x-rot acc   y-rot acc   z-rot acc
    22626 -2.57062E-01 3.06093E-04 6.47722E-04-2.76507E-02-1.38948E-05 3.40673E-04 6.24062E-04-1.60035E-05 2.48199E-04



 n o d a l   p r i n t   o u t   f o r   t i m e  s t e p   46605                              ( at time 2.3299668E+01 )

 nodal point  x-disp     y-disp      z-disp      x-vel       y-vel       z-vel      x-accl      y-accl      z-accl      x-coor      y-coor      z-coor
    22626  1.84062E-01 3.30021E+01 2.30622E+01 1.28727E-02 1.45050E+00 1.40292E+00 7.92725E-03-2.57890E-02 8.35666E-02 4.84344E+00 4.81127E+00-2.19195E+01



 n o d a l   p r i n t   o u t   f o r   t i m e  s t e p   46605                              ( at time 2.3299668E+01 )

 nodal point  x-rot      y-rot       z-rot       x-rot vel   y-rot vel   z-rot vel   x-rot acc   y-rot acc   z-rot acc
    22626 -2.59823E-01 3.03634E-04 6.82512E-04-2.75868E-02-2.60311E-05 3.52315E-04 6.38939E-04-1.21377E-04 1.16431E-04



 n o d a l   p r i n t   o u t   f o r   t i m e  s t e p   46805                              ( at time 2.3399658E+01 )

 nodal point  x-disp     y-disp      z-disp      x-vel       y-vel       z-vel      x-accl      y-accl      z-accl      x-coor      y-coor      z-coor
    22626  1.85293E-01 3.31470E+01 2.32028E+01 1.20742E-02 1.44699E+00 1.41026E+00-7.98563E-03-3.51402E-02 7.34754E-02 4.84467E+00 4.95614E+00-2.17789E+01



 n o d a l   p r i n t   o u t   f o r   t i m e  s t e p   46805                              ( at time 2.3399658E+01 )

 nodal point  x-rot      y-rot       z-rot       x-rot vel   y-rot vel   z-rot vel   x-rot acc   y-rot acc   z-rot acc
    22626 -2.62578E-01 3.01097E-04 7.18349E-04-2.75126E-02-1.56230E-05 3.73053E-04 7.42369E-04 1.04091E-04 2.07406E-04



 n o d a l   p r i n t   o u t   f o r   t i m e  s t e p   47005                              ( at time 2.3499648E+01 )

 nodal point  x-disp     y-disp      z-disp      x-vel       y-vel       z-vel      x-accl      y-accl      z-accl      x-coor      y-coor      z-coor
    22626  1.86529E-01 3.32916E+01 2.33442E+01 1.30619E-02 1.44518E+00 1.41638E+00 9.87767E-03-1.80058E-02 6.11814E-02 4.84590E+00 5.10074E+00-2.16376E+01



 n o d a l   p r i n t   o u t   f o r   t i m e  s t e p   47005                              ( at time 2.3499648E+01 )

 nodal point  x-rot      y-rot       z-rot       x-rot vel   y-rot vel   z-rot vel   x-rot acc   y-rot acc   z-rot acc
    22626 -2.65324E-01 2.98866E-04 7.56138E-04-2.74317E-02-3.16019E-05 3.80781E-04 8.08387E-04-1.59804E-04 7.72868E-05



 n o d a l   p r i n t   o u t   f o r   t i m e  s t e p   47205                              ( at time 2.3599638E+01 )

 nodal point  x-disp     y-disp      z-disp      x-vel       y-vel       z-vel      x-accl      y-accl      z-accl      x-coor      y-coor      z-coor
    22626  1.87825E-01 3.34359E+01 2.34862E+01 1.27149E-02 1.44296E+00 1.42369E+00-3.46976E-03-2.22767E-02 7.30452E-02 4.84720E+00 5.24511E+00-2.14956E+01



 n o d a l   p r i n t   o u t   f o r   t i m e  s t e p   47205                              ( at time 2.3599638E+01 )

 nodal point  x-rot      y-rot       z-rot       x-rot vel   y-rot vel   z-rot vel   x-rot acc   y-rot acc   z-rot acc
    22626 -2.68063E-01 2.95676E-04 7.95484E-04-2.73489E-02-3.91687E-05 4.00453E-04 8.28820E-04-7.56762E-05 1.96743E-04



 n o d a l   p r i n t   o u t   f o r   t i m e  s t e p   47405                              ( at time 2.3699628E+01 )

 nodal point  x-disp     y-disp      z-disp      x-vel       y-vel       z-vel      x-accl      y-accl      z-accl      x-coor      y-coor      z-coor
    22626  1.89154E-01 3.35802E+01 2.36288E+01 1.31422E-02 1.44136E+00 1.43013E+00 4.27359E-03-1.59934E-02 6.44969E-02 4.84853E+00 5.38934E+00-2.13529E+01



 n o d a l   p r i n t   o u t   f o r   t i m e  s t e p   47405                              ( at time 2.3699628E+01 )

 nodal point  x-rot      y-rot       z-rot       x-rot vel   y-rot vel   z-rot vel   x-rot acc   y-rot acc   z-rot acc
    22626 -2.70793E-01 2.91730E-04 8.35663E-04-2.72611E-02-4.08241E-05 4.00756E-04 8.78020E-04-1.65556E-05 3.02940E-06



 n o d a l   p r i n t   o u t   f o r   t i m e  s t e p   47605                              ( at time 2.3799618E+01 )

 nodal point  x-disp     y-disp      z-disp      x-vel       y-vel       z-vel      x-accl      y-accl      z-accl      x-coor      y-coor      z-coor
    22626  1.90450E-01 3.37242E+01 2.37721E+01 1.39687E-02 1.44079E+00 1.43575E+00 8.26561E-03-5.70956E-03 5.61681E-02 4.84983E+00 5.53336E+00-2.12096E+01



 n o d a l   p r i n t   o u t   f o r   t i m e  s t e p   47605                              ( at time 2.3799618E+01 )

 nodal point  x-rot      y-rot       z-rot       x-rot vel   y-rot vel   z-rot vel   x-rot acc   y-rot acc   z-rot acc
    22626 -2.73513E-01 2.86531E-04 8.76840E-04-2.71729E-02-5.24710E-05 4.21578E-04 8.81445E-04-1.16481E-04 2.08240E-04



 n o d a l   p r i n t   o u t   f o r   t i m e  s t e p   47805                              ( at time 2.3899608E+01 )

 nodal point  x-disp     y-disp      z-disp      x-vel       y-vel       z-vel      x-accl      y-accl      z-accl      x-coor      y-coor      z-coor
    22626  1.91878E-01 3.38681E+01 2.39159E+01 1.42690E-02 1.43873E+00 1.44155E+00 3.00347E-03-2.05488E-02 5.80006E-02 4.85125E+00 5.67730E+00-2.10658E+01



 n o d a l   p r i n t   o u t   f o r   t i m e  s t e p   47805                              ( at time 2.3899608E+01 )

 nodal point  x-rot      y-rot       z-rot       x-rot vel   y-rot vel   z-rot vel   x-rot acc   y-rot acc   z-rot acc
    22626 -2.76225E-01 2.80714E-04 9.20010E-04-2.70700E-02-6.31665E-05 4.32500E-04 1.02932E-03-1.06965E-04 1.09226E-04



 n o d a l   p r i n t   o u t   f o r   t i m e  s t e p   48005                              ( at time 2.3999598E+01 )

 nodal point  x-disp     y-disp      z-disp      x-vel       y-vel       z-vel      x-accl      y-accl      z-accl      x-coor      y-coor      z-coor
    22626  1.93334E-01 3.40120E+01 2.40604E+01 1.34386E-02 1.43868E+00 1.44720E+00-8.30534E-03-5.30540E-04 5.64614E-02 4.85271E+00 5.82116E+00-2.09214E+01



 n o d a l   p r i n t   o u t   f o r   t i m e  s t e p   48005                              ( at time 2.3999598E+01 )

 nodal point  x-rot      y-rot       z-rot       x-rot vel   y-rot vel   z-rot vel   x-rot acc   y-rot acc   z-rot acc
    22626 -2.78926E-01 2.74804E-04 9.63658E-04-2.69738E-02-6.06207E-05 4.51261E-04 9.62256E-04 2.54611E-05 1.87634E-04



 n o d a l   p r i n t   o u t   f o r   t i m e  s t e p   48205                              ( at time 2.4099588E+01 )

 nodal point  x-disp     y-disp      z-disp      x-vel       y-vel       z-vel      x-accl      y-accl      z-accl      x-coor      y-coor      z-coor
    22626  1.94684E-01 3.41558E+01 2.42054E+01 1.46188E-02 1.43781E+00 1.45306E+00 1.18031E-02-8.71023E-03 5.86563E-02 4.85406E+00 5.96493E+00-2.07763E+01



 n o d a l   p r i n t   o u t   f o r   t i m e  s t e p   48205                              ( at time 2.4099588E+01 )

 nodal point  x-rot      y-rot       z-rot       x-rot vel   y-rot vel   z-rot vel   x-rot acc   y-rot acc   z-rot acc
    22626 -2.81617E-01 2.67656E-04 1.00958E-03-2.68656E-02-7.13176E-05 4.61946E-04 1.08230E-03-1.06979E-04 1.06862E-04



 n o d a l   p r i n t   o u t   f o r   t i m e  s t e p   48405                              ( at time 2.4199578E+01 )

 nodal point  x-disp     y-disp      z-disp      x-vel       y-vel       z-vel      x-accl      y-accl      z-accl      x-coor      y-coor      z-coor
    22626  1.96180E-01 3.42996E+01 2.43509E+01 1.49309E-02 1.43828E+00 1.45755E+00 3.12179E-03 4.72121E-03 4.48491E-02 4.85556E+00 6.10873E+00-2.06308E+01



 n o d a l   p r i n t   o u t   f o r   t i m e  s t e p   48405                              ( at time 2.4199578E+01 )

 nodal point  x-rot      y-rot       z-rot       x-rot vel   y-rot vel   z-rot vel   x-rot acc   y-rot acc   z-rot acc
    22626 -2.84298E-01 2.60453E-04 1.05664E-03-2.67556E-02-6.91311E-05 4.79859E-04 1.10018E-03 2.18673E-05 1.79143E-04



 n o d a l   p r i n t   o u t   f o r   t i m e  s t e p   48605                              ( at time 2.4299568E+01 )

 nodal point  x-disp     y-disp      z-disp      x-vel       y-vel       z-vel      x-accl      y-accl      z-accl      x-coor      y-coor      z-coor
    22626  1.97670E-01 3.44434E+01 2.44968E+01 1.43534E-02 1.43812E+00 1.46140E+00-5.77588E-03-1.56059E-03 3.85546E-02 4.85704E+00 6.25254E+00-2.04849E+01



 n o d a l   p r i n t   o u t   f o r   t i m e  s t e p   48605                              ( at time 2.4299568E+01 )

 nodal point  x-rot      y-rot       z-rot       x-rot vel   y-rot vel   z-rot vel   x-rot acc   y-rot acc   z-rot acc
    22626 -2.86967E-01 2.52792E-04 1.10495E-03-2.66580E-02-8.47035E-05 4.95000E-04 9.75817E-04-1.55738E-04 1.51428E-04



 n o d a l   p r i n t   o u t   f o r   t i m e  s t e p   48805                              ( at time 2.4399558E+01 )

 nodal point  x-disp     y-disp      z-disp      x-vel       y-vel       z-vel      x-accl      y-accl      z-accl      x-coor      y-coor      z-coor
    22626  1.99133E-01 3.45872E+01 2.46432E+01 1.51727E-02 1.43827E+00 1.46564E+00 8.19332E-03 1.47952E-03 4.23995E-02 4.85851E+00 6.39635E+00-2.03385E+01



 n o d a l   p r i n t   o u t   f o r   t i m e  s t e p   48805                              ( at time 2.4399558E+01 )

 nodal point  x-rot      y-rot       z-rot       x-rot vel   y-rot vel   z-rot vel   x-rot acc   y-rot acc   z-rot acc
    22626 -2.89625E-01 2.44169E-04 1.15434E-03-2.65308E-02-8.78357E-05 4.93238E-04 1.27240E-03-3.13255E-05-1.76217E-05



 n o d a l   p r i n t   o u t   f o r   t i m e  s t e p   49006                              ( at time 2.4500048E+01 )

 nodal point  x-disp     y-disp      z-disp      x-vel       y-vel       z-vel      x-accl      y-accl      z-accl      x-coor      y-coor      z-coor
    22626  2.00644E-01 3.47318E+01 2.47907E+01 1.45533E-02 1.43892E+00 1.47011E+00-6.16321E-03 6.48904E-03 4.44683E-02 4.86002E+00 6.54094E+00-2.01910E+01



 n o d a l   p r i n t   o u t   f o r   t i m e  s t e p   49006                              ( at time 2.4500048E+01 )

 nodal point  x-rot      y-rot       z-rot       x-rot vel   y-rot vel   z-rot vel   x-rot acc   y-rot acc   z-rot acc
    22626 -2.92286E-01 2.35951E-04 1.20456E-03-2.64360E-02-7.90257E-05 5.04859E-04 9.43365E-04 8.76719E-05 1.15641E-04



 n o d a l   p r i n t   o u t   f o r   t i m e  s t e p   49206                              ( at time 2.4600038E+01 )

 nodal point  x-disp     y-disp      z-disp      x-vel       y-vel       z-vel      x-accl      y-accl      z-accl      x-coor      y-coor      z-coor
    22626  2.02150E-01 3.48757E+01 2.49378E+01 1.52094E-02 1.43961E+00 1.47248E+00 6.56174E-03 6.87662E-03 2.36843E-02 4.86153E+00 6.68483E+00-2.00439E+01



 n o d a l   p r i n t   o u t   f o r   t i m e  s t e p   49206                              ( at time 2.4600038E+01 )

 nodal point  x-rot      y-rot       z-rot       x-rot vel   y-rot vel   z-rot vel   x-rot acc   y-rot acc   z-rot acc
    22626 -2.94923E-01 2.27715E-04 1.25478E-03-2.63144E-02-8.09025E-05 5.09995E-04 1.21565E-03-1.87702E-05 5.13695E-05



 n o d a l   p r i n t   o u t   f o r   t i m e  s t e p   49406                              ( at time 2.4700028E+01 )

 nodal point  x-disp     y-disp      z-disp      x-vel       y-vel       z-vel      x-accl      y-accl      z-accl      x-coor      y-coor      z-coor
    22626  2.03556E-01 3.50196E+01 2.50852E+01 1.34010E-02 1.44049E+00 1.47545E+00-1.80866E-02 8.73662E-03 2.97520E-02 4.86293E+00 6.82881E+00-1.98966E+01



 n o d a l   p r i n t   o u t   f o r   t i m e  s t e p   49406                              ( at time 2.4700028E+01 )

 nodal point  x-rot      y-rot       z-rot       x-rot vel   y-rot vel   z-rot vel   x-rot acc   y-rot acc   z-rot acc
    22626 -2.97548E-01 2.19666E-04 1.30648E-03-2.62075E-02-6.98641E-05 5.19259E-04 1.06902E-03 1.10396E-04 9.26536E-05



 n o d a l   p r i n t   o u t   f o r   t i m e  s t e p   49606                              ( at time 2.4800018E+01 )

 nodal point  x-disp     y-disp      z-disp      x-vel       y-vel       z-vel      x-accl      y-accl      z-accl      x-coor      y-coor      z-coor
    22626  2.04958E-01 3.51637E+01 2.52328E+01 1.47762E-02 1.44134E+00 1.47693E+00 1.37531E-02 8.51948E-03 1.47714E-02 4.86433E+00 6.97285E+00-1.97489E+01



 n o d a l   p r i n t   o u t   f o r   t i m e  s t e p   49606                              ( at time 2.4800018E+01 )

 nodal point  x-rot      y-rot       z-rot       x-rot vel   y-rot vel   z-rot vel   x-rot acc   y-rot acc   z-rot acc
    22626 -3.00162E-01 2.12040E-04 1.35823E-03-2.60895E-02-8.26157E-05 5.11414E-04 1.18008E-03-1.27528E-04-7.84595E-05



 n o d a l   p r i n t   o u t   f o r   t i m e  s t e p   49806                              ( at time 2.4900008E+01 )

 nodal point  x-disp     y-disp      z-disp      x-vel       y-vel       z-vel      x-accl      y-accl      z-accl      x-coor      y-coor      z-coor
    22626  2.06479E-01 3.53079E+01 2.53806E+01 1.46020E-02 1.44317E+00 1.47874E+00-1.74218E-03 1.82804E-02 1.80980E-02 4.86585E+00 7.11705E+00-1.96012E+01



 n o d a l   p r i n t   o u t   f o r   t i m e  s t e p   49806                              ( at time 2.4900008E+01 )

 nodal point  x-rot      y-rot       z-rot       x-rot vel   y-rot vel   z-rot vel   x-rot acc   y-rot acc   z-rot acc
    22626 -3.02764E-01 2.03990E-04 1.41033E-03-2.59573E-02-8.68622E-05 5.33557E-04 1.32287E-03-4.24689E-05 2.21450E-04



 n o d a l   p r i n t   o u t   f o r   t i m e  s t e p   50006                              ( at time 2.4999998E+01 )

 nodal point  x-disp     y-disp      z-disp      x-vel       y-vel       z-vel      x-accl      y-accl      z-accl      x-coor      y-coor      z-coor
    22626  2.07912E-01 3.54523E+01 2.55285E+01 1.47372E-02 1.44491E+00 1.48042E+00 1.35271E-03 1.73990E-02 1.68327E-02 4.86729E+00 7.26143E+00-1.94532E+01



 n o d a l   p r i n t   o u t   f o r   t i m e  s t e p   50006                              ( at time 2.4999998E+01 )

 nodal point  x-rot      y-rot       z-rot       x-rot vel   y-rot vel   z-rot vel   x-rot acc   y-rot acc   z-rot acc
    22626 -3.05354E-01 1.94661E-04 1.46362E-03-2.58473E-02-1.01316E-04 5.26542E-04 1.10007E-03-1.44556E-04-7.01531E-05
