 LSTC 50th% Full_FE H-III Dummy (Beta Version, February 17, 2019)        
                    ls-dyna smp s R16 R16.0_619_d222963 date 03/18/2025

{BEGIN LEGEND}
 Entity #        Title
        1     Upper_Neck_Force_INJURY                                              
{END LEGEND}



 line#1  section#     time        x-force     y-force     z-force    magnitude
 line#2  resultant  moments       x-moment    y-moment    z-moment   magnitude
 line#3  centroids                x           y           z            area  
           1    0.00000E+00     0.0000E+00  0.0000E+00  0.0000E+00  0.0000E+00
ac ID =   33377                 0.0000E+00  0.0000E+00  0.0000E+00  0.0000E+00
                               -3.7437E-01  1.0501E+01 -4.6940E+01  0.0000E+00

           1    1.00490E-01     1.3585E-04 -4.9878E-03  2.5982E-01  2.5987E-01
ac ID =   33377                 4.2549E-01 -1.2522E+00 -2.7110E-02  1.3227E+00
                               -3.7387E-01  1.0590E+01 -4.6886E+01  2.5147E+03

           1    2.00480E-01    -4.4372E-02  4.1630E-04  4.4109E-01  4.4332E-01
ac ID =   33377                 3.0913E-01 -1.5956E+00  2.1880E-02  1.6254E+00
                               -3.7386E-01  1.0591E+01 -4.6888E+01  2.5147E+03

           1    3.00470E-01     1.5003E-02 -3.2422E-03  2.1753E-01  2.1807E-01
ac ID =   33377                 2.0843E-02 -3.4451E-01  6.8531E-02  3.5188E-01
                               -3.7382E-01  1.0591E+01 -4.6889E+01  2.5147E+03

           1    4.00460E-01     2.6657E-03  1.0708E-02  8.8136E-02  8.8824E-02
ac ID =   33377                -4.9955E-01 -9.4618E-01  3.8072E-03  1.0700E+00
                               -3.7384E-01  1.0592E+01 -4.6890E+01  2.5147E+03

           1    5.00450E-01    -4.0896E-02  4.3397E-03  1.6234E-01  1.6747E-01
ac ID =   33377                -3.9609E-01 -1.5104E+00 -1.0717E-01  1.5651E+00
                               -3.7385E-01  1.0594E+01 -4.6893E+01  2.5147E+03

           1    6.00440E-01    -1.2087E-02  3.8090E-03  3.4548E-01  3.4571E-01
ac ID =   33377                 9.4608E-02 -1.3553E+00 -3.4479E-02  1.3590E+00
                               -3.7385E-01  1.0595E+01 -4.6897E+01  2.5147E+03

           1    7.00430E-01     1.0058E-03 -4.9743E-03  2.9831E-01  2.9836E-01
ac ID =   33377                 1.2222E-01 -5.6896E-01  7.5939E-02  5.8687E-01
                               -3.7389E-01  1.0597E+01 -4.6901E+01  2.5147E+03

           1    8.00420E-01    -2.9810E-02 -3.4758E-04  1.0411E-01  1.0830E-01
ac ID =   33377                 5.9989E-02 -1.0724E+00  4.5125E-02  1.0750E+00
                               -3.7393E-01  1.0599E+01 -4.6905E+01  2.5147E+03

           1    9.00410E-01    -4.0074E-02  9.9428E-04  6.5602E-02  7.6879E-02
ac ID =   33377                 8.8988E-02 -1.1148E+00 -1.2151E-02  1.1184E+00
                               -3.7395E-01  1.0601E+01 -4.6909E+01  2.5147E+03

           1    1.00040E+00     1.2294E-02 -1.6461E-03  2.2801E-01  2.2835E-01
ac ID =   33377                 2.8390E-01 -3.9836E-01 -7.3169E-02  4.9462E-01
                               -3.7394E-01  1.0604E+01 -4.6915E+01  2.5147E+03

           1    1.10039E+00     9.9028E-04  1.2483E-03  2.8212E-01  2.8212E-01
ac ID =   33377                 2.2384E-01 -9.6058E-01 -4.5576E-02  9.8737E-01
                               -3.7390E-01  1.0606E+01 -4.6921E+01  2.5147E+03

           1    1.20038E+00    -3.6054E-02  2.4165E-03  1.4298E-01  1.4748E-01
ac ID =   33377                -2.9281E-01 -1.3229E+00 -4.0914E-02  1.3556E+00
                               -3.7384E-01  1.0609E+01 -4.6926E+01  2.5147E+03

           1    1.30037E+00    -1.5936E-02  4.9091E-03  9.3452E-02  9.4928E-02
ac ID =   33377                -3.7401E-01 -1.1814E+00 -3.7026E-02  1.2397E+00
                               -3.7376E-01  1.0612E+01 -4.6932E+01  2.5147E+03

           1    1.40036E+00     9.3077E-03  6.7438E-03  1.9227E-01  1.9261E-01
ac ID =   33377                -4.5914E-01 -9.4330E-01  3.1298E-02  1.0496E+00
                               -3.7364E-01  1.0615E+01 -4.6939E+01  2.5147E+03

           1    1.50035E+00    -2.7684E-02  1.0467E-02  3.4563E-01  3.4690E-01
ac ID =   33377                -3.5901E-01 -1.7613E+00 -4.1416E-02  1.7980E+00
                               -3.7350E-01  1.0618E+01 -4.6946E+01  2.5147E+03

           1    1.60034E+00    -2.0657E-02  1.5826E-03  2.3762E-01  2.3853E-01
ac ID =   33377                -1.6286E-01 -1.4623E+00 -2.0596E-02  1.4715E+00
                               -3.7333E-01  1.0622E+01 -4.6953E+01  2.5147E+03

           1    1.70033E+00    -2.5091E-03 -1.8621E-03  7.4524E-02  7.4590E-02
ac ID =   33377                -1.4103E-01 -7.6141E-01  8.0620E-02  7.7854E-01
                               -3.7314E-01  1.0625E+01 -4.6961E+01  2.5147E+03

           1    1.80032E+00    -2.0231E-02  3.4146E-03  9.4017E-02  9.6230E-02
ac ID =   33377                -5.5641E-02 -1.2136E+00  7.8527E-02  1.2174E+00
                               -3.7298E-01  1.0629E+01 -4.6969E+01  2.5147E+03

           1    1.90031E+00    -1.4083E-02  4.1033E-03  2.0235E-01  2.0288E-01
ac ID =   33377                 5.1448E-02 -1.0768E+00 -5.1343E-02  1.0793E+00
                               -3.7279E-01  1.0633E+01 -4.6978E+01  2.5147E+03

           1    2.00030E+00    -2.4892E-02 -2.4478E-03  1.8004E-01  1.8177E-01
ac ID =   33377                 1.8513E-01 -1.1994E+00 -1.3171E-02  1.2137E+00
                               -3.7255E-01  1.0637E+01 -4.6986E+01  2.5147E+03

           1    2.10029E+00    -2.4649E-02  2.9589E-03  2.8619E-02  3.7886E-02
ac ID =   33377                -2.8733E-01 -1.1836E+00  5.0991E-02  1.2191E+00
                               -3.7228E-01  1.0640E+01 -4.6995E+01  2.5147E+03

           1    2.20028E+00    -2.1825E-02  4.5630E-03  2.0128E-02  3.0037E-02
ac ID =   33377                -3.7117E-01 -1.2306E+00 -8.2391E-02  1.2880E+00
                               -3.7202E-01  1.0644E+01 -4.7004E+01  2.5147E+03

           1    2.30027E+00    -1.2693E-02  8.7280E-03  1.7395E-01  1.7463E-01
ac ID =   33377                -5.2405E-01 -1.4904E+00 -1.6637E-01  1.5886E+00
                               -3.7173E-01  1.0649E+01 -4.7014E+01  2.5147E+03

           1    2.40026E+00    -2.5759E-02 -8.0226E-03  2.2305E-01  2.2468E-01
ac ID =   33377                -2.1186E-01 -1.5379E+00 -8.4949E-02  1.5548E+00
                               -3.7150E-01  1.0653E+01 -4.7023E+01  2.5147E+03

           1    2.50025E+00    -2.3768E-02  2.6759E-03  3.7059E-02  4.4107E-02
ac ID =   33377                -4.6706E-01 -1.3644E+00  9.4206E-02  1.4452E+00
                               -3.7128E-01  1.0657E+01 -4.7033E+01  2.5147E+03

           1    2.60024E+00    -8.9991E-03  1.5073E-02 -4.1766E-02  4.5305E-02
ac ID =   33377                -6.6356E-01 -7.2124E-01  7.8471E-03  9.8008E-01
                               -3.7112E-01  1.0661E+01 -4.7042E+01  2.5147E+03

           1    2.70023E+00    -2.8458E-02 -1.5633E-02  4.5038E-02  5.5522E-02
ac ID =   33377                 3.5946E-01 -1.1000E+00 -1.4753E-01  1.1666E+00
                               -3.7093E-01  1.0665E+01 -4.7052E+01  2.5147E+03

           1    2.80022E+00    -2.0956E-02 -1.0087E-02  1.0681E-01  1.0931E-01
ac ID =   33377                 4.2263E-01 -1.1421E+00 -7.4678E-02  1.2200E+00
                               -3.7077E-01  1.0669E+01 -4.7062E+01  2.5147E+03

           1    2.90021E+00    -7.3184E-03  9.6683E-03  4.5263E-02  4.6860E-02
ac ID =   33377                -8.0540E-02 -6.8232E-01 -5.5790E-02  6.8932E-01
                               -3.7067E-01  1.0673E+01 -4.7072E+01  2.5147E+03

           1    3.00020E+00    -9.1061E-03  1.1391E-02 -4.8265E-02  5.0420E-02
ac ID =   33377                -4.3216E-01 -7.3462E-01 -6.6967E-02  8.5494E-01
                               -3.7046E-01  1.0676E+01 -4.7081E+01  2.5147E+03

           1    3.10019E+00    -5.7282E-03 -4.3178E-03  2.1465E-02  2.2632E-02
ac ID =   33377                -1.0878E-01 -8.9679E-01 -5.4820E-02  9.0502E-01
                               -3.7017E-01  1.0680E+01 -4.7091E+01  2.5147E+03

           1    3.20018E+00     1.7426E-02 -2.1909E-03  9.6242E-02  9.7832E-02
ac ID =   33377                -2.5492E-01 -5.7490E-01 -6.4099E-02  6.3214E-01
                               -3.6996E-01  1.0684E+01 -4.7101E+01  2.5147E+03

           1    3.30017E+00     2.7310E-02  1.4616E-02  3.9102E-02  4.9884E-02
ac ID =   33377                -8.1605E-01 -3.6742E-01  2.8215E-02  8.9540E-01
                               -3.6986E-01  1.0689E+01 -4.7111E+01  2.5147E+03

           1    3.40016E+00     4.5847E-02  5.7287E-03 -9.9832E-02  1.1001E-01
ac ID =   33377                -5.9434E-01  2.0274E-01 -1.4285E-01  6.4401E-01
                               -3.6974E-01  1.0693E+01 -4.7120E+01  2.5147E+03

           1    3.50015E+00     6.8571E-02  1.4606E-03 -1.7909E-01  1.9178E-01
ac ID =   33377                -2.1495E-01  8.4797E-01  1.4295E-02  8.7490E-01
                               -3.6962E-01  1.0699E+01 -4.7130E+01  2.5147E+03

           1    3.60014E+00     1.1821E-01 -2.3064E-03 -1.5241E-01  1.9289E-01
ac ID =   33377                 1.9922E-01  2.2519E+00 -1.9396E-01  2.2690E+00
                               -3.6950E-01  1.0707E+01 -4.7141E+01  2.5147E+03

           1    3.70013E+00     1.3926E-01  1.3902E-02 -1.7555E-01  2.2450E-01
ac ID =   33377                -2.4617E-01  3.1237E+00 -3.6840E-01  3.1550E+00
                               -3.6942E-01  1.0717E+01 -4.7151E+01  2.5147E+03

           1    3.80012E+00     1.6457E-01  7.0141E-03 -3.0101E-01  3.4314E-01
ac ID =   33377                -1.7400E-01  4.3906E+00 -3.9639E-01  4.4119E+00
                               -3.6921E-01  1.0730E+01 -4.7162E+01  2.5147E+03

           1    3.90011E+00     1.7850E-01 -3.9963E-05 -4.0440E-01  4.4204E-01
ac ID =   33377                -1.9216E-01  4.9063E+00 -2.3567E-01  4.9157E+00
                               -3.6896E-01  1.0745E+01 -4.7174E+01  2.5147E+03

           1    4.00010E+00     2.0224E-01  8.7694E-03 -4.0394E-01  4.5183E-01
ac ID =   33377                -7.7290E-01  5.1218E+00 -3.6893E-02  5.1799E+00
                               -3.6868E-01  1.0764E+01 -4.7187E+01  2.5147E+03

           1    4.10009E+00     2.1292E-01  1.7307E-02 -4.0174E-01  4.5500E-01
ac ID =   33377                -1.1593E+00  5.2753E+00 -7.4614E-02  5.4017E+00
                               -3.6856E-01  1.0787E+01 -4.7201E+01  2.5147E+03

           1    4.20008E+00     2.2579E-01 -3.1967E-03 -5.1141E-01  5.5905E-01
ac ID =   33377                -7.0703E-01  5.6680E+00 -4.1160E-01  5.7268E+00
                               -3.6839E-01  1.0814E+01 -4.7215E+01  2.5147E+03

           1    4.30007E+00     2.4730E-01  2.7211E-03 -6.6056E-01  7.0535E-01
ac ID =   33377                -6.6682E-01  6.8535E+00 -5.1715E-01  6.9053E+00
                               -3.6834E-01  1.0845E+01 -4.7231E+01  2.5147E+03

           1    4.40006E+00     2.8004E-01  1.6225E-03 -6.4812E-01  7.0603E-01
ac ID =   33377                -2.7878E-01  7.8649E+00 -3.1123E-01  7.8760E+00
                               -3.6837E-01  1.0880E+01 -4.7248E+01  2.5147E+03

           1    4.50005E+00     3.0198E-01  1.9751E-02 -6.3515E-01  7.0356E-01
ac ID =   33377                -2.4778E-01  8.8054E+00  3.9702E-02  8.8090E+00
                               -3.6840E-01  1.0921E+01 -4.7266E+01  2.5147E+03

           1    4.60004E+00     3.1983E-01 -2.1812E-03 -7.5055E-01  8.1586E-01
ac ID =   33377                -3.0033E-01  9.8146E+00  5.2326E-02  9.8193E+00
                               -3.6830E-01  1.0967E+01 -4.7285E+01  2.5147E+03

           1    4.70003E+00     3.2915E-01  1.0341E-02 -8.5709E-01  9.1818E-01
ac ID =   33377                -3.8570E-01  1.0128E+01 -2.0484E-01  1.0138E+01
                               -3.6821E-01  1.1019E+01 -4.7306E+01  2.5147E+03

           1    4.80002E+00     3.4390E-01  4.1979E-03 -9.2061E-01  9.8276E-01
ac ID =   33377                -6.4089E-01  1.0626E+01 -3.6336E-01  1.0651E+01
                               -3.6811E-01  1.1076E+01 -4.7328E+01  2.5147E+03

           1    4.90001E+00     3.4864E-01  2.4946E-02 -9.0699E-01  9.7201E-01
ac ID =   33377                -1.2963E+00  1.0757E+01 -1.9182E-01  1.0837E+01
                               -3.6803E-01  1.1138E+01 -4.7352E+01  2.5147E+03

           1    5.00000E+00     3.4431E-01  1.6064E-02 -9.8514E-01  1.0437E+00
ac ID =   33377                -1.2736E+00  1.1322E+01  1.4184E-01  1.1394E+01
                               -3.6800E-01  1.1207E+01 -4.7377E+01  2.5147E+03

           1    5.10049E+00     3.6431E-01  1.4242E-02 -1.1187E+00  1.1766E+00
ac ID =   33377                -7.7178E-01  1.2215E+01  9.7916E-02  1.2240E+01
                               -3.6794E-01  1.1282E+01 -4.7403E+01  2.5147E+03

           1    5.20048E+00     3.9011E-01  1.1456E-02 -1.1751E+00  1.2382E+00
ac ID =   33377                -9.9381E-01  1.3382E+01  6.0076E-02  1.3419E+01
                               -3.6789E-01  1.1362E+01 -4.7431E+01  2.5147E+03

           1    5.30047E+00     3.9722E-01  1.5507E-02 -1.2242E+00  1.2871E+00
ac ID =   33377                -7.0418E-01  1.4187E+01 -2.6694E-01  1.4207E+01
                               -3.6789E-01  1.1449E+01 -4.7460E+01  2.5147E+03

           1    5.40046E+00     3.9505E-01 -6.1852E-03 -1.2996E+00  1.3583E+00
ac ID =   33377                -2.4151E-01  1.4826E+01 -1.3794E-01  1.4829E+01
                               -3.6786E-01  1.1541E+01 -4.7491E+01  2.5147E+03

           1    5.50045E+00     4.1832E-01  2.8488E-03 -1.4655E+00  1.5241E+00
ac ID =   33377                -3.9596E-01  1.5606E+01  5.3223E-02  1.5612E+01
                               -3.6783E-01  1.1639E+01 -4.7522E+01  2.5147E+03

           1    5.60044E+00     4.1435E-01  6.2145E-03 -1.6106E+00  1.6630E+00
ac ID =   33377                -8.8767E-01  1.6150E+01  1.4539E-01  1.6175E+01
                               -3.6785E-01  1.1743E+01 -4.7555E+01  2.5147E+03

           1    5.70043E+00     4.2364E-01  1.3887E-02 -1.6721E+00  1.7249E+00
ac ID =   33377                -9.3149E-01  1.6562E+01 -1.1102E-02  1.6589E+01
                               -3.6794E-01  1.1853E+01 -4.7588E+01  2.5147E+03

           1    5.80042E+00     4.2540E-01 -1.3504E-02 -1.7204E+00  1.7723E+00
ac ID =   33377                -4.9400E-01  1.7212E+01 -2.9871E-01  1.7221E+01
                               -3.6808E-01  1.1969E+01 -4.7622E+01  2.5147E+03

           1    5.90041E+00     4.3887E-01  1.1055E-02 -1.8482E+00  1.8996E+00
ac ID =   33377                -1.1645E+00  1.8183E+01 -6.4578E-02  1.8221E+01
                               -3.6834E-01  1.2090E+01 -4.7657E+01  2.5147E+03

           1    6.00040E+00     4.5741E-01  6.4480E-03 -2.0037E+00  2.0553E+00
ac ID =   33377                -7.6731E-01  1.9352E+01 -1.4107E-01  1.9368E+01
                               -3.6877E-01  1.2216E+01 -4.7691E+01  2.5147E+03

           1    6.10039E+00     4.6498E-01 -8.3602E-03 -2.0504E+00  2.1025E+00
ac ID =   33377                -3.4312E-01  1.9921E+01 -1.0918E-01  1.9924E+01
                               -3.6924E-01  1.2349E+01 -4.7727E+01  2.5147E+03

           1    6.20038E+00     4.7160E-01  1.0906E-02 -2.1133E+00  2.1653E+00
ac ID =   33377                -6.8451E-01  2.0622E+01 -7.3742E-02  2.0634E+01
                               -3.6971E-01  1.2486E+01 -4.7762E+01  2.5147E+03

           1    6.30037E+00     4.6173E-01 -9.3090E-03 -2.2338E+00  2.2811E+00
ac ID =   33377                -4.4202E-01  2.1011E+01 -7.0064E-02  2.1016E+01
                               -3.7025E-01  1.2629E+01 -4.7797E+01  2.5147E+03

           1    6.40036E+00     4.9182E-01 -8.8144E-03 -2.4169E+00  2.4664E+00
ac ID =   33377                -1.4151E-01  2.2587E+01 -1.9911E-01  2.2588E+01
                               -3.7087E-01  1.2776E+01 -4.7832E+01  2.5147E+03

           1    6.50035E+00     5.0433E-01 -1.4927E-04 -2.5437E+00  2.5932E+00
ac ID =   33377                -9.2911E-01  2.3694E+01  6.4529E-02  2.3712E+01
                               -3.7155E-01  1.2929E+01 -4.7866E+01  2.5147E+03

           1    6.60034E+00     5.1701E-01  1.9957E-02 -2.6169E+00  2.6676E+00
ac ID =   33377                -1.1235E+00  2.4874E+01  3.5191E-02  2.4899E+01
                               -3.7229E-01  1.3086E+01 -4.7900E+01  2.5147E+03

           1    6.70033E+00     5.3277E-01 -5.6311E-03 -2.7095E+00  2.7614E+00
ac ID =   33377                -7.1004E-01  2.6082E+01 -1.2111E-01  2.6092E+01
                               -3.7296E-01  1.3248E+01 -4.7933E+01  2.5147E+03

           1    6.80032E+00     5.5260E-01  9.4774E-03 -2.8595E+00  2.9124E+00
ac ID =   33377                -9.7245E-01  2.7660E+01  7.9962E-02  2.7678E+01
                               -3.7359E-01  1.3414E+01 -4.7964E+01  2.5147E+03

           1    6.90031E+00     5.5436E-01  6.8161E-03 -3.0090E+00  3.0597E+00
ac ID =   33377                -1.1271E+00  2.8645E+01 -2.2437E-01  2.8668E+01
                               -3.7427E-01  1.3585E+01 -4.7995E+01  2.5147E+03

           1    7.00030E+00     5.4917E-01  2.2127E-04 -3.0761E+00  3.1247E+00
ac ID =   33377                -7.0952E-01  2.9458E+01  9.3044E-02  2.9467E+01
                               -3.7491E-01  1.3760E+01 -4.8024E+01  2.5147E+03

           1    7.10029E+00     5.9173E-01  1.6175E-03 -3.1903E+00  3.2447E+00
ac ID =   33377                -6.2615E-01  3.0895E+01  3.5894E-01  3.0903E+01
                               -3.7553E-01  1.3939E+01 -4.8052E+01  2.5147E+03

           1    7.20028E+00     5.7640E-01 -1.0770E-02 -3.3670E+00  3.4160E+00
ac ID =   33377                -5.2989E-02  3.1781E+01  6.5408E-02  3.1781E+01
                               -3.7627E-01  1.4121E+01 -4.8077E+01  2.5147E+03

           1    7.30027E+00     5.9803E-01  3.2764E-02 -3.5415E+00  3.5918E+00
ac ID =   33377                -1.0650E+00  3.3942E+01  3.9920E-02  3.3958E+01
                               -3.7695E-01  1.4306E+01 -4.8100E+01  2.5147E+03

           1    7.40026E+00     6.1102E-01  1.8901E-02 -3.6368E+00  3.6878E+00
ac ID =   33377                -1.1966E+00  3.5217E+01 -3.0323E-01  3.5239E+01
                               -3.7740E-01  1.4495E+01 -4.8120E+01  2.5147E+03

           1    7.50025E+00     6.2379E-01 -6.9499E-03 -3.6989E+00  3.7511E+00
ac ID =   33377                -3.9589E-01  3.6835E+01 -4.4981E-01  3.6839E+01
                               -3.7777E-01  1.4686E+01 -4.8138E+01  2.5147E+03

           1    7.60024E+00     6.0873E-01 -2.1312E-03 -3.7825E+00  3.8312E+00
ac ID =   33377                -8.0868E-01  3.7622E+01 -6.7101E-02  3.7631E+01
                               -3.7816E-01  1.4880E+01 -4.8152E+01  2.5147E+03

           1    7.70023E+00     6.1095E-01  3.0683E-02 -3.8879E+00  3.9357E+00
ac ID =   33377                -1.3098E+00  3.8095E+01 -1.2075E-01  3.8118E+01
                               -3.7862E-01  1.5076E+01 -4.8162E+01  2.5147E+03

           1    7.80022E+00     6.3239E-01  5.1973E-03 -3.9899E+00  4.0397E+00
ac ID =   33377                -9.4757E-01  3.9412E+01 -1.6549E-01  3.9423E+01
                               -3.7899E-01  1.5274E+01 -4.8169E+01  2.5147E+03

           1    7.90021E+00     6.1888E-01 -1.7745E-02 -4.0573E+00  4.1042E+00
ac ID =   33377                 1.1208E-01  4.0109E+01 -1.4082E-02  4.0109E+01
                               -3.7939E-01  1.5473E+01 -4.8172E+01  2.5147E+03

           1    8.00020E+00     6.3947E-01  1.7698E-02 -4.1248E+00  4.1741E+00
ac ID =   33377                -9.0567E-01  4.2066E+01 -7.2466E-02  4.2076E+01
                               -3.7981E-01  1.5674E+01 -4.8170E+01  2.5147E+03

           1    8.10019E+00     6.5199E-01  6.4095E-04 -4.2624E+00  4.3119E+00
ac ID =   33377                -3.8768E-01  4.3666E+01  9.9034E-02  4.3668E+01
                               -3.8020E-01  1.5875E+01 -4.8163E+01  2.5147E+03

           1    8.20018E+00     6.3717E-01  2.1195E-03 -4.3402E+00  4.3867E+00
ac ID =   33377                -5.6970E-01  4.5266E+01  5.3571E-01  4.5273E+01
                               -3.8051E-01  1.6077E+01 -4.8152E+01  2.5147E+03

           1    8.30017E+00     6.6174E-01 -4.4311E-03 -4.3708E+00  4.4206E+00
ac ID =   33377                -8.1079E-01  4.6500E+01  8.5052E-02  4.6507E+01
                               -3.8070E-01  1.6280E+01 -4.8136E+01  2.5147E+03

           1    8.40016E+00     6.6717E-01  6.3742E-03 -4.4655E+00  4.5151E+00
ac ID =   33377                -1.0748E+00  4.8147E+01 -6.2599E-02  4.8159E+01
                               -3.8097E-01  1.6482E+01 -4.8114E+01  2.5147E+03

           1    8.50015E+00     6.5934E-01 -1.1818E-02 -4.5598E+00  4.6072E+00
ac ID =   33377                -6.8173E-01  4.9125E+01  2.6803E-01  4.9130E+01
                               -3.8125E-01  1.6684E+01 -4.8087E+01  2.5147E+03

           1    8.60014E+00     6.8969E-01  2.2461E-02 -4.6568E+00  4.7077E+00
ac ID =   33377                -1.1129E+00  5.0864E+01  4.4013E-01  5.0878E+01
                               -3.8157E-01  1.6886E+01 -4.8054E+01  2.5147E+03

           1    8.70013E+00     6.9798E-01  1.4385E-02 -4.7164E+00  4.7677E+00
ac ID =   33377                -1.2537E+00  5.2517E+01  5.9391E-01  5.2535E+01
                               -3.8174E-01  1.7088E+01 -4.8016E+01  2.5147E+03

           1    8.80012E+00     7.0211E-01 -3.1308E-03 -4.7602E+00  4.8117E+00
ac ID =   33377                -8.8604E-02  5.3548E+01  6.1638E-02  5.3548E+01
                               -3.8187E-01  1.7289E+01 -4.7972E+01  2.5147E+03

           1    8.90011E+00     7.2190E-01 -1.2964E-04 -4.8279E+00  4.8815E+00
ac ID =   33377                -1.1517E+00  5.5424E+01  1.0169E-03  5.5436E+01
                               -3.8188E-01  1.7490E+01 -4.7923E+01  2.5147E+03

           1    9.00010E+00     7.4661E-01  1.4588E-02 -4.8887E+00  4.9454E+00
ac ID =   33377                -6.9197E-01  5.7244E+01 -5.7442E-01  5.7251E+01
                               -3.8188E-01  1.7689E+01 -4.7867E+01  2.5147E+03

           1    9.10009E+00     7.2881E-01  7.8309E-03 -4.8906E+00  4.9446E+00
ac ID =   33377                -1.0684E+00  5.8237E+01 -1.7911E-01  5.8247E+01
                               -3.8174E-01  1.7888E+01 -4.7805E+01  2.5147E+03

           1    9.20008E+00     7.2236E-01 -1.6032E-02 -4.9022E+00  4.9551E+00
ac ID =   33377                -5.5786E-01  5.9058E+01 -2.7156E-01  5.9062E+01
                               -3.8150E-01  1.8085E+01 -4.7737E+01  2.5147E+03

           1    9.30007E+00     7.5366E-01  1.4498E-02 -4.8973E+00  4.9550E+00
ac ID =   33377                -1.4448E+00  6.0283E+01 -5.5168E-01  6.0303E+01
                               -3.8133E-01  1.8281E+01 -4.7662E+01  2.5147E+03

           1    9.40006E+00     7.2427E-01  1.1257E-02 -4.9136E+00  4.9667E+00
ac ID =   33377                -1.1183E+00  6.0720E+01  1.8803E-01  6.0731E+01
                               -3.8106E-01  1.8476E+01 -4.7582E+01  2.5147E+03

           1    9.50005E+00     7.2285E-01 -4.6153E-03 -4.9189E+00  4.9717E+00
ac ID =   33377                -8.5073E-01  6.1917E+01  3.4353E-01  6.1924E+01
                               -3.8064E-01  1.8669E+01 -4.7495E+01  2.5147E+03

           1    9.60004E+00     7.5042E-01  5.1005E-03 -4.8438E+00  4.9015E+00
ac ID =   33377                -9.4822E-01  6.3269E+01  3.0997E-01  6.3277E+01
                               -3.8020E-01  1.8861E+01 -4.7402E+01  2.5147E+03

           1    9.70003E+00     7.5506E-01  7.3972E-03 -4.8318E+00  4.8905E+00
ac ID =   33377                -6.9430E-01  6.4608E+01  2.9787E-01  6.4613E+01
                               -3.7969E-01  1.9051E+01 -4.7303E+01  2.5147E+03

           1    9.80002E+00     7.5734E-01 -5.2119E-03 -4.8348E+00  4.8938E+00
ac ID =   33377                -1.1818E+00  6.5218E+01  3.4710E-01  6.5230E+01
                               -3.7908E-01  1.9239E+01 -4.7198E+01  2.5147E+03

           1    9.90001E+00     7.5348E-01  1.5076E-02 -4.7859E+00  4.8448E+00
ac ID =   33377                -7.2747E-01  6.5824E+01  2.2089E-01  6.5829E+01
                               -3.7843E-01  1.9426E+01 -4.7086E+01  2.5147E+03

           1    1.00005E+01     7.8252E-01 -4.0341E-03 -4.7635E+00  4.8274E+00
ac ID =   33377                -1.2224E+00  6.6765E+01  2.0221E-01  6.6776E+01
                               -3.7761E-01  1.9613E+01 -4.6969E+01  2.5147E+03

           1    1.01005E+01     7.4842E-01  3.5335E-02 -4.7441E+00  4.8029E+00
ac ID =   33377                -1.3134E+00  6.7066E+01  1.9406E-02  6.7079E+01
                               -3.7681E-01  1.9797E+01 -4.6846E+01  2.5147E+03

           1    1.02005E+01     7.5281E-01  9.6866E-03 -4.7121E+00  4.7718E+00
ac ID =   33377                -1.4676E+00  6.7798E+01 -2.9937E-01  6.7814E+01
                               -3.7578E-01  1.9979E+01 -4.6717E+01  2.5147E+03

           1    1.03005E+01     7.5400E-01  3.0746E-03 -4.6720E+00  4.7325E+00
ac ID =   33377                -9.1128E-01  6.8438E+01 -3.3069E-01  6.8445E+01
                               -3.7469E-01  2.0160E+01 -4.6583E+01  2.5147E+03

           1    1.04005E+01     7.8044E-01  1.6199E-02 -4.6140E+00  4.6796E+00
ac ID =   33377                -9.7254E-01  6.9162E+01 -2.3000E-01  6.9170E+01
                               -3.7352E-01  2.0340E+01 -4.6443E+01  2.5147E+03

           1    1.05004E+01     7.7588E-01  5.5907E-03 -4.5124E+00  4.5786E+00
ac ID =   33377                -8.1431E-01  6.9520E+01  1.7112E-01  6.9525E+01
                               -3.7221E-01  2.0519E+01 -4.6299E+01  2.5147E+03

           1    1.06004E+01     7.5360E-01  1.2141E-02 -4.4115E+00  4.4754E+00
ac ID =   33377                -7.2380E-01  6.9617E+01 -2.8991E-02  6.9621E+01
                               -3.7086E-01  2.0696E+01 -4.6149E+01  2.5147E+03

           1    1.07004E+01     7.8684E-01 -1.0247E-02 -4.3821E+00  4.4522E+00
ac ID =   33377                -4.1642E-01  7.0140E+01 -2.6328E-01  7.0142E+01
                               -3.6936E-01  2.0873E+01 -4.5994E+01  2.5147E+03

           1    1.08004E+01     7.7141E-01  2.3055E-03 -4.2907E+00  4.3595E+00
ac ID =   33377                -3.9174E-01  7.0008E+01 -3.6083E-01  7.0010E+01
                               -3.6793E-01  2.1048E+01 -4.5835E+01  2.5147E+03

           1    1.09004E+01     7.5533E-01  1.4385E-03 -4.1800E+00  4.2477E+00
ac ID =   33377                -9.1485E-01  6.9662E+01 -1.1193E-01  6.9668E+01
                               -3.6641E-01  2.1224E+01 -4.5672E+01  2.5147E+03

           1    1.10004E+01     7.6384E-01  1.3488E-02 -4.0950E+00  4.1657E+00
ac ID =   33377                -9.3607E-01  7.0552E+01 -2.4460E-01  7.0559E+01
                               -3.6484E-01  2.1398E+01 -4.5505E+01  2.5147E+03

           1    1.11004E+01     7.7169E-01  8.6537E-03 -4.0082E+00  4.0818E+00
ac ID =   33377                -1.0449E+00  7.1286E+01  8.1155E-02  7.1293E+01
                               -3.6316E-01  2.1572E+01 -4.5334E+01  2.5147E+03

           1    1.12004E+01     7.7053E-01 -4.7327E-04 -3.8792E+00  3.9550E+00
ac ID =   33377                -4.2189E-01  7.1486E+01  5.6537E-01  7.1490E+01
                               -3.6138E-01  2.1746E+01 -4.5159E+01  2.5147E+03

           1    1.13004E+01     7.9320E-01  2.1196E-02 -3.7520E+00  3.8350E+00
ac ID =   33377                -1.3699E+00  7.1350E+01  2.8379E-01  7.1364E+01
                               -3.5950E-01  2.1920E+01 -4.4982E+01  2.5147E+03

           1    1.14004E+01     7.8173E-01 -4.6784E-03 -3.6276E+00  3.7109E+00
ac ID =   33377                -4.6219E-01  7.1430E+01 -3.4420E-02  7.1432E+01
                               -3.5757E-01  2.2095E+01 -4.4801E+01  2.5147E+03

           1    1.15003E+01     7.8714E-01  3.9066E-03 -3.5570E+00  3.6430E+00
ac ID =   33377                -8.5501E-01  7.1382E+01  1.5293E-02  7.1387E+01
                               -3.5559E-01  2.2269E+01 -4.4618E+01  2.5147E+03

           1    1.16003E+01     7.5332E-01  7.6348E-03 -3.4595E+00  3.5406E+00
ac ID =   33377                -6.4091E-01  7.1048E+01 -3.2862E-01  7.1052E+01
                               -3.5360E-01  2.2444E+01 -4.4433E+01  2.5147E+03

           1    1.17003E+01     7.5340E-01  8.9018E-03 -3.3377E+00  3.4217E+00
ac ID =   33377                -6.2286E-01  7.1317E+01  8.9194E-02  7.1320E+01
                               -3.5151E-01  2.2619E+01 -4.4246E+01  2.5147E+03

           1    1.18003E+01     7.8715E-01  1.6354E-02 -3.2755E+00  3.3688E+00
ac ID =   33377                -8.8712E-01  7.1778E+01  2.8974E-01  7.1784E+01
                               -3.4934E-01  2.2794E+01 -4.4056E+01  2.5147E+03

           1    1.19003E+01     7.1535E-01  4.2733E-04 -3.1424E+00  3.2228E+00
ac ID =   33377                -5.9531E-01  7.1125E+01 -2.1481E-01  7.1128E+01
                               -3.4704E-01  2.2969E+01 -4.3865E+01  2.5147E+03

           1    1.20003E+01     7.3963E-01  5.4339E-03 -3.0460E+00  3.1345E+00
ac ID =   33377                -1.1754E+00  7.1393E+01 -4.2232E-01  7.1404E+01
                               -3.4467E-01  2.3145E+01 -4.3672E+01  2.5147E+03

           1    1.21003E+01     7.1170E-01  9.5494E-03 -2.9139E+00  2.9995E+00
ac ID =   33377                -8.4892E-01  7.0774E+01  2.9882E-01  7.0780E+01
                               -3.4239E-01  2.3321E+01 -4.3478E+01  2.5147E+03

           1    1.22003E+01     7.3711E-01  6.1815E-03 -2.7700E+00  2.8664E+00
ac ID =   33377                -5.7968E-01  7.0534E+01  1.1233E-01  7.0536E+01
                               -3.3994E-01  2.3498E+01 -4.3283E+01  2.5147E+03

           1    1.23003E+01     6.7569E-01  1.6518E-02 -2.5995E+00  2.6860E+00
ac ID =   33377                -9.8972E-01  6.9819E+01  1.2934E-01  6.9826E+01
                               -3.3749E-01  2.3675E+01 -4.3087E+01  2.5147E+03

           1    1.24003E+01     7.3044E-01 -2.5396E-03 -2.5190E+00  2.6228E+00
ac ID =   33377                -8.1763E-01  6.9206E+01 -2.0840E-01  6.9211E+01
                               -3.3492E-01  2.3853E+01 -4.2890E+01  2.5147E+03

           1    1.25002E+01     6.9334E-01  2.0932E-02 -2.3957E+00  2.4941E+00
ac ID =   33377                -1.2401E+00  6.9527E+01 -5.8543E-01  6.9540E+01
                               -3.3239E-01  2.4032E+01 -4.2693E+01  2.5147E+03

           1    1.26002E+01     6.3778E-01 -2.4677E-03 -2.2076E+00  2.2979E+00
ac ID =   33377                -6.6910E-03  6.6720E+01 -8.7107E-01  6.6726E+01
                               -3.2967E-01  2.4211E+01 -4.2496E+01  2.5147E+03

           1    1.27002E+01     6.5843E-01  2.7891E-02 -2.1270E+00  2.2268E+00
ac ID =   33377                -1.6571E+00  6.7545E+01 -2.1054E-02  6.7565E+01
                               -3.2703E-01  2.4390E+01 -4.2299E+01  2.5147E+03

           1    1.28002E+01     6.7344E-01  6.4681E-03 -1.9967E+00  2.1072E+00
ac ID =   33377                -2.8046E-01  6.6587E+01  8.0580E-02  6.6587E+01
                               -3.2437E-01  2.4571E+01 -4.2102E+01  2.5147E+03

           1    1.29002E+01     6.1160E-01  8.2532E-04 -1.8772E+00  1.9743E+00
ac ID =   33377                -9.2804E-01  6.5044E+01  1.0452E-01  6.5051E+01
                               -3.2166E-01  2.4752E+01 -4.1905E+01  2.5147E+03

           1    1.30002E+01     6.1952E-01  2.3424E-02 -1.7549E+00  1.8612E+00
ac ID =   33377                -1.1273E+00  6.4395E+01 -2.5348E-01  6.4405E+01
                               -3.1894E-01  2.4935E+01 -4.1709E+01  2.5147E+03

           1    1.31002E+01     6.4876E-01  4.1639E-03 -1.6257E+00  1.7504E+00
ac ID =   33377                -7.6597E-01  6.4312E+01 -5.7218E-01  6.4320E+01
                               -3.1623E-01  2.5118E+01 -4.1514E+01  2.5147E+03

           1    1.32002E+01     5.8947E-01  7.3291E-03 -1.5408E+00  1.6497E+00
ac ID =   33377                -6.9236E-01  6.3676E+01 -1.4687E-01  6.3680E+01
                               -3.1345E-01  2.5302E+01 -4.1320E+01  2.5147E+03

           1    1.33002E+01     5.7929E-01  1.1000E-02 -1.4464E+00  1.5581E+00
ac ID =   33377                -1.5817E+00  6.3512E+01  5.7433E-01  6.3534E+01
                               -3.1066E-01  2.5486E+01 -4.1127E+01  2.5147E+03

           1    1.34002E+01     5.9450E-01  7.5253E-03 -1.3612E+00  1.4853E+00
ac ID =   33377                -6.0461E-01  6.4837E+01  4.7842E-01  6.4842E+01
                               -3.0802E-01  2.5672E+01 -4.0935E+01  2.5147E+03

           1    1.35001E+01     6.1069E-01  1.8775E-02 -1.2799E+00  1.4183E+00
ac ID =   33377                -1.3927E+00  6.4819E+01 -2.4930E-01  6.4834E+01
                               -3.0519E-01  2.5858E+01 -4.0745E+01  2.5147E+03

           1    1.36001E+01     5.4723E-01 -2.8545E-02 -1.1559E+00  1.2792E+00
ac ID =   33377                -4.4888E-01  6.5038E+01 -8.3386E-01  6.5045E+01
                               -3.0244E-01  2.6045E+01 -4.0556E+01  2.5147E+03

           1    1.37001E+01     5.7412E-01  5.7505E-03 -1.0329E+00  1.1818E+00
ac ID =   33377                -6.6165E-01  6.4549E+01 -3.5231E-02  6.4552E+01
                               -2.9980E-01  2.6233E+01 -4.0368E+01  2.5147E+03

           1    1.38001E+01     6.1562E-01  1.0760E-02 -9.8244E-01  1.1594E+00
ac ID =   33377                -8.6149E-01  6.5284E+01  3.8123E-01  6.5291E+01
                               -2.9716E-01  2.6421E+01 -4.0183E+01  2.5147E+03

           1    1.39001E+01     5.4484E-01 -3.1608E-03 -8.3059E-01  9.9334E-01
ac ID =   33377                -6.6837E-01  6.3339E+01  1.0853E+00  6.3352E+01
                               -2.9443E-01  2.6609E+01 -4.0000E+01  2.5147E+03

           1    1.40001E+01     5.5787E-01 -4.5197E-03 -7.4107E-01  9.2759E-01
ac ID =   33377                -4.4472E-02  6.3392E+01 -3.5421E-01  6.3393E+01
                               -2.9190E-01  2.6799E+01 -3.9818E+01  2.5147E+03

           1    1.41001E+01     5.9919E-01  2.1248E-02 -6.8485E-01  9.1022E-01
ac ID =   33377                -1.4988E+00  6.3921E+01 -4.7529E-01  6.3941E+01
                               -2.8922E-01  2.6988E+01 -3.9639E+01  2.5147E+03

           1    1.42001E+01     5.6764E-01  1.2424E-02 -5.6776E-01  8.0295E-01
ac ID =   33377                -2.9245E-01  6.3447E+01 -2.0420E-01  6.3448E+01
                               -2.8674E-01  2.7178E+01 -3.9462E+01  2.5147E+03

           1    1.43001E+01     4.9914E-01 -5.8897E-03 -4.4855E-01  6.7110E-01
ac ID =   33377                -6.1995E-01  6.1820E+01  2.7683E-02  6.1823E+01
                               -2.8420E-01  2.7368E+01 -3.9288E+01  2.5147E+03

           1    1.44001E+01     5.8392E-01  4.2099E-02 -3.9850E-01  7.0819E-01
ac ID =   33377                -1.8376E+00  6.2425E+01  1.6018E-01  6.2452E+01
                               -2.8176E-01  2.7559E+01 -3.9117E+01  2.5147E+03

           1    1.45000E+01     5.5438E-01 -2.1521E-02 -3.0429E-01  6.3277E-01
ac ID =   33377                 8.5971E-02  6.1230E+01 -1.0805E+00  6.1240E+01
                               -2.7940E-01  2.7750E+01 -3.8948E+01  2.5147E+03

           1    1.46000E+01     5.2847E-01  2.0770E-02 -2.0641E-01  5.6773E-01
ac ID =   33377                -9.4057E-01  5.9914E+01 -3.7045E-01  5.9922E+01
                               -2.7708E-01  2.7941E+01 -3.8782E+01  2.5147E+03

           1    1.47000E+01     5.4655E-01  7.5844E-03 -1.8848E-01  5.7818E-01
ac ID =   33377                -9.6852E-01  6.0540E+01  7.0576E-01  6.0551E+01
                               -2.7471E-01  2.8132E+01 -3.8620E+01  2.5147E+03

           1    1.48005E+01     5.5192E-01 -7.7071E-03 -1.1181E-01  5.6318E-01
ac ID =   33377                -7.4125E-01  6.0302E+01  2.1732E-01  6.0307E+01
                               -2.7246E-01  2.8325E+01 -3.8459E+01  2.5147E+03

           1    1.49005E+01     5.2014E-01  2.9558E-02 -1.4264E-02  5.2118E-01
ac ID =   33377                -6.3260E-01  5.9556E+01 -5.3739E-01  5.9562E+01
                               -2.7031E-01  2.8517E+01 -3.8303E+01  2.5147E+03

           1    1.50005E+01     5.2431E-01 -3.5746E-02  9.5183E-03  5.2562E-01
ac ID =   33377                -8.2336E-01  5.9587E+01 -6.9488E-01  5.9596E+01
                               -2.6791E-01  2.8709E+01 -3.8150E+01  2.5147E+03

           1    1.51005E+01     5.3033E-01  3.2854E-02  7.1891E-02  5.3619E-01
ac ID =   33377                -1.2163E+00  5.9642E+01  6.6085E-02  5.9655E+01
                               -2.6599E-01  2.8901E+01 -3.8001E+01  2.5147E+03

           1    1.52005E+01     4.9882E-01 -1.4555E-02  1.2409E-01  5.1423E-01
ac ID =   33377                -2.9820E-01  5.8708E+01 -4.4960E-01  5.8711E+01
                               -2.6387E-01  2.9094E+01 -3.7855E+01  2.5147E+03

           1    1.53005E+01     4.8349E-01  1.3891E-02  1.2195E-01  4.9883E-01
ac ID =   33377                -1.3506E+00  5.7787E+01 -2.8109E-01  5.7804E+01
                               -2.6174E-01  2.9286E+01 -3.7712E+01  2.5147E+03

           1    1.54005E+01     5.3419E-01  4.2736E-03  1.7365E-01  5.6172E-01
ac ID =   33377                -7.4705E-01  5.7989E+01 -1.9273E-01  5.7994E+01
                               -2.5986E-01  2.9479E+01 -3.7573E+01  2.5147E+03

           1    1.55004E+01     4.9097E-01 -5.7802E-03  2.7353E-01  5.6205E-01
ac ID =   33377                -8.1280E-02  5.7205E+01  2.5565E-01  5.7206E+01
                               -2.5792E-01  2.9672E+01 -3.7438E+01  2.5147E+03

           1    1.56004E+01     5.0126E-01  2.5685E-02  2.7849E-01  5.7400E-01
ac ID =   33377                -1.2328E+00  5.7855E+01  7.9676E-01  5.7874E+01
                               -2.5593E-01  2.9865E+01 -3.7307E+01  2.5147E+03

           1    1.57004E+01     5.0873E-01 -1.1800E-02  3.3638E-01  6.0999E-01
ac ID =   33377                -4.2726E-01  5.7658E+01 -1.1308E-01  5.7659E+01
                               -2.5406E-01  3.0057E+01 -3.7179E+01  2.5147E+03

           1    1.58004E+01     4.7311E-01  2.9976E-02  3.5572E-01  5.9268E-01
ac ID =   33377                -1.1604E+00  5.6952E+01 -3.5868E-01  5.6965E+01
                               -2.5225E-01  3.0250E+01 -3.7055E+01  2.5147E+03

           1    1.59004E+01     4.8227E-01 -4.6240E-03  4.0122E-01  6.2736E-01
ac ID =   33377                -6.2984E-01  5.4959E+01 -2.2242E-01  5.4963E+01
                               -2.5043E-01  3.0442E+01 -3.6934E+01  2.5147E+03

           1    1.60004E+01     4.5871E-01  9.2435E-03  5.0217E-01  6.8020E-01
ac ID =   33377                -3.9916E-01  5.3680E+01  1.1065E-01  5.3681E+01
                               -2.4865E-01  3.0635E+01 -3.6818E+01  2.5147E+03

           1    1.61004E+01     4.8505E-01  4.0880E-03  4.7091E-01  6.7605E-01
ac ID =   33377                -8.1063E-01  5.3278E+01 -2.4124E-01  5.3285E+01
                               -2.4693E-01  3.0826E+01 -3.6705E+01  2.5147E+03

           1    1.62004E+01     4.3251E-01  2.9177E-02  4.9742E-01  6.5981E-01
ac ID =   33377                -1.2261E+00  5.1573E+01 -3.6599E-01  5.1589E+01
                               -2.4527E-01  3.1018E+01 -3.6595E+01  2.5147E+03

           1    1.63004E+01     4.6105E-01 -1.2450E-02  5.0628E-01  6.8487E-01
ac ID =   33377                -8.0418E-01  5.2242E+01 -3.8762E-01  5.2250E+01
                               -2.4355E-01  3.1209E+01 -3.6490E+01  2.5147E+03

           1    1.64004E+01     4.5974E-01  2.1225E-02  5.4400E-01  7.1256E-01
ac ID =   33377                -6.0570E-01  5.2704E+01  8.9130E-02  5.2707E+01
                               -2.4195E-01  3.1400E+01 -3.6388E+01  2.5147E+03

           1    1.65003E+01     4.2575E-01  5.1675E-04  5.6138E-01  7.0456E-01
ac ID =   33377                -7.1026E-01  5.1388E+01  3.6084E-01  5.1394E+01
                               -2.4030E-01  3.1590E+01 -3.6290E+01  2.5147E+03

           1    1.66003E+01     4.4114E-01  3.0297E-02  5.0453E-01  6.7088E-01
ac ID =   33377                -1.2983E+00  5.0736E+01 -7.0236E-02  5.0752E+01
                               -2.3879E-01  3.1779E+01 -3.6195E+01  2.5147E+03

           1    1.67003E+01     4.2088E-01 -7.2960E-03  5.4926E-01  6.9201E-01
ac ID =   33377                -5.5172E-01  4.9645E+01 -3.7598E-01  4.9649E+01
                               -2.3721E-01  3.1968E+01 -3.6104E+01  2.5147E+03

           1    1.68003E+01     3.9646E-01  1.8809E-02  5.7586E-01  6.9939E-01
ac ID =   33377                -1.4308E+00  4.8044E+01 -2.9822E-01  4.8067E+01
                               -2.3566E-01  3.2157E+01 -3.6016E+01  2.5147E+03

           1    1.69003E+01     3.9181E-01  2.9822E-02  6.2692E-01  7.3989E-01
ac ID =   33377                -9.8825E-01  4.7161E+01  4.3114E-02  4.7171E+01
                               -2.3418E-01  3.2344E+01 -3.5932E+01  2.5147E+03

           1    1.70003E+01     4.2152E-01 -4.0129E-03  5.8739E-01  7.2300E-01
ac ID =   33377                -1.0831E+00  4.6761E+01  3.2769E-01  4.6774E+01
                               -2.3260E-01  3.2531E+01 -3.5851E+01  2.5147E+03

           1    1.71003E+01     4.2056E-01  1.2805E-02  5.5406E-01  6.9571E-01
ac ID =   33377                -9.8926E-01  4.6211E+01  2.6999E-02  4.6222E+01
                               -2.3122E-01  3.2717E+01 -3.5773E+01  2.5147E+03

           1    1.72003E+01     3.7164E-01  9.6216E-03  5.8255E-01  6.9106E-01
ac ID =   33377                -1.4387E+00  4.3918E+01  6.4116E-01  4.3946E+01
                               -2.2982E-01  3.2902E+01 -3.5698E+01  2.5147E+03

           1    1.73003E+01     4.0688E-01  6.3318E-03  6.2010E-01  7.4170E-01
ac ID =   33377                -5.2446E-01  4.4643E+01  2.5046E-01  4.4647E+01
                               -2.2858E-01  3.3086E+01 -3.5627E+01  2.5147E+03

           1    1.74003E+01     3.8015E-01 -7.3536E-03  5.7501E-01  6.8935E-01
ac ID =   33377                -3.0220E-01  4.3727E+01 -5.5334E-01  4.3731E+01
                               -2.2735E-01  3.3269E+01 -3.5559E+01  2.5147E+03

           1    1.75002E+01     3.6667E-01  2.9775E-02  5.0590E-01  6.2551E-01
ac ID =   33377                -1.3176E+00  4.3196E+01 -5.2132E-01  4.3220E+01
                               -2.2618E-01  3.3452E+01 -3.5493E+01  2.5147E+03

           1    1.76002E+01     3.6757E-01  1.1376E-02  5.4331E-01  6.5606E-01
ac ID =   33377                -9.9249E-01  4.1947E+01 -2.6450E-02  4.1958E+01
                               -2.2504E-01  3.3633E+01 -3.5431E+01  2.5147E+03

           1    1.77002E+01     3.7726E-01  1.8626E-02  5.6416E-01  6.7894E-01
ac ID =   33377                -1.3922E+00  4.0885E+01 -9.4350E-02  4.0909E+01
                               -2.2383E-01  3.3812E+01 -3.5371E+01  2.5147E+03

           1    1.78002E+01     3.2452E-01  1.3550E-02  5.4555E-01  6.3492E-01
ac ID =   33377                -1.3584E+00  3.9473E+01 -1.4337E-01  3.9496E+01
                               -2.2266E-01  3.3991E+01 -3.5314E+01  2.5147E+03

           1    1.79002E+01     3.6283E-01  3.4496E-02  5.0730E-01  6.2465E-01
ac ID =   33377                -2.1329E+00  3.9605E+01  1.6991E-01  3.9662E+01
                               -2.2161E-01  3.4169E+01 -3.5259E+01  2.5147E+03

           1    1.80002E+01     3.5810E-01 -1.7012E-02  4.7645E-01  5.9626E-01
ac ID =   33377                -7.7626E-01  3.8441E+01  2.9867E-01  3.8450E+01
                               -2.2065E-01  3.4345E+01 -3.5207E+01  2.5147E+03

           1    1.81002E+01     3.2211E-01  5.7475E-04  4.6790E-01  5.6805E-01
ac ID =   33377                -9.2697E-01  3.6628E+01  2.7490E-01  3.6641E+01
                               -2.1981E-01  3.4520E+01 -3.5158E+01  2.5147E+03

           1    1.82002E+01     3.2375E-01  2.0330E-02  4.7509E-01  5.7528E-01
ac ID =   33377                -9.5618E-01  3.5426E+01  3.5782E-02  3.5439E+01
                               -2.1920E-01  3.4694E+01 -3.5110E+01  2.5147E+03

           1    1.83002E+01     3.1323E-01  1.4133E-02  4.7312E-01  5.6758E-01
ac ID =   33377                -5.2296E-01  3.4288E+01 -4.5915E-01  3.4295E+01
                               -2.1851E-01  3.4866E+01 -3.5065E+01  2.5147E+03

           1    1.84002E+01     2.9910E-01 -4.1098E-03  4.2249E-01  5.1766E-01
ac ID =   33377                -7.8409E-01  3.2879E+01 -3.7162E-01  3.2890E+01
                               -2.1777E-01  3.5037E+01 -3.5022E+01  2.5147E+03

           1    1.85001E+01     2.9972E-01  2.5630E-02  4.1985E-01  5.1649E-01
ac ID =   33377                -1.3438E+00  3.2404E+01 -2.3673E-01  3.2433E+01
                               -2.1714E-01  3.5206E+01 -3.4981E+01  2.5147E+03

           1    1.86001E+01     3.2150E-01  6.6542E-03  4.1844E-01  5.2773E-01
ac ID =   33377                -1.6456E+00  3.1363E+01  1.4215E-01  3.1407E+01
                               -2.1648E-01  3.5375E+01 -3.4942E+01  2.5147E+03

           1    1.87001E+01     2.5455E-01  1.9176E-02  4.3920E-01  5.0800E-01
ac ID =   33377                -1.5229E+00  2.8973E+01  2.3697E-01  2.9014E+01
                               -2.1607E-01  3.5542E+01 -3.4905E+01  2.5147E+03

           1    1.88001E+01     2.8912E-01  2.2662E-02  3.5997E-01  4.6225E-01
ac ID =   33377                -1.5985E+00  2.8638E+01 -2.4821E-01  2.8683E+01
                               -2.1572E-01  3.5707E+01 -3.4869E+01  2.5147E+03

           1    1.89001E+01     3.0589E-01  3.2745E-02  3.0585E-01  4.3380E-01
ac ID =   33377                -2.2139E+00  2.8818E+01  2.0972E-01  2.8904E+01
                               -2.1521E-01  3.5871E+01 -3.4835E+01  2.5147E+03

           1    1.90001E+01     2.9302E-01 -8.6768E-03  3.0708E-01  4.2454E-01
ac ID =   33377                -2.2951E-01  2.7973E+01  1.2806E-01  2.7974E+01
                               -2.1488E-01  3.6034E+01 -3.4803E+01  2.5147E+03

           1    1.91001E+01     2.8569E-01 -2.0566E-02  2.9876E-01  4.1388E-01
ac ID =   33377                -3.9867E-02  2.7504E+01  2.4231E-01  2.7505E+01
                               -2.1457E-01  3.6195E+01 -3.4772E+01  2.5147E+03

           1    1.92001E+01     3.0901E-01  1.8257E-02  2.6103E-01  4.0492E-01
ac ID =   33377                -8.6008E-01  2.6815E+01 -2.1673E-01  2.6829E+01
                               -2.1441E-01  3.6355E+01 -3.4743E+01  2.5147E+03

           1    1.93001E+01     3.0735E-01  2.1817E-02  1.8001E-01  3.5685E-01
ac ID =   33377                -1.0141E+00  2.5617E+01 -6.1605E-01  2.5645E+01
                               -2.1422E-01  3.6513E+01 -3.4714E+01  2.5147E+03

           1    1.94001E+01     2.6296E-01 -5.5501E-03  1.5782E-01  3.0673E-01
ac ID =   33377                -6.0383E-01  2.4084E+01  1.1869E-01  2.4092E+01
                               -2.1392E-01  3.6670E+01 -3.4688E+01  2.5147E+03

           1    1.95000E+01     2.9410E-01  5.0051E-03  1.8440E-01  3.4717E-01
ac ID =   33377                -1.2951E+00  2.3640E+01  3.1915E-01  2.3677E+01
                               -2.1361E-01  3.6826E+01 -3.4662E+01  2.5147E+03

           1    1.96000E+01     3.0166E-01  2.9018E-02  1.4724E-01  3.3693E-01
ac ID =   33377                -1.3951E+00  2.2777E+01  1.7065E-01  2.2820E+01
                               -2.1354E-01  3.6980E+01 -3.4637E+01  2.5147E+03

           1    1.97005E+01     2.6206E-01  2.6933E-02  1.0742E-01  2.8450E-01
ac ID =   33377                -1.6061E+00  2.0760E+01 -1.0846E-01  2.0823E+01
                               -2.1347E-01  3.7133E+01 -3.4613E+01  2.5147E+03

           1    1.98005E+01     2.7457E-01 -2.0549E-02  8.2692E-02  2.8749E-01
ac ID =   33377                -4.9378E-01  1.9567E+01 -2.3552E-01  1.9575E+01
                               -2.1334E-01  3.7284E+01 -3.4590E+01  2.5147E+03

           1    1.99005E+01     2.8360E-01  9.0169E-03  7.0768E-02  2.9243E-01
ac ID =   33377                -1.4485E-01  1.8480E+01 -1.8410E-01  1.8481E+01
                               -2.1350E-01  3.7434E+01 -3.4568E+01  2.5147E+03

           1    2.00005E+01     2.5232E-01  6.0288E-03  5.2897E-02  2.5787E-01
ac ID =   33377                -1.0577E-01  1.7020E+01  1.5289E-02  1.7020E+01
                               -2.1365E-01  3.7582E+01 -3.4546E+01  2.5147E+03

           1    2.01005E+01     2.1988E-01 -4.0769E-03  1.5655E-02  2.2048E-01
ac ID =   33377                -1.2093E-01  1.5881E+01  9.4108E-02  1.5882E+01
                               -2.1378E-01  3.7729E+01 -3.4525E+01  2.5147E+03

           1    2.02005E+01     2.7478E-01  1.2667E-02 -4.1948E-02  2.7826E-01
ac ID =   33377                -4.5708E-01  1.6006E+01 -3.8269E-01  1.6017E+01
                               -2.1390E-01  3.7874E+01 -3.4505E+01  2.5147E+03

           1    2.03005E+01     2.2402E-01 -6.1266E-03 -5.1581E-02  2.2997E-01
ac ID =   33377                -5.2637E-01  1.3725E+01 -1.8102E-01  1.3736E+01
                               -2.1387E-01  3.8018E+01 -3.4485E+01  2.5147E+03

           1    2.04005E+01     2.2083E-01  7.1661E-03 -3.6773E-02  2.2399E-01
ac ID =   33377                -9.2037E-01  1.2791E+01  1.0603E-01  1.2825E+01
                               -2.1405E-01  3.8161E+01 -3.4465E+01  2.5147E+03

           1    2.05004E+01     2.5147E-01  2.0430E-02 -7.5425E-02  2.6333E-01
ac ID =   33377                -1.2211E+00  1.2565E+01  2.4382E-01  1.2626E+01
                               -2.1432E-01  3.8303E+01 -3.4445E+01  2.5147E+03

           1    2.06004E+01     2.1863E-01  1.9866E-02 -1.3438E-01  2.5739E-01
ac ID =   33377                -1.6581E+00  1.1307E+01  2.7175E-01  1.1431E+01
                               -2.1442E-01  3.8443E+01 -3.4425E+01  2.5147E+03

           1    2.07004E+01     2.0914E-01  1.2317E-02 -1.4766E-01  2.5632E-01
ac ID =   33377                -5.8616E-01  1.0445E+01 -1.2478E-01  1.0463E+01
                               -2.1456E-01  3.8582E+01 -3.4406E+01  2.5147E+03

           1    2.08004E+01     2.3584E-01 -6.8668E-03 -1.3473E-01  2.7170E-01
ac ID =   33377                -4.2448E-02  9.7980E+00 -3.6590E-01  9.8049E+00
                               -2.1467E-01  3.8720E+01 -3.4386E+01  2.5147E+03

           1    2.09004E+01     2.2255E-01 -1.1984E-02 -1.6702E-01  2.7851E-01
ac ID =   33377                 3.4661E-01  8.8496E+00 -2.4047E-01  8.8596E+00
                               -2.1483E-01  3.8857E+01 -3.4367E+01  2.5147E+03

           1    2.10004E+01     2.2814E-01  9.2681E-03 -2.2011E-01  3.1714E-01
ac ID =   33377                -2.0124E-01  8.6239E+00 -2.9035E-02  8.6263E+00
                               -2.1502E-01  3.8992E+01 -3.4347E+01  2.5147E+03

           1    2.11004E+01     2.4939E-01 -9.2422E-03 -2.5360E-01  3.5580E-01
ac ID =   33377                 2.7563E-01  8.7613E+00  2.3108E-01  8.7687E+00
                               -2.1524E-01  3.9126E+01 -3.4326E+01  2.5147E+03

           1    2.12004E+01     2.4848E-01 -3.1368E-03 -2.2549E-01  3.3556E-01
ac ID =   33377                -1.2093E-01  8.1317E+00 -1.5597E-01  8.1341E+00
                               -2.1537E-01  3.9259E+01 -3.4306E+01  2.5147E+03

           1    2.13004E+01     2.4503E-01  1.3728E-02 -2.3345E-01  3.3871E-01
ac ID =   33377                -1.0261E+00  7.4150E+00 -4.3686E-01  7.4984E+00
                               -2.1552E-01  3.9391E+01 -3.4285E+01  2.5147E+03

           1    2.14004E+01     2.4665E-01  2.1234E-02 -2.7310E-01  3.6861E-01
ac ID =   33377                -1.2118E+00  6.3742E+00 -2.8088E-01  6.4945E+00
                               -2.1570E-01  3.9521E+01 -3.4264E+01  2.5147E+03

           1    2.15003E+01     2.3096E-01  6.1784E-03 -2.9922E-01  3.7804E-01
ac ID =   33377                -1.0088E+00  5.0678E+00  1.6829E-01  5.1700E+00
                               -2.1585E-01  3.9650E+01 -3.4243E+01  2.5147E+03

           1    2.16003E+01     2.2224E-01  2.1532E-02 -2.9161E-01  3.6727E-01
ac ID =   33377                -1.0303E+00  4.0854E+00  2.3101E-01  4.2196E+00
                               -2.1599E-01  3.9778E+01 -3.4221E+01  2.5147E+03

           1    2.17003E+01     2.3875E-01  6.2360E-03 -2.8529E-01  3.7207E-01
ac ID =   33377                -6.8730E-01  3.6232E+00 -1.3569E-01  3.6903E+00
                               -2.1613E-01  3.9905E+01 -3.4198E+01  2.5147E+03

           1    2.18003E+01     2.2884E-01 -1.1422E-02 -3.2759E-01  3.9976E-01
ac ID =   33377                 2.1872E-01  2.8443E+00 -3.7064E-01  2.8767E+00
                               -2.1628E-01  4.0031E+01 -3.4175E+01  2.5147E+03

           1    2.19003E+01     2.2391E-01  1.5834E-03 -3.5429E-01  4.1911E-01
ac ID =   33377                -1.0603E-01  1.9046E+00 -3.1016E-01  1.9326E+00
                               -2.1648E-01  4.0155E+01 -3.4151E+01  2.5147E+03

           1    2.20003E+01     2.2746E-01 -1.8036E-03 -3.6246E-01  4.2792E-01
ac ID =   33377                 2.7356E-01  9.0509E-01  5.0495E-03  9.4554E-01
                               -2.1662E-01  4.0278E+01 -3.4126E+01  2.5147E+03

           1    2.21003E+01     2.1437E-01  1.9898E-03 -3.4717E-01  4.0803E-01
ac ID =   33377                -1.2700E-01 -4.4552E-01  2.1981E-02  4.6379E-01
                               -2.1679E-01  4.0401E+01 -3.4101E+01  2.5147E+03

           1    2.22003E+01     2.1561E-01  9.5926E-03 -3.7348E-01  4.3136E-01
ac ID =   33377                -3.3654E-01 -1.3129E+00 -1.6314E-01  1.3651E+00
                               -2.1688E-01  4.0522E+01 -3.4075E+01  2.5147E+03

           1    2.23003E+01     1.9898E-01  1.8093E-02 -4.0634E-01  4.5280E-01
ac ID =   33377                -1.1920E+00 -2.3222E+00  1.6290E-01  2.6154E+00
                               -2.1694E-01  4.0642E+01 -3.4047E+01  2.5147E+03

           1    2.24003E+01     2.0666E-01  1.8671E-02 -3.9698E-01  4.4794E-01
ac ID =   33377                -1.2411E+00 -3.3550E+00  1.7112E-01  3.5812E+00
                               -2.1702E-01  4.0761E+01 -3.4019E+01  2.5147E+03

           1    2.25002E+01     1.9151E-01  3.5719E-03 -3.7751E-01  4.2333E-01
ac ID =   33377                -1.0004E+00 -4.4913E+00 -1.9999E-01  4.6057E+00
                               -2.1708E-01  4.0880E+01 -3.3990E+01  2.5147E+03

           1    2.26002E+01     2.0179E-01  1.3429E-02 -3.7948E-01  4.3000E-01
ac ID =   33377                -8.1133E-01 -5.2395E+00 -7.0938E-02  5.3024E+00
                               -2.1718E-01  4.0997E+01 -3.3960E+01  2.5147E+03

           1    2.27002E+01     2.0476E-01  1.8838E-02 -4.1010E-01  4.5876E-01
ac ID =   33377                -5.8270E-01 -5.8372E+00  1.0016E-01  5.8671E+00
                               -2.1730E-01  4.1114E+01 -3.3929E+01  2.5147E+03

           1    2.28002E+01     1.9584E-01 -1.0456E-02 -4.2504E-01  4.6810E-01
ac ID =   33377                 3.9805E-01 -6.3119E+00 -4.4375E-02  6.3246E+00
                               -2.1733E-01  4.1229E+01 -3.3897E+01  2.5147E+03

           1    2.29002E+01     1.9457E-01 -6.2452E-05 -3.8972E-01  4.3559E-01
ac ID =   33377                 1.4345E-01 -7.5747E+00 -9.6945E-02  7.5767E+00
                               -2.1737E-01  4.1344E+01 -3.3864E+01  2.5147E+03

           1    2.30002E+01     1.9826E-01  9.7432E-03 -3.8126E-01  4.2984E-01
ac ID =   33377                -8.4970E-02 -8.3456E+00 -6.6622E-02  8.3463E+00
                               -2.1741E-01  4.1459E+01 -3.3830E+01  2.5147E+03

           1    2.31002E+01     1.7392E-01  1.3742E-02 -3.8597E-01  4.2357E-01
ac ID =   33377                -3.3711E-01 -1.0002E+01  3.4717E-02  1.0008E+01
                               -2.1738E-01  4.1572E+01 -3.3794E+01  2.5147E+03

           1    2.32002E+01     1.6091E-01  1.4349E-02 -3.8916E-01  4.2136E-01
ac ID =   33377                -8.5206E-01 -1.0813E+01  2.4567E-01  1.0849E+01
                               -2.1739E-01  4.1685E+01 -3.3757E+01  2.5147E+03

           1    2.33002E+01     1.7466E-01  3.2220E-02 -3.6861E-01  4.0916E-01
ac ID =   33377                -1.3969E+00 -1.1067E+01  2.1452E-01  1.1157E+01
                               -2.1741E-01  4.1798E+01 -3.3720E+01  2.5147E+03

           1    2.34002E+01     1.7069E-01  1.1218E-02 -3.4024E-01  3.8082E-01
ac ID =   33377                -7.8164E-01 -1.1731E+01  2.4927E-01  1.1760E+01
                               -2.1748E-01  4.1910E+01 -3.3681E+01  2.5147E+03

           1    2.35001E+01     1.5304E-01 -8.2931E-03 -3.2318E-01  3.5768E-01
ac ID =   33377                -8.0072E-02 -1.3385E+01  1.5876E-01  1.3386E+01
                               -2.1752E-01  4.2022E+01 -3.3641E+01  2.5147E+03

           1    2.36001E+01     1.4697E-01  2.1713E-02 -3.3443E-01  3.6595E-01
ac ID =   33377                -2.1089E-01 -1.4162E+01 -7.5651E-02  1.4164E+01
                               -2.1771E-01  4.2133E+01 -3.3600E+01  2.5147E+03

           1    2.37001E+01     1.6354E-01  3.2759E-03 -3.2784E-01  3.6639E-01
ac ID =   33377                 1.9225E-01 -1.4663E+01  7.9337E-02  1.4665E+01
                               -2.1779E-01  4.2244E+01 -3.3558E+01  2.5147E+03

           1    2.38001E+01     1.3371E-01 -2.2639E-02 -2.7265E-01  3.0451E-01
ac ID =   33377                 6.9700E-01 -1.5519E+01 -9.7188E-02  1.5535E+01
                               -2.1791E-01  4.2354E+01 -3.3515E+01  2.5147E+03

           1    2.39001E+01     1.3757E-01  8.5414E-03 -2.7252E-01  3.0539E-01
ac ID =   33377                -3.8825E-01 -1.6234E+01 -3.8187E-01  1.6244E+01
                               -2.1803E-01  4.2465E+01 -3.3471E+01  2.5147E+03

           1    2.40001E+01     1.5217E-01  2.8293E-02 -2.9409E-01  3.3234E-01
ac ID =   33377                -9.8393E-01 -1.6441E+01 -2.5798E-01  1.6472E+01
                               -2.1817E-01  4.2574E+01 -3.3426E+01  2.5147E+03

           1    2.41001E+01     1.4737E-01 -7.9889E-03 -2.6314E-01  3.0170E-01
ac ID =   33377                 9.2412E-02 -1.6985E+01 -8.9137E-02  1.6986E+01
                               -2.1834E-01  4.2684E+01 -3.3380E+01  2.5147E+03

           1    2.42001E+01     1.3506E-01  9.7845E-03 -2.1103E-01  2.5074E-01
ac ID =   33377                -5.0763E-01 -1.7552E+01  9.0074E-02  1.7559E+01
                               -2.1850E-01  4.2794E+01 -3.3333E+01  2.5147E+03

           1    2.43001E+01     1.6307E-01  3.2981E-02 -2.0291E-01  2.6240E-01
ac ID =   33377                -8.7650E-01 -1.7375E+01  6.6186E-01  1.7410E+01
                               -2.1872E-01  4.2904E+01 -3.3285E+01  2.5147E+03

           1    2.44001E+01     1.6475E-01  1.0106E-02 -2.1850E-01  2.7383E-01
ac ID =   33377                -8.8949E-02 -1.7709E+01  7.4809E-01  1.7725E+01
                               -2.1891E-01  4.3013E+01 -3.3236E+01  2.5147E+03

           1    2.45005E+01     1.5270E-01 -1.2998E-02 -2.0130E-01  2.5299E-01
ac ID =   33377                 2.4359E-01 -1.8136E+01 -5.2609E-02  1.8138E+01
                               -2.1910E-01  4.3123E+01 -3.3186E+01  2.5147E+03

           1    2.46005E+01     1.4755E-01  1.8487E-02 -1.5695E-01  2.1621E-01
ac ID =   33377                -4.7556E-01 -1.8731E+01 -1.8939E-01  1.8738E+01
                               -2.1936E-01  4.3232E+01 -3.3135E+01  2.5147E+03

           1    2.47005E+01     1.5829E-01  2.8043E-03 -1.1718E-01  1.9696E-01
ac ID =   33377                 2.7237E-01 -1.9153E+01 -2.2839E-01  1.9156E+01
                               -2.1975E-01  4.3341E+01 -3.3084E+01  2.5147E+03

           1    2.48005E+01     1.5208E-01  5.3865E-04 -1.2324E-01  1.9575E-01
ac ID =   33377                 5.3648E-01 -1.9812E+01  1.8618E-01  1.9820E+01
                               -2.2006E-01  4.3451E+01 -3.3032E+01  2.5147E+03

           1    2.49005E+01     1.2275E-01  1.7937E-02 -1.1058E-01  1.6618E-01
ac ID =   33377                -2.1587E-01 -2.0634E+01  1.9227E-01  2.0636E+01
                               -2.2040E-01  4.3560E+01 -3.2979E+01  2.5147E+03

