 LSTC 50th% Full_FE H-III Dummy (Beta Version, February 17, 2019)        
                    ls-dyna smp s R16 R16.0_619_d222963 date 03/18/2025

{BEGIN LEGEND}
 Entity #        Title
    22626                                                                                     
{END LEGEND}




 n o d a l   p r i n t   o u t   f o r   t i m e  s t e p       1                              ( at time 0.0000000E+00 )

 nodal point  x-disp     y-disp      z-disp      x-vel       y-vel       z-vel      x-accl      y-accl      z-accl      x-coor      y-coor      z-coor
    22626  0.00000E+00 0.00000E+00 0.00000E+00 0.00000E+00 0.00000E+00 0.00000E+00 0.00000E+00 0.00000E+00 0.00000E+00 4.65938E+00-2.81908E+01-4.49817E+01



 n o d a l   p r i n t   o u t   f o r   t i m e  s t e p       1                              ( at time 0.0000000E+00 )

 nodal point  x-rot      y-rot       z-rot       x-rot vel   y-rot vel   z-rot vel   x-rot acc   y-rot acc   z-rot acc
    22626  0.00000E+00 0.00000E+00 0.00000E+00 0.00000E+00 0.00000E+00 0.00000E+00 0.00000E+00 0.00000E+00 0.00000E+00



 n o d a l   p r i n t   o u t   f o r   t i m e  s t e p     201                              ( at time 9.9989993E-02 )

 nodal point  x-disp     y-disp      z-disp      x-vel       y-vel       z-vel      x-accl      y-accl      z-accl      x-coor      y-coor      z-coor
    22626  2.73667E-07 1.73590E-06-5.34270E-05 4.19793E-05 2.55534E-04-1.46811E-03 4.19835E-04 2.55560E-03-1.46826E-02 4.65938E+00-2.81908E+01-4.49818E+01



 n o d a l   p r i n t   o u t   f o r   t i m e  s t e p     201                              ( at time 9.9989993E-02 )

 nodal point  x-rot      y-rot       z-rot       x-rot vel   y-rot vel   z-rot vel   x-rot acc   y-rot acc   z-rot acc
    22626 -5.99071E-08-8.38760E-09-5.46392E-09-5.86937E-06-9.70105E-07-9.27444E-07-5.86996E-05-9.70203E-06-9.27537E-06



 n o d a l   p r i n t   o u t   f o r   t i m e  s t e p     401                              ( at time 1.9997999E-01 )

 nodal point  x-disp     y-disp      z-disp      x-vel       y-vel       z-vel      x-accl      y-accl      z-accl      x-coor      y-coor      z-coor
    22626  1.73150E-05 3.61719E-04-6.67555E-04 3.15466E-05 7.81062E-03-1.21526E-02-1.04338E-04 7.55584E-02-1.06856E-01 4.65939E+00-2.81905E+01-4.49824E+01



 n o d a l   p r i n t   o u t   f o r   t i m e  s t e p     401                              ( at time 1.9997999E-01 )

 nodal point  x-rot      y-rot       z-rot       x-rot vel   y-rot vel   z-rot vel   x-rot acc   y-rot acc   z-rot acc
    22626 -2.82045E-06-3.37309E-07-3.34815E-07-3.93865E-05-1.77118E-06-2.30769E-06-3.35205E-04-8.01152E-06-1.38038E-05



 n o d a l   p r i n t   o u t   f o r   t i m e  s t e p     601                              ( at time 2.9996998E-01 )

 nodal point  x-disp     y-disp      z-disp      x-vel       y-vel       z-vel      x-accl      y-accl      z-accl      x-coor      y-coor      z-coor
    22626  2.73507E-05 1.23986E-03-2.33808E-03 4.19260E-04 8.44600E-03-1.92442E-02 3.87752E-03 6.35444E-03-7.09230E-02 4.65940E+00-2.81896E+01-4.49841E+01



 n o d a l   p r i n t   o u t   f o r   t i m e  s t e p     601                              ( at time 2.9996998E-01 )

 nodal point  x-rot      y-rot       z-rot       x-rot vel   y-rot vel   z-rot vel   x-rot acc   y-rot acc   z-rot acc
    22626 -5.38724E-06-3.90727E-07-6.42877E-07-1.54286E-05-5.55713E-06-6.72616E-06 2.39603E-04-3.78633E-05-4.41892E-05



 n o d a l   p r i n t   o u t   f o r   t i m e  s t e p     801                              ( at time 3.9995997E-01 )

 nodal point  x-disp     y-disp      z-disp      x-vel       y-vel       z-vel      x-accl      y-accl      z-accl      x-coor      y-coor      z-coor
    22626  2.60741E-05 2.16152E-03-4.28184E-03-3.12707E-04 1.07254E-02-2.10813E-02-7.32040E-03 2.27963E-02-1.83728E-02 4.65940E+00-2.81887E+01-4.49860E+01



 n o d a l   p r i n t   o u t   f o r   t i m e  s t e p     801                              ( at time 3.9995997E-01 )

 nodal point  x-rot      y-rot       z-rot       x-rot vel   y-rot vel   z-rot vel   x-rot acc   y-rot acc   z-rot acc
    22626 -7.61990E-06-1.25240E-06-9.83801E-07-4.48175E-05-6.15292E-06-1.54915E-06-2.93918E-04-5.95845E-06 5.17753E-05



 n o d a l   p r i n t   o u t   f o r   t i m e  s t e p    1001                              ( at time 4.9994997E-01 )

 nodal point  x-disp     y-disp      z-disp      x-vel       y-vel       z-vel      x-accl      y-accl      z-accl      x-coor      y-coor      z-coor
    22626  4.02795E-06 3.43371E-03-6.74256E-03-2.42756E-04 1.41278E-02-2.86867E-02 6.99575E-04 3.40272E-02-7.60614E-02 4.65938E+00-2.81874E+01-4.49885E+01



 n o d a l   p r i n t   o u t   f o r   t i m e  s t e p    1001                              ( at time 4.9994997E-01 )

 nodal point  x-rot      y-rot       z-rot       x-rot vel   y-rot vel   z-rot vel   x-rot acc   y-rot acc   z-rot acc
    22626 -1.35606E-05-1.16769E-06-9.51458E-07-8.42276E-05 3.17703E-06 4.14600E-06-3.94141E-04 9.33088E-05 5.69572E-05



 n o d a l   p r i n t   o u t   f o r   t i m e  s t e p    1201                              ( at time 5.9993996E-01 )

 nodal point  x-disp     y-disp      z-disp      x-vel       y-vel       z-vel      x-accl      y-accl      z-accl      x-coor      y-coor      z-coor
    22626 -1.35631E-06 5.00561E-03-9.71169E-03 3.35240E-05 1.66384E-02-3.09688E-02 2.76308E-03 2.51091E-02-2.28236E-02 4.65937E+00-2.81858E+01-4.49914E+01



 n o d a l   p r i n t   o u t   f o r   t i m e  s t e p    1201                              ( at time 5.9993996E-01 )

 nodal point  x-rot      y-rot       z-rot       x-rot vel   y-rot vel   z-rot vel   x-rot acc   y-rot acc   z-rot acc
    22626 -2.02984E-05-8.80633E-07-9.57106E-07-5.90825E-05 3.95693E-06-2.02116E-06 2.51477E-04 7.79986E-06-6.16778E-05



 n o d a l   p r i n t   o u t   f o r   t i m e  s t e p    1401                              ( at time 6.9992995E-01 )

 nodal point  x-disp     y-disp      z-disp      x-vel       y-vel       z-vel      x-accl      y-accl      z-accl      x-coor      y-coor      z-coor
    22626 -5.17838E-05 6.83760E-03-1.31646E-02-4.80774E-04 1.96052E-02-3.89447E-02-5.14350E-03 2.96705E-02-7.97665E-02 4.65932E+00-2.81840E+01-4.49949E+01



 n o d a l   p r i n t   o u t   f o r   t i m e  s t e p    1401                              ( at time 6.9992995E-01 )

 nodal point  x-rot      y-rot       z-rot       x-rot vel   y-rot vel   z-rot vel   x-rot acc   y-rot acc   z-rot acc
    22626 -2.62082E-05-9.00863E-07-6.40079E-07-7.06331E-05 2.08811E-07 3.74630E-06-1.15518E-04-3.74850E-05 5.76804E-05



 n o d a l   p r i n t   o u t   f o r   t i m e  s t e p    1601                              ( at time 7.9991994E-01 )

 nodal point  x-disp     y-disp      z-disp      x-vel       y-vel       z-vel      x-accl      y-accl      z-accl      x-coor      y-coor      z-coor
    22626 -8.01264E-05 8.96658E-03-1.74540E-02-4.93278E-04 2.20691E-02-4.50678E-02-1.25051E-04 2.46416E-02-6.12376E-02 4.65930E+00-2.81819E+01-4.49992E+01



 n o d a l   p r i n t   o u t   f o r   t i m e  s t e p    1601                              ( at time 7.9991994E-01 )

 nodal point  x-rot      y-rot       z-rot       x-rot vel   y-rot vel   z-rot vel   x-rot acc   y-rot acc   z-rot acc
    22626 -3.43744E-05-8.92280E-07-5.31069E-07-9.15151E-05-4.92907E-06 1.57161E-06-2.08840E-04-5.13840E-05-2.17491E-05



 n o d a l   p r i n t   o u t   f o r   t i m e  s t e p    1801                              ( at time 8.9990994E-01 )

 nodal point  x-disp     y-disp      z-disp      x-vel       y-vel       z-vel      x-accl      y-accl      z-accl      x-coor      y-coor      z-coor
    22626 -1.16841E-04 1.12228E-02-2.19758E-02-2.87463E-04 2.39134E-02-4.55457E-02 2.05836E-03 1.84452E-02-4.77962E-03 4.65926E+00-2.81796E+01-4.50037E+01



 n o d a l   p r i n t   o u t   f o r   t i m e  s t e p    1801                              ( at time 8.9990994E-01 )

 nodal point  x-rot      y-rot       z-rot       x-rot vel   y-rot vel   z-rot vel   x-rot acc   y-rot acc   z-rot acc
    22626 -4.27509E-05-9.80635E-07-5.25974E-07-8.17174E-05 1.78150E-06-9.26374E-07 9.79865E-05 6.71124E-05-2.49823E-05



 n o d a l   p r i n t   o u t   f o r   t i m e  s t e p    2001                              ( at time 9.9989993E-01 )

 nodal point  x-disp     y-disp      z-disp      x-vel       y-vel       z-vel      x-accl      y-accl      z-accl      x-coor      y-coor      z-coor
    22626 -1.52140E-04 1.37440E-02-2.67095E-02-3.42840E-05 2.63258E-02-4.99493E-02 2.53205E-03 2.41261E-02-4.40404E-02 4.65922E+00-2.81771E+01-4.50084E+01



 n o d a l   p r i n t   o u t   f o r   t i m e  s t e p    2001                              ( at time 9.9989993E-01 )

 nodal point  x-rot      y-rot       z-rot       x-rot vel   y-rot vel   z-rot vel   x-rot acc   y-rot acc   z-rot acc
    22626 -5.17297E-05-9.46907E-07-4.83911E-07-1.05821E-04 1.01486E-06-3.27503E-06-2.41061E-04-7.66707E-06-2.34889E-05



 n o d a l   p r i n t   o u t   f o r   t i m e  s t e p    2201                              ( at time 1.0998899E+00 )

 nodal point  x-disp     y-disp      z-disp      x-vel       y-vel       z-vel      x-accl      y-accl      z-accl      x-coor      y-coor      z-coor
    22626 -1.59358E-04 1.64670E-02-3.20259E-02-3.37520E-04 2.87148E-02-5.59741E-02-3.03266E-03 2.38927E-02-6.02532E-02 4.65922E+00-2.81744E+01-4.50137E+01



 n o d a l   p r i n t   o u t   f o r   t i m e  s t e p    2201                              ( at time 1.0998899E+00 )

 nodal point  x-rot      y-rot       z-rot       x-rot vel   y-rot vel   z-rot vel   x-rot acc   y-rot acc   z-rot acc
    22626 -6.27988E-05-1.07460E-06-8.13857E-07-1.03054E-04-7.99185E-06-2.17104E-06 2.76793E-05-9.00762E-05 1.10410E-05



 n o d a l   p r i n t   o u t   f o r   t i m e  s t e p    2401                              ( at time 1.1998799E+00 )

 nodal point  x-disp     y-disp      z-disp      x-vel       y-vel       z-vel      x-accl      y-accl      z-accl      x-coor      y-coor      z-coor
    22626 -1.88671E-04 1.93894E-02-3.78883E-02-1.85471E-04 2.99547E-02-6.09865E-02 1.52064E-03 1.24000E-02-5.01296E-02 4.65919E+00-2.81714E+01-4.50196E+01



 n o d a l   p r i n t   o u t   f o r   t i m e  s t e p    2401                              ( at time 1.1998799E+00 )

 nodal point  x-rot      y-rot       z-rot       x-rot vel   y-rot vel   z-rot vel   x-rot acc   y-rot acc   z-rot acc
    22626 -7.28256E-05-1.71557E-06-1.08001E-06-1.02133E-04-7.45621E-06-3.38630E-06 9.20653E-06 5.35690E-06-1.21538E-05



 n o d a l   p r i n t   o u t   f o r   t i m e  s t e p    2601                              ( at time 1.2998699E+00 )

 nodal point  x-disp     y-disp      z-disp      x-vel       y-vel       z-vel      x-accl      y-accl      z-accl      x-coor      y-coor      z-coor
    22626 -2.21853E-04 2.25078E-02-4.41352E-02-2.46106E-04 3.22625E-02-6.36980E-02-6.06418E-04 2.30806E-02-2.71175E-02 4.65915E+00-2.81683E+01-4.50259E+01



 n o d a l   p r i n t   o u t   f o r   t i m e  s t e p    2601                              ( at time 1.2998699E+00 )

 nodal point  x-rot      y-rot       z-rot       x-rot vel   y-rot vel   z-rot vel   x-rot acc   y-rot acc   z-rot acc
    22626 -8.40093E-05-2.31185E-06-1.39393E-06-1.31348E-04-4.50625E-07-2.08525E-06-2.92184E-04 7.00628E-05 1.30118E-05



 n o d a l   p r i n t   o u t   f o r   t i m e  s t e p    2801                              ( at time 1.3998599E+00 )

 nodal point  x-disp     y-disp      z-disp      x-vel       y-vel       z-vel      x-accl      y-accl      z-accl      x-coor      y-coor      z-coor
    22626 -2.47627E-04 2.58369E-02-5.05903E-02-4.17405E-04 3.40519E-02-6.60464E-02-1.71316E-03 1.78955E-02-2.34869E-02 4.65913E+00-2.81650E+01-4.50323E+01



 n o d a l   p r i n t   o u t   f o r   t i m e  s t e p    2801                              ( at time 1.3998599E+00 )

 nodal point  x-rot      y-rot       z-rot       x-rot vel   y-rot vel   z-rot vel   x-rot acc   y-rot acc   z-rot acc
    22626 -9.76628E-05-2.21987E-06-1.57785E-06-1.40456E-04-1.11302E-06 6.36397E-07-9.10840E-05-6.62463E-06 2.72191E-05



 n o d a l   p r i n t   o u t   f o r   t i m e  s t e p    3001                              ( at time 1.4998499E+00 )

 nodal point  x-disp     y-disp      z-disp      x-vel       y-vel       z-vel      x-accl      y-accl      z-accl      x-coor      y-coor      z-coor
    22626 -2.90294E-04 2.93790E-02-5.75258E-02-4.34146E-04 3.65947E-02-7.30872E-02-1.67428E-04 2.54309E-02-7.04147E-02 4.65908E+00-2.81615E+01-4.50392E+01



 n o d a l   p r i n t   o u t   f o r   t i m e  s t e p    3001                              ( at time 1.4998499E+00 )

 nodal point  x-rot      y-rot       z-rot       x-rot vel   y-rot vel   z-rot vel   x-rot acc   y-rot acc   z-rot acc
    22626 -1.11483E-04-2.33875E-06-1.63472E-06-1.35247E-04-2.16702E-06-3.37347E-06 5.20977E-05-1.05410E-05-4.01027E-05



 n o d a l   p r i n t   o u t   f o r   t i m e  s t e p    3201                              ( at time 1.5998399E+00 )

 nodal point  x-disp     y-disp      z-disp      x-vel       y-vel       z-vel      x-accl      y-accl      z-accl      x-coor      y-coor      z-coor
    22626 -3.49842E-04 3.31988E-02-6.51372E-02-5.17192E-04 3.96992E-02-7.83614E-02-8.30547E-04 3.10481E-02-5.27473E-02 4.65903E+00-2.81576E+01-4.50469E+01



 n o d a l   p r i n t   o u t   f o r   t i m e  s t e p    3201                              ( at time 1.5998399E+00 )

 nodal point  x-rot      y-rot       z-rot       x-rot vel   y-rot vel   z-rot vel   x-rot acc   y-rot acc   z-rot acc
    22626 -1.24861E-04-2.63062E-06-1.69938E-06-1.43068E-04-5.48957E-06-6.17335E-08-7.82207E-05-3.32288E-05 3.31207E-05



 n o d a l   p r i n t   o u t   f o r   t i m e  s t e p    3401                              ( at time 1.6998299E+00 )

 nodal point  x-disp     y-disp      z-disp      x-vel       y-vel       z-vel      x-accl      y-accl      z-accl      x-coor      y-coor      z-coor
    22626 -4.07498E-04 3.73210E-02-7.31277E-02-7.95706E-04 4.28751E-02-8.10420E-02-2.78542E-03 3.17618E-02-2.68090E-02 4.65897E+00-2.81535E+01-4.50548E+01



 n o d a l   p r i n t   o u t   f o r   t i m e  s t e p    3401                              ( at time 1.6998299E+00 )

 nodal point  x-rot      y-rot       z-rot       x-rot vel   y-rot vel   z-rot vel   x-rot acc   y-rot acc   z-rot acc
    22626 -1.40321E-04-3.00913E-06-2.10423E-06-1.65919E-04-4.00704E-06-5.69669E-06-2.28535E-04 1.48267E-05-5.63552E-05



 n o d a l   p r i n t   o u t   f o r   t i m e  s t e p    3601                              ( at time 1.7998199E+00 )

 nodal point  x-disp     y-disp      z-disp      x-vel       y-vel       z-vel      x-accl      y-accl      z-accl      x-coor      y-coor      z-coor
    22626 -4.94039E-04 4.17441E-02-8.13167E-02-7.35640E-04 4.61389E-02-8.27044E-02 6.00725E-04 3.26409E-02-1.66256E-02 4.65888E+00-2.81491E+01-4.50630E+01



 n o d a l   p r i n t   o u t   f o r   t i m e  s t e p    3601                              ( at time 1.7998199E+00 )

 nodal point  x-rot      y-rot       z-rot       x-rot vel   y-rot vel   z-rot vel   x-rot acc   y-rot acc   z-rot acc
    22626 -1.57874E-04-3.70027E-06-3.31230E-06-1.76398E-04-7.43753E-06-1.57171E-05-1.04795E-04-3.43083E-05-1.00214E-04



 n o d a l   p r i n t   o u t   f o r   t i m e  s t e p    3801                              ( at time 1.8998099E+00 )

 nodal point  x-disp     y-disp      z-disp      x-vel       y-vel       z-vel      x-accl      y-accl      z-accl      x-coor      y-coor      z-coor
    22626 -5.51354E-04 4.67857E-02-8.98036E-02-4.60838E-04 5.46786E-02-8.73303E-02 2.74829E-03 8.54055E-02-4.62628E-02 4.65882E+00-2.81440E+01-4.50715E+01



 n o d a l   p r i n t   o u t   f o r   t i m e  s t e p    3801                              ( at time 1.8998099E+00 )

 nodal point  x-rot      y-rot       z-rot       x-rot vel   y-rot vel   z-rot vel   x-rot acc   y-rot acc   z-rot acc
    22626 -1.76190E-04-4.52385E-06-4.68508E-06-1.94808E-04-1.50293E-05-2.03178E-05-1.84117E-04-7.59257E-05-4.60112E-05



 n o d a l   p r i n t   o u t   f o r   t i m e  s t e p    4001                              ( at time 1.9997999E+00 )

 nodal point  x-disp     y-disp      z-disp      x-vel       y-vel       z-vel      x-accl      y-accl      z-accl      x-coor      y-coor      z-coor
    22626 -6.25871E-04 5.25923E-02-9.87412E-02-1.20355E-03 6.25173E-02-9.14816E-02-7.42791E-03 7.83949E-02-4.15174E-02 4.65875E+00-2.81382E+01-4.50805E+01



 n o d a l   p r i n t   o u t   f o r   t i m e  s t e p    4001                              ( at time 1.9997999E+00 )

 nodal point  x-rot      y-rot       z-rot       x-rot vel   y-rot vel   z-rot vel   x-rot acc   y-rot acc   z-rot acc
    22626 -1.96413E-04-6.75947E-06-7.76427E-06-2.18137E-04-3.00381E-05-3.97950E-05-2.33318E-04-1.50103E-04-1.94792E-04



 n o d a l   p r i n t   o u t   f o r   t i m e  s t e p    4201                              ( at time 2.0997899E+00 )

 nodal point  x-disp     y-disp      z-disp      x-vel       y-vel       z-vel      x-accl      y-accl      z-accl      x-coor      y-coor      z-coor
    22626 -7.73448E-04 5.93682E-02-1.08059E-01-1.84735E-03 7.29965E-02-9.47510E-02-6.43860E-03 1.04803E-01-3.26977E-02 4.65860E+00-2.81315E+01-4.50898E+01



 n o d a l   p r i n t   o u t   f o r   t i m e  s t e p    4201                              ( at time 2.0997899E+00 )

 nodal point  x-rot      y-rot       z-rot       x-rot vel   y-rot vel   z-rot vel   x-rot acc   y-rot acc   z-rot acc
    22626 -2.18970E-04-1.02717E-05-1.29037E-05-2.35681E-04-4.06586E-05-6.56679E-05-1.75461E-04-1.06215E-04-2.58754E-04



 n o d a l   p r i n t   o u t   f o r   t i m e  s t e p    4401                              ( at time 2.1997798E+00 )

 nodal point  x-disp     y-disp      z-disp      x-vel       y-vel       z-vel      x-accl      y-accl      z-accl      x-coor      y-coor      z-coor
    22626 -9.87961E-04 6.72616E-02-1.17632E-01-2.36125E-03 8.52957E-02-9.69688E-02-5.13954E-03 1.23005E-01-2.21797E-02 4.65839E+00-2.81236E+01-4.50994E+01



 n o d a l   p r i n t   o u t   f o r   t i m e  s t e p    4401                              ( at time 2.1997798E+00 )

 nodal point  x-rot      y-rot       z-rot       x-rot vel   y-rot vel   z-rot vel   x-rot acc   y-rot acc   z-rot acc
    22626 -2.44357E-04-1.51138E-05-2.09588E-05-2.78267E-04-5.34788E-05-9.13938E-05-4.25903E-04-1.28214E-04-2.57285E-04



 n o d a l   p r i n t   o u t   f o r   t i m e  s t e p    4601                              ( at time 2.2997698E+00 )

 nodal point  x-disp     y-disp      z-disp      x-vel       y-vel       z-vel      x-accl      y-accl      z-accl      x-coor      y-coor      z-coor
    22626 -1.29552E-03 7.64910E-02-1.27489E-01-3.74807E-03 9.95283E-02-1.00583E-01-1.38696E-02 1.42340E-01-3.61427E-02 4.65808E+00-2.81143E+01-4.51092E+01



 n o d a l   p r i n t   o u t   f o r   t i m e  s t e p    4601                              ( at time 2.2997698E+00 )

 nodal point  x-rot      y-rot       z-rot       x-rot vel   y-rot vel   z-rot vel   x-rot acc   y-rot acc   z-rot acc
    22626 -2.74337E-04-2.10578E-05-3.15770E-05-3.16021E-04-6.79611E-05-1.22233E-04-3.77571E-04-1.44837E-04-3.08427E-04



 n o d a l   p r i n t   o u t   f o r   t i m e  s t e p    4801                              ( at time 2.3997598E+00 )

 nodal point  x-disp     y-disp      z-disp      x-vel       y-vel       z-vel      x-accl      y-accl      z-accl      x-coor      y-coor      z-coor
    22626 -1.72631E-03 8.73254E-02-1.37835E-01-4.81009E-03 1.17857E-01-1.06730E-01-1.06213E-02 1.83306E-01-6.14785E-02 4.65765E+00-2.81035E+01-4.51196E+01



 n o d a l   p r i n t   o u t   f o r   t i m e  s t e p    4801                              ( at time 2.3997598E+00 )

 nodal point  x-rot      y-rot       z-rot       x-rot vel   y-rot vel   z-rot vel   x-rot acc   y-rot acc   z-rot acc
    22626 -3.07642E-04-2.86713E-05-4.51104E-05-3.62385E-04-8.08916E-05-1.43583E-04-4.63687E-04-1.29318E-04-2.13518E-04



 n o d a l   p r i n t   o u t   f o r   t i m e  s t e p    5001                              ( at time 2.4997498E+00 )

 nodal point  x-disp     y-disp      z-disp      x-vel       y-vel       z-vel      x-accl      y-accl      z-accl      x-coor      y-coor      z-coor
    22626 -2.26917E-03 1.00069E-01-1.48806E-01-5.69370E-03 1.36750E-01-1.11602E-01-8.83697E-03 1.88951E-01-4.87283E-02 4.65711E+00-2.80908E+01-4.51305E+01



 n o d a l   p r i n t   o u t   f o r   t i m e  s t e p    5001                              ( at time 2.4997498E+00 )

 nodal point  x-rot      y-rot       z-rot       x-rot vel   y-rot vel   z-rot vel   x-rot acc   y-rot acc   z-rot acc
    22626 -3.45977E-04-3.68041E-05-6.04267E-05-4.17263E-04-8.30416E-05-1.57739E-04-5.48834E-04-2.15023E-05-1.41571E-04



 n o d a l   p r i n t   o u t   f o r   t i m e  s t e p    5201                              ( at time 2.5997398E+00 )

 nodal point  x-disp     y-disp      z-disp      x-vel       y-vel       z-vel      x-accl      y-accl      z-accl      x-coor      y-coor      z-coor
    22626 -2.87169E-03 1.14697E-01-1.59991E-01-6.67189E-03 1.56178E-01-1.11814E-01-9.78288E-03 1.94298E-01-2.11730E-03 4.65650E+00-2.80761E+01-4.51417E+01



 n o d a l   p r i n t   o u t   f o r   t i m e  s t e p    5201                              ( at time 2.5997398E+00 )

 nodal point  x-rot      y-rot       z-rot       x-rot vel   y-rot vel   z-rot vel   x-rot acc   y-rot acc   z-rot acc
    22626 -3.91623E-04-4.52400E-05-7.67148E-05-5.03281E-04-8.72172E-05-1.70424E-04-8.60266E-04-4.17596E-05-1.26868E-04



 n o d a l   p r i n t   o u t   f o r   t i m e  s t e p    5401                              ( at time 2.6997298E+00 )

 nodal point  x-disp     y-disp      z-disp      x-vel       y-vel       z-vel      x-accl      y-accl      z-accl      x-coor      y-coor      z-coor
    22626 -3.58261E-03 1.31358E-01-1.71243E-01-7.51753E-03 1.77752E-01-1.13156E-01-8.45719E-03 2.15756E-01-1.34221E-02 4.65579E+00-2.80595E+01-4.51530E+01



 n o d a l   p r i n t   o u t   f o r   t i m e  s t e p    5401                              ( at time 2.6997298E+00 )

 nodal point  x-rot      y-rot       z-rot       x-rot vel   y-rot vel   z-rot vel   x-rot acc   y-rot acc   z-rot acc
    22626 -4.47894E-04-5.43637E-05-9.47921E-05-6.25817E-04-9.41799E-05-1.91168E-04-1.22548E-03-6.96344E-05-2.07455E-04



 n o d a l   p r i n t   o u t   f o r   t i m e  s t e p    5601                              ( at time 2.7997198E+00 )

 nodal point  x-disp     y-disp      z-disp      x-vel       y-vel       z-vel      x-accl      y-accl      z-accl      x-coor      y-coor      z-coor
    22626 -4.36330E-03 1.50261E-01-1.82568E-01-7.93532E-03 2.00478E-01-1.13768E-01-4.17837E-03 2.27288E-01-6.12112E-03 4.65501E+00-2.80406E+01-4.51643E+01



 n o d a l   p r i n t   o u t   f o r   t i m e  s t e p    5601                              ( at time 2.7997198E+00 )

 nodal point  x-rot      y-rot       z-rot       x-rot vel   y-rot vel   z-rot vel   x-rot acc   y-rot acc   z-rot acc
    22626 -5.16002E-04-6.37581E-05-1.14350E-04-7.39824E-04-9.14364E-05-1.99813E-04-1.14018E-03 2.74381E-05-8.64599E-05



 n o d a l   p r i n t   o u t   f o r   t i m e  s t e p    5801                              ( at time 2.8997098E+00 )

 nodal point  x-disp     y-disp      z-disp      x-vel       y-vel       z-vel      x-accl      y-accl      z-accl      x-coor      y-coor      z-coor
    22626 -5.20897E-03 1.71503E-01-1.94067E-01-8.93316E-03 2.24688E-01-1.15780E-01-9.97945E-03 2.42118E-01-2.01240E-02 4.65417E+00-2.80193E+01-4.51758E+01



 n o d a l   p r i n t   o u t   f o r   t i m e  s t e p    5801                              ( at time 2.8997098E+00 )

 nodal point  x-rot      y-rot       z-rot       x-rot vel   y-rot vel   z-rot vel   x-rot acc   y-rot acc   z-rot acc
    22626 -5.97185E-04-7.31196E-05-1.35433E-04-8.97917E-04-9.99399E-05-2.21859E-04-1.58109E-03-8.50434E-05-2.20480E-04



 n o d a l   p r i n t   o u t   f o r   t i m e  s t e p    6001                              ( at time 2.9996998E+00 )

 nodal point  x-disp     y-disp      z-disp      x-vel       y-vel       z-vel      x-accl      y-accl      z-accl      x-coor      y-coor      z-coor
    22626 -6.15117E-03 1.95240E-01-2.05576E-01-9.97605E-03 2.50317E-01-1.13947E-01-1.04299E-02 2.56323E-01 1.83352E-02 4.65322E+00-2.79956E+01-4.51873E+01



 n o d a l   p r i n t   o u t   f o r   t i m e  s t e p    6001                              ( at time 2.9996998E+00 )

 nodal point  x-rot      y-rot       z-rot       x-rot vel   y-rot vel   z-rot vel   x-rot acc   y-rot acc   z-rot acc
    22626 -6.96458E-04-8.33053E-05-1.58679E-04-1.09986E-03-1.06164E-04-2.37212E-04-2.01966E-03-6.22509E-05-1.53551E-04



 n o d a l   p r i n t   o u t   f o r   t i m e  s t e p    6201                              ( at time 3.0996898E+00 )

 nodal point  x-disp     y-disp      z-disp      x-vel       y-vel       z-vel      x-accl      y-accl      z-accl      x-coor      y-coor      z-coor
    22626 -7.14102E-03 2.21577E-01-2.16853E-01-9.76787E-03 2.77260E-01-1.12354E-01 2.08203E-03 2.69448E-01 1.59313E-02 4.65223E+00-2.79693E+01-4.51986E+01



 n o d a l   p r i n t   o u t   f o r   t i m e  s t e p    6201                              ( at time 3.0996898E+00 )

 nodal point  x-rot      y-rot       z-rot       x-rot vel   y-rot vel   z-rot vel   x-rot acc   y-rot acc   z-rot acc
    22626 -8.14907E-04-9.35029E-05-1.82690E-04-1.28016E-03-9.89424E-05-2.45326E-04-1.80316E-03 7.22271E-05-8.11424E-05



 n o d a l   p r i n t   o u t   f o r   t i m e  s t e p    6401                              ( at time 3.1996798E+00 )

 nodal point  x-disp     y-disp      z-disp      x-vel       y-vel       z-vel      x-accl      y-accl      z-accl      x-coor      y-coor      z-coor
    22626 -8.15163E-03 2.50793E-01-2.28087E-01-1.03383E-02 3.06713E-01-1.11941E-01-5.70469E-03 2.94566E-01 4.13153E-03 4.65122E+00-2.79400E+01-4.52098E+01



 n o d a l   p r i n t   o u t   f o r   t i m e  s t e p    6401                              ( at time 3.1996798E+00 )

 nodal point  x-rot      y-rot       z-rot       x-rot vel   y-rot vel   z-rot vel   x-rot acc   y-rot acc   z-rot acc
    22626 -9.52827E-04-1.03561E-04-2.07239E-04-1.48454E-03-9.59233E-05-2.44739E-04-2.04398E-03 3.01936E-05 5.86529E-06



 n o d a l   p r i n t   o u t   f o r   t i m e  s t e p    6601                              ( at time 3.2996698E+00 )

 nodal point  x-disp     y-disp      z-disp      x-vel       y-vel       z-vel      x-accl      y-accl      z-accl      x-coor      y-coor      z-coor
    22626 -9.19938E-03 2.82974E-01-2.39235E-01-1.07773E-02 3.37234E-01-1.10822E-01-4.39110E-03 3.05239E-01 1.11866E-02 4.65018E+00-2.79079E+01-4.52210E+01



 n o d a l   p r i n t   o u t   f o r   t i m e  s t e p    6601                              ( at time 3.2996698E+00 )

 nodal point  x-rot      y-rot       z-rot       x-rot vel   y-rot vel   z-rot vel   x-rot acc   y-rot acc   z-rot acc
    22626 -1.11271E-03-1.13004E-04-2.32280E-04-1.71762E-03-9.45575E-05-2.48735E-04-2.33108E-03 1.36592E-05-3.99616E-05



 n o d a l   p r i n t   o u t   f o r   t i m e  s t e p    6801                              ( at time 3.3996598E+00 )

 nodal point  x-disp     y-disp      z-disp      x-vel       y-vel       z-vel      x-accl      y-accl      z-accl      x-coor      y-coor      z-coor
    22626 -1.03027E-02 3.18254E-01-2.50200E-01-1.12174E-02 3.68435E-01-1.08262E-01-4.40048E-03 3.12037E-01 2.56044E-02 4.64907E+00-2.78726E+01-4.52319E+01



 n o d a l   p r i n t   o u t   f o r   t i m e  s t e p    6801                              ( at time 3.3996598E+00 )

 nodal point  x-rot      y-rot       z-rot       x-rot vel   y-rot vel   z-rot vel   x-rot acc   y-rot acc   z-rot acc
    22626 -1.29553E-03-1.22539E-04-2.57230E-04-1.94729E-03-9.25656E-05-2.49169E-04-2.29694E-03 1.99208E-05-4.34010E-06



 n o d a l   p r i n t   o u t   f o r   t i m e  s t e p    7001                              ( at time 3.4996498E+00 )

 nodal point  x-disp     y-disp      z-disp      x-vel       y-vel       z-vel      x-accl      y-accl      z-accl      x-coor      y-coor      z-coor
    22626 -1.14157E-02 3.56658E-01-2.60842E-01-1.09729E-02 3.99259E-01-1.04289E-01 2.44467E-03 3.08275E-01 3.97400E-02 4.64796E+00-2.78342E+01-4.52426E+01



 n o d a l   p r i n t   o u t   f o r   t i m e  s t e p    7001                              ( at time 3.4996498E+00 )

 nodal point  x-rot      y-rot       z-rot       x-rot vel   y-rot vel   z-rot vel   x-rot acc   y-rot acc   z-rot acc
    22626 -1.50187E-03-1.30898E-04-2.81299E-04-2.17218E-03-7.89693E-05-2.36136E-04-2.24910E-03 1.35977E-04 1.30343E-04



 n o d a l   p r i n t   o u t   f o r   t i m e  s t e p    7201                              ( at time 3.5996397E+00 )

 nodal point  x-disp     y-disp      z-disp      x-vel       y-vel       z-vel      x-accl      y-accl      z-accl      x-coor      y-coor      z-coor
    22626 -1.24871E-02 3.98073E-01-2.71046E-01-1.05686E-02 4.29844E-01-1.00459E-01 4.04335E-03 3.05880E-01 3.82966E-02 4.64689E+00-2.77928E+01-4.52528E+01



 n o d a l   p r i n t   o u t   f o r   t i m e  s t e p    7201                              ( at time 3.5996397E+00 )

 nodal point  x-rot      y-rot       z-rot       x-rot vel   y-rot vel   z-rot vel   x-rot acc   y-rot acc   z-rot acc
    22626 -1.73018E-03-1.38065E-04-3.04720E-04-2.40040E-03-6.53328E-05-2.34706E-04-2.28239E-03 1.36379E-04 1.43004E-05



 n o d a l   p r i n t   o u t   f o r   t i m e  s t e p    7401                              ( at time 3.6996297E+00 )

 nodal point  x-disp     y-disp      z-disp      x-vel       y-vel       z-vel      x-accl      y-accl      z-accl      x-coor      y-coor      z-coor
    22626 -1.36113E-02 4.42832E-01-2.81059E-01-1.19236E-02 4.65386E-01-9.88564E-02-1.35516E-02 3.55451E-01 1.60302E-02 4.64576E+00-2.77480E+01-4.52628E+01



 n o d a l   p r i n t   o u t   f o r   t i m e  s t e p    7401                              ( at time 3.6996297E+00 )

 nodal point  x-rot      y-rot       z-rot       x-rot vel   y-rot vel   z-rot vel   x-rot acc   y-rot acc   z-rot acc
    22626 -1.98249E-03-1.44386E-04-3.28769E-04-2.64524E-03-5.93449E-05-2.41758E-04-2.44869E-03 5.98847E-05-7.05315E-05



 n o d a l   p r i n t   o u t   f o r   t i m e  s t e p    7601                              ( at time 3.7996197E+00 )

 nodal point  x-disp     y-disp      z-disp      x-vel       y-vel       z-vel      x-accl      y-accl      z-accl      x-coor      y-coor      z-coor
    22626 -1.48218E-02 4.90888E-01-2.90749E-01-1.17677E-02 4.97245E-01-9.49388E-02 1.55954E-03 3.18626E-01 3.91803E-02 4.64455E+00-2.76999E+01-4.52725E+01



 n o d a l   p r i n t   o u t   f o r   t i m e  s t e p    7601                              ( at time 3.7996197E+00 )

 nodal point  x-rot      y-rot       z-rot       x-rot vel   y-rot vel   z-rot vel   x-rot acc   y-rot acc   z-rot acc
    22626 -2.25818E-03-1.50157E-04-3.52297E-04-2.88021E-03-4.56530E-05-2.25635E-04-2.34993E-03 1.36933E-04 1.61252E-04



 n o d a l   p r i n t   o u t   f o r   t i m e  s t e p    7801                              ( at time 3.8996097E+00 )

 nodal point  x-disp     y-disp      z-disp      x-vel       y-vel       z-vel      x-accl      y-accl      z-accl      x-coor      y-coor      z-coor
    22626 -1.59049E-02 5.42430E-01-3.00033E-01-1.05475E-02 5.32842E-01-8.99003E-02 1.22028E-02 3.56006E-01 5.03901E-02 4.64347E+00-2.76484E+01-4.52818E+01



 n o d a l   p r i n t   o u t   f o r   t i m e  s t e p    7801                              ( at time 3.8996097E+00 )

 nodal point  x-rot      y-rot       z-rot       x-rot vel   y-rot vel   z-rot vel   x-rot acc   y-rot acc   z-rot acc
    22626 -2.55979E-03-1.53279E-04-3.73578E-04-3.16127E-03-2.02450E-05-1.98263E-04-2.81091E-03 2.54105E-04 2.73748E-04



 n o d a l   p r i n t   o u t   f o r   t i m e  s t e p    8001                              ( at time 3.9995997E+00 )

 nodal point  x-disp     y-disp      z-disp      x-vel       y-vel       z-vel      x-accl      y-accl      z-accl      x-coor      y-coor      z-coor
    22626 -1.69388E-02 5.97396E-01-3.08626E-01-1.04224E-02 5.67154E-01-8.35850E-02 1.25163E-03 3.43158E-01 6.31589E-02 4.64244E+00-2.75934E+01-4.52903E+01



 n o d a l   p r i n t   o u t   f o r   t i m e  s t e p    8001                              ( at time 3.9995997E+00 )

 nodal point  x-rot      y-rot       z-rot       x-rot vel   y-rot vel   z-rot vel   x-rot acc   y-rot acc   z-rot acc
    22626 -2.88745E-03-1.55435E-04-3.94063E-04-3.41336E-03-1.72141E-05-2.08172E-04-2.52109E-03 3.03117E-05-9.91042E-05



 n o d a l   p r i n t   o u t   f o r   t i m e  s t e p    8201                              ( at time 4.0995897E+00 )

 nodal point  x-disp     y-disp      z-disp      x-vel       y-vel       z-vel      x-accl      y-accl      z-accl      x-coor      y-coor      z-coor
    22626 -1.80376E-02 6.55726E-01-3.16741E-01-1.09975E-02 5.99374E-01-7.94164E-02-5.75164E-03 3.22231E-01 4.16903E-02 4.64134E+00-2.75351E+01-4.52985E+01



 n o d a l   p r i n t   o u t   f o r   t i m e  s t e p    8201                              ( at time 4.0995897E+00 )

 nodal point  x-rot      y-rot       z-rot       x-rot vel   y-rot vel   z-rot vel   x-rot acc   y-rot acc   z-rot acc
    22626 -3.23848E-03-1.56960E-04-4.15478E-04-3.63298E-03-1.06158E-05-2.25031E-04-2.19648E-03 6.59901E-05-1.68610E-04



 n o d a l   p r i n t   o u t   f o r   t i m e  s t e p    8401                              ( at time 4.1995797E+00 )

 nodal point  x-disp     y-disp      z-disp      x-vel       y-vel       z-vel      x-accl      y-accl      z-accl      x-coor      y-coor      z-coor
    22626 -1.91959E-02 7.17759E-01-3.24403E-01-1.18971E-02 6.40452E-01-7.30128E-02-8.99666E-03 4.10815E-01 6.40424E-02 4.64018E+00-2.74731E+01-4.53061E+01



 n o d a l   p r i n t   o u t   f o r   t i m e  s t e p    8401                              ( at time 4.1995797E+00 )

 nodal point  x-rot      y-rot       z-rot       x-rot vel   y-rot vel   z-rot vel   x-rot acc   y-rot acc   z-rot acc
    22626 -3.61701E-03-1.57804E-04-4.39073E-04-3.92430E-03-7.48299E-06-2.41863E-04-2.91351E-03 3.13311E-05-1.68330E-04



 n o d a l   p r i n t   o u t   f o r   t i m e  s t e p    8601                              ( at time 4.2995697E+00 )

 nodal point  x-disp     y-disp      z-disp      x-vel       y-vel       z-vel      x-accl      y-accl      z-accl      x-coor      y-coor      z-coor
    22626 -2.03541E-02 7.83433E-01-3.31330E-01-1.09726E-02 6.75224E-01-6.44286E-02 9.24523E-03 3.47759E-01 8.58510E-02 4.63902E+00-2.74074E+01-4.53130E+01



 n o d a l   p r i n t   o u t   f o r   t i m e  s t e p    8601                              ( at time 4.2995697E+00 )

 nodal point  x-rot      y-rot       z-rot       x-rot vel   y-rot vel   z-rot vel   x-rot acc   y-rot acc   z-rot acc
    22626 -4.02180E-03-1.57122E-04-4.61443E-04-4.15281E-03 1.36916E-05-2.01973E-04-2.28526E-03 2.11767E-04 3.98939E-04



 n o d a l   p r i n t   o u t   f o r   t i m e  s t e p    8801                              ( at time 4.3995597E+00 )

 nodal point  x-disp     y-disp      z-disp      x-vel       y-vel       z-vel      x-accl      y-accl      z-accl      x-coor      y-coor      z-coor
    22626 -2.14287E-02 8.52873E-01-3.37424E-01-1.06307E-02 7.14656E-01-5.59390E-02 3.42017E-03 3.94364E-01 8.49041E-02 4.63795E+00-2.73380E+01-4.53191E+01



 n o d a l   p r i n t   o u t   f o r   t i m e  s t e p    8801                              ( at time 4.3995597E+00 )

 nodal point  x-rot      y-rot       z-rot       x-rot vel   y-rot vel   z-rot vel   x-rot acc   y-rot acc   z-rot acc
    22626 -4.45214E-03-1.55111E-04-4.81434E-04-4.45333E-03 1.91216E-05-2.05162E-04-3.00554E-03 5.43051E-05-3.18993E-05



 n o d a l   p r i n t   o u t   f o r   t i m e  s t e p    9001                              ( at time 4.4995497E+00 )

 nodal point  x-disp     y-disp      z-disp      x-vel       y-vel       z-vel      x-accl      y-accl      z-accl      x-coor      y-coor      z-coor
    22626 -2.26369E-02 9.25849E-01-3.42551E-01-1.18754E-02 7.45860E-01-4.77289E-02-1.24482E-02 3.12071E-01 8.21089E-02 4.63674E+00-2.72650E+01-4.53243E+01



 n o d a l   p r i n t   o u t   f o r   t i m e  s t e p    9001                              ( at time 4.4995497E+00 )

 nodal point  x-rot      y-rot       z-rot       x-rot vel   y-rot vel   z-rot vel   x-rot acc   y-rot acc   z-rot acc
    22626 -4.91043E-03-1.51594E-04-5.01104E-04-4.68043E-03 4.65839E-05-1.81380E-04-2.27122E-03 2.74650E-04 2.37843E-04



 n o d a l   p r i n t   o u t   f o r   t i m e  s t e p    9201                              ( at time 4.5995397E+00 )

 nodal point  x-disp     y-disp      z-disp      x-vel       y-vel       z-vel      x-accl      y-accl      z-accl      x-coor      y-coor      z-coor
    22626 -2.35016E-02 1.00255E+00-3.47095E-01-7.44551E-03 7.84660E-01-4.16713E-02 4.43030E-02 3.88037E-01 6.05824E-02 4.63587E+00-2.71883E+01-4.53288E+01



 n o d a l   p r i n t   o u t   f o r   t i m e  s t e p    9201                              ( at time 4.5995397E+00 )

 nodal point  x-rot      y-rot       z-rot       x-rot vel   y-rot vel   z-rot vel   x-rot acc   y-rot acc   z-rot acc
    22626 -5.39085E-03-1.45286E-04-5.14112E-04-4.93081E-03 6.02523E-05-1.21181E-04-2.50406E-03 1.36697E-04 6.02052E-04



 n o d a l   p r i n t   o u t   f o r   t i m e  s t e p    9401                              ( at time 4.6995297E+00 )

 nodal point  x-disp     y-disp      z-disp      x-vel       y-vel       z-vel      x-accl      y-accl      z-accl      x-coor      y-coor      z-coor
    22626 -2.43366E-02 1.08261E+00-3.50631E-01-9.69758E-03 8.21441E-01-2.90688E-02-2.25230E-02 3.67841E-01 1.26038E-01 4.63504E+00-2.71082E+01-4.53324E+01



 n o d a l   p r i n t   o u t   f o r   t i m e  s t e p    9401                              ( at time 4.6995297E+00 )

 nodal point  x-rot      y-rot       z-rot       x-rot vel   y-rot vel   z-rot vel   x-rot acc   y-rot acc   z-rot acc
    22626 -5.89860E-03-1.39918E-04-5.26770E-04-5.22811E-03 5.88643E-05-1.57853E-04-2.97333E-03-1.38809E-05-3.66759E-04



 n o d a l   p r i n t   o u t   f o r   t i m e  s t e p    9601                              ( at time 4.7995197E+00 )

 nodal point  x-disp     y-disp      z-disp      x-vel       y-vel       z-vel      x-accl      y-accl      z-accl      x-coor      y-coor      z-coor
    22626 -2.53021E-02 1.16648E+00-3.53059E-01-8.37008E-03 8.55554E-01-2.01332E-02 1.32763E-02 3.41171E-01 8.93649E-02 4.63407E+00-2.70244E+01-4.53348E+01



 n o d a l   p r i n t   o u t   f o r   t i m e  s t e p    9601                              ( at time 4.7995197E+00 )

 nodal point  x-rot      y-rot       z-rot       x-rot vel   y-rot vel   z-rot vel   x-rot acc   y-rot acc   z-rot acc
    22626 -6.43159E-03-1.34278E-04-5.40605E-04-5.45513E-03 6.76781E-05-1.19487E-04-2.27036E-03 8.81462E-05 3.83700E-04



 n o d a l   p r i n t   o u t   f o r   t i m e  s t e p    9801                              ( at time 4.8995097E+00 )

 nodal point  x-disp     y-disp      z-disp      x-vel       y-vel       z-vel      x-accl      y-accl      z-accl      x-coor      y-coor      z-coor
    22626 -2.60263E-02 1.25385E+00-3.54256E-01-6.33944E-03 8.91886E-01-6.07155E-03 2.03084E-02 3.63351E-01 1.40631E-01 4.63335E+00-2.69370E+01-4.53360E+01



 n o d a l   p r i n t   o u t   f o r   t i m e  s t e p    9801                              ( at time 4.8995097E+00 )

 nodal point  x-rot      y-rot       z-rot       x-rot vel   y-rot vel   z-rot vel   x-rot acc   y-rot acc   z-rot acc
    22626 -6.98824E-03-1.27122E-04-5.52212E-04-5.70419E-03 9.17745E-05-8.02147E-05-2.49086E-03 2.40988E-04 3.92766E-04



 n o d a l   p r i n t   o u t   f o r   t i m e  s t e p   10001                              ( at time 4.9994997E+00 )

 nodal point  x-disp     y-disp      z-disp      x-vel       y-vel       z-vel      x-accl      y-accl      z-accl      x-coor      y-coor      z-coor
    22626 -2.66903E-02 1.34491E+00-3.54385E-01-7.09250E-03 9.27083E-01 2.08572E-03-7.53125E-03 3.52011E-01 8.15805E-02 4.63268E+00-2.68459E+01-4.53361E+01



 n o d a l   p r i n t   o u t   f o r   t i m e  s t e p   10001                              ( at time 4.9994997E+00 )

 nodal point  x-rot      y-rot       z-rot       x-rot vel   y-rot vel   z-rot vel   x-rot acc   y-rot acc   z-rot acc
    22626 -7.56854E-03-1.17600E-04-5.61137E-04-5.93671E-03 8.76027E-05-9.06255E-05-2.32540E-03-4.17216E-05-1.04118E-04



 n o d a l   p r i n t   o u t   f o r   t i m e  s t e p   10202                              ( at time 5.0999896E+00 )

 nodal point  x-disp     y-disp      z-disp      x-vel       y-vel       z-vel      x-accl      y-accl      z-accl      x-coor      y-coor      z-coor
    22626 -2.74506E-02 1.43999E+00-3.53469E-01-8.78264E-03 9.65741E-01 1.66151E-02-1.68191E-02 3.84694E-01 1.44586E-01 4.63192E+00-2.67508E+01-4.53352E+01



 n o d a l   p r i n t   o u t   f o r   t i m e  s t e p   10202                              ( at time 5.0999896E+00 )

 nodal point  x-rot      y-rot       z-rot       x-rot vel   y-rot vel   z-rot vel   x-rot acc   y-rot acc   z-rot acc
    22626 -8.17543E-03-1.11640E-04-5.72687E-04-6.15902E-03 5.53688E-05-1.24553E-04-2.21228E-03-3.20769E-04-3.37622E-04



 n o d a l   p r i n t   o u t   f o r   t i m e  s t e p   10402                              ( at time 5.1999796E+00 )

 nodal point  x-disp     y-disp      z-disp      x-vel       y-vel       z-vel      x-accl      y-accl      z-accl      x-coor      y-coor      z-coor
    22626 -2.83143E-02 1.53810E+00-3.51234E-01-7.98190E-03 9.98288E-01 2.89230E-02 8.00821E-03 3.25504E-01 1.23090E-01 4.63106E+00-2.66527E+01-4.53330E+01



 n o d a l   p r i n t   o u t   f o r   t i m e  s t e p   10402                              ( at time 5.1999796E+00 )

 nodal point  x-rot      y-rot       z-rot       x-rot vel   y-rot vel   z-rot vel   x-rot acc   y-rot acc   z-rot acc
    22626 -8.80086E-03-1.03206E-04-5.83982E-04-6.33492E-03 1.24295E-04-8.66814E-05-1.75919E-03 6.89326E-04 3.78752E-04



 n o d a l   p r i n t   o u t   f o r   t i m e  s t e p   10602                              ( at time 5.2999696E+00 )

 nodal point  x-disp     y-disp      z-disp      x-vel       y-vel       z-vel      x-accl      y-accl      z-accl      x-coor      y-coor      z-coor
    22626 -2.89600E-02 1.63974E+00-3.47704E-01-5.77129E-03 1.03474E+00 4.32448E-02 2.21083E-02 3.64562E-01 1.43233E-01 4.63041E+00-2.65511E+01-4.53294E+01



 n o d a l   p r i n t   o u t   f o r   t i m e  s t e p   10602                              ( at time 5.2999696E+00 )

 nodal point  x-rot      y-rot       z-rot       x-rot vel   y-rot vel   z-rot vel   x-rot acc   y-rot acc   z-rot acc
    22626 -9.44664E-03-9.27343E-05-5.92977E-04-6.55362E-03 8.73812E-05-9.04942E-05-2.18726E-03-3.69172E-04-3.81319E-05



 n o d a l   p r i n t   o u t   f o r   t i m e  s t e p   10802                              ( at time 5.3999596E+00 )

 nodal point  x-disp     y-disp      z-disp      x-vel       y-vel       z-vel      x-accl      y-accl      z-accl      x-coor      y-coor      z-coor
    22626 -2.96820E-02 1.74465E+00-3.42679E-01-9.01454E-03 1.06275E+00 5.76799E-02-3.24358E-02 2.80112E-01 1.44365E-01 4.62969E+00-2.64462E+01-4.53244E+01



 n o d a l   p r i n t   o u t   f o r   t i m e  s t e p   10802                              ( at time 5.3999596E+00 )

 nodal point  x-rot      y-rot       z-rot       x-rot vel   y-rot vel   z-rot vel   x-rot acc   y-rot acc   z-rot acc
    22626 -1.01112E-02-8.49571E-05-6.02862E-04-6.71950E-03 8.04062E-05-8.44866E-05-1.65891E-03-6.97572E-05 6.00822E-05



 n o d a l   p r i n t   o u t   f o r   t i m e  s t e p   11002                              ( at time 5.4999496E+00 )

 nodal point  x-disp     y-disp      z-disp      x-vel       y-vel       z-vel      x-accl      y-accl      z-accl      x-coor      y-coor      z-coor
    22626 -3.03383E-02 1.85246E+00-3.36305E-01-3.36913E-03 1.09564E+00 6.68355E-02 5.64598E-02 3.28922E-01 9.15656E-02 4.62904E+00-2.63384E+01-4.53180E+01



 n o d a l   p r i n t   o u t   f o r   t i m e  s t e p   11002                              ( at time 5.4999496E+00 )

 nodal point  x-rot      y-rot       z-rot       x-rot vel   y-rot vel   z-rot vel   x-rot acc   y-rot acc   z-rot acc
    22626 -1.07861E-02-7.59786E-05-6.08804E-04-6.86597E-03 9.79362E-05-3.76825E-05-1.46483E-03 1.75318E-04 4.68088E-04



 n o d a l   p r i n t   o u t   f o r   t i m e  s t e p   11202                              ( at time 5.5999396E+00 )

 nodal point  x-disp     y-disp      z-disp      x-vel       y-vel       z-vel      x-accl      y-accl      z-accl      x-coor      y-coor      z-coor
    22626 -3.06858E-02 1.96351E+00-3.28620E-01-5.47995E-03 1.12304E+00 8.67215E-02-2.11103E-02 2.74030E-01 1.98880E-01 4.62869E+00-2.62273E+01-4.53103E+01



 n o d a l   p r i n t   o u t   f o r   t i m e  s t e p   11202                              ( at time 5.5999396E+00 )

 nodal point  x-rot      y-rot       z-rot       x-rot vel   y-rot vel   z-rot vel   x-rot acc   y-rot acc   z-rot acc
    22626 -1.14784E-02-6.59274E-05-6.12231E-04-7.02599E-03 9.73105E-05-6.27280E-05-1.60040E-03-6.25839E-06-2.50480E-04



 n o d a l   p r i n t   o u t   f o r   t i m e  s t e p   11402                              ( at time 5.6999296E+00 )

 nodal point  x-disp     y-disp      z-disp      x-vel       y-vel       z-vel      x-accl      y-accl      z-accl      x-coor      y-coor      z-coor
    22626 -3.11824E-02 2.07758E+00-3.18960E-01-4.09711E-03 1.15729E+00 1.03231E-01 1.38298E-02 3.42501E-01 1.65110E-01 4.62819E+00-2.61133E+01-4.53007E+01



 n o d a l   p r i n t   o u t   f o r   t i m e  s t e p   11402                              ( at time 5.6999296E+00 )

 nodal point  x-rot      y-rot       z-rot       x-rot vel   y-rot vel   z-rot vel   x-rot acc   y-rot acc   z-rot acc
    22626 -1.21840E-02-5.85784E-05-6.19457E-04-7.14132E-03 5.55257E-05-5.87677E-05-1.15339E-03-4.17888E-04 3.96060E-05



 n o d a l   p r i n t   o u t   f o r   t i m e  s t e p   11602                              ( at time 5.7999195E+00 )

 nodal point  x-disp     y-disp      z-disp      x-vel       y-vel       z-vel      x-accl      y-accl      z-accl      x-coor      y-coor      z-coor
    22626 -3.14948E-02 2.19458E+00-3.07653E-01-1.54578E-03 1.18580E+00 1.21680E-01 2.55158E-02 2.85175E-01 1.84514E-01 4.62788E+00-2.59963E+01-4.52894E+01



 n o d a l   p r i n t   o u t   f o r   t i m e  s t e p   11602                              ( at time 5.7999195E+00 )

 nodal point  x-rot      y-rot       z-rot       x-rot vel   y-rot vel   z-rot vel   x-rot acc   y-rot acc   z-rot acc
    22626 -1.28992E-02-5.12018E-05-6.23350E-04-7.22240E-03 1.04873E-04-2.01731E-05-8.10924E-04 4.93519E-04 3.85986E-04



 n o d a l   p r i n t   o u t   f o r   t i m e  s t e p   11802                              ( at time 5.8999095E+00 )

 nodal point  x-disp     y-disp      z-disp      x-vel       y-vel       z-vel      x-accl      y-accl      z-accl      x-coor      y-coor      z-coor
    22626 -3.16235E-02 2.31472E+00-2.94930E-01-1.90672E-03 1.21524E+00 1.34652E-01-3.60980E-03 2.94422E-01 1.29733E-01 4.62775E+00-2.58761E+01-4.52766E+01



 n o d a l   p r i n t   o u t   f o r   t i m e  s t e p   11802                              ( at time 5.8999095E+00 )

 nodal point  x-rot      y-rot       z-rot       x-rot vel   y-rot vel   z-rot vel   x-rot acc   y-rot acc   z-rot acc
    22626 -1.36253E-02-4.01827E-05-6.23883E-04-7.29817E-03 9.42562E-05-1.48415E-05-7.57717E-04-1.06175E-04 5.33211E-05



 n o d a l   p r i n t   o u t   f o r   t i m e  s t e p   12002                              ( at time 5.9998995E+00 )

 nodal point  x-disp     y-disp      z-disp      x-vel       y-vel       z-vel      x-accl      y-accl      z-accl      x-coor      y-coor      z-coor
    22626 -3.19039E-02 2.43775E+00-2.80526E-01-2.63046E-03 1.24714E+00 1.54071E-01-7.23806E-03 3.19020E-01 1.94205E-01 4.62747E+00-2.57531E+01-4.52622E+01



 n o d a l   p r i n t   o u t   f o r   t i m e  s t e p   12002                              ( at time 5.9998995E+00 )

 nodal point  x-rot      y-rot       z-rot       x-rot vel   y-rot vel   z-rot vel   x-rot acc   y-rot acc   z-rot acc
    22626 -1.43600E-02-3.17258E-05-6.26331E-04-7.41581E-03 6.78328E-05-3.56957E-05-1.17658E-03-2.64260E-04-2.08563E-04



 n o d a l   p r i n t   o u t   f o r   t i m e  s t e p   12202                              ( at time 6.0998895E+00 )

 nodal point  x-disp     y-disp      z-disp      x-vel       y-vel       z-vel      x-accl      y-accl      z-accl      x-coor      y-coor      z-coor
    22626 -3.20947E-02 2.56385E+00-2.64321E-01-1.01661E-03 1.27372E+00 1.69229E-01 1.61401E-02 2.65836E-01 1.51600E-01 4.62728E+00-2.56270E+01-4.52460E+01



 n o d a l   p r i n t   o u t   f o r   t i m e  s t e p   12202                              ( at time 6.0998895E+00 )

 nodal point  x-rot      y-rot       z-rot       x-rot vel   y-rot vel   z-rot vel   x-rot acc   y-rot acc   z-rot acc
    22626 -1.51025E-02-2.22153E-05-6.27135E-04-7.43584E-03 1.34812E-04 2.89564E-05-2.00258E-04 6.69853E-04 6.46582E-04



 n o d a l   p r i n t   o u t   f o r   t i m e  s t e p   12402                              ( at time 6.1998795E+00 )

 nodal point  x-disp     y-disp      z-disp      x-vel       y-vel       z-vel      x-accl      y-accl      z-accl      x-coor      y-coor      z-coor
    22626 -3.22356E-02 2.69262E+00-2.46575E-01-2.40676E-04 1.30290E+00 1.87469E-01 7.76009E-03 2.91792E-01 1.82409E-01 4.62714E+00-2.54982E+01-4.52283E+01



 n o d a l   p r i n t   o u t   f o r   t i m e  s t e p   12402                              ( at time 6.1998795E+00 )

 nodal point  x-rot      y-rot       z-rot       x-rot vel   y-rot vel   z-rot vel   x-rot acc   y-rot acc   z-rot acc
    22626 -1.58471E-02-8.77689E-06-6.22963E-04-7.47765E-03 1.23424E-04 4.09537E-05-4.18164E-04-1.13888E-04 1.19985E-04



 n o d a l   p r i n t   o u t   f o r   t i m e  s t e p   12602                              ( at time 6.2998695E+00 )

 nodal point  x-disp     y-disp      z-disp      x-vel       y-vel       z-vel      x-accl      y-accl      z-accl      x-coor      y-coor      z-coor
    22626 -3.22726E-02 2.82429E+00-2.26965E-01-1.58608E-03 1.32976E+00 2.03311E-01-1.34554E-02 2.68632E-01 1.58442E-01 4.62710E+00-2.53665E+01-4.52087E+01



 n o d a l   p r i n t   o u t   f o r   t i m e  s t e p   12602                              ( at time 6.2998695E+00 )

 nodal point  x-rot      y-rot       z-rot       x-rot vel   y-rot vel   z-rot vel   x-rot acc   y-rot acc   z-rot acc
    22626 -1.65970E-02 3.08959E-06-6.21277E-04-7.51767E-03 1.24800E-04 1.08955E-05-4.00304E-04 1.37594E-05-3.00612E-04



 n o d a l   p r i n t   o u t   f o r   t i m e  s t e p   12802                              ( at time 6.3998595E+00 )

 nodal point  x-disp     y-disp      z-disp      x-vel       y-vel       z-vel      x-accl      y-accl      z-accl      x-coor      y-coor      z-coor
    22626 -3.24724E-02 2.95862E+00-2.05773E-01-1.03366E-03 1.35638E+00 2.20374E-01 5.52477E-03 2.66300E-01 1.70643E-01 4.62690E+00-2.52322E+01-4.51875E+01



 n o d a l   p r i n t   o u t   f o r   t i m e  s t e p   12802                              ( at time 6.3998595E+00 )

 nodal point  x-rot      y-rot       z-rot       x-rot vel   y-rot vel   z-rot vel   x-rot acc   y-rot acc   z-rot acc
    22626 -1.73472E-02 1.65153E-05-6.19007E-04-7.52002E-03 1.27188E-04 4.93151E-05-2.34857E-05 2.38821E-05 3.84234E-04



 n o d a l   p r i n t   o u t   f o r   t i m e  s t e p   13002                              ( at time 6.4998495E+00 )

 nodal point  x-disp     y-disp      z-disp      x-vel       y-vel       z-vel      x-accl      y-accl      z-accl      x-coor      y-coor      z-coor
    22626 -3.24542E-02 3.09549E+00-1.82624E-01 8.57177E-04 1.37995E+00 2.40639E-01 1.89103E-02 2.35724E-01 2.02674E-01 4.62692E+00-2.50953E+01-4.51643E+01



 n o d a l   p r i n t   o u t   f o r   t i m e  s t e p   13002                              ( at time 6.4998495E+00 )

 nodal point  x-rot      y-rot       z-rot       x-rot vel   y-rot vel   z-rot vel   x-rot acc   y-rot acc   z-rot acc
    22626 -1.80989E-02 3.15483E-05-6.09656E-04-7.54986E-03 1.82150E-04 1.02556E-04-2.98379E-04 5.49673E-04 5.32467E-04



 n o d a l   p r i n t   o u t   f o r   t i m e  s t e p   13202                              ( at time 6.5998395E+00 )

 nodal point  x-disp     y-disp      z-disp      x-vel       y-vel       z-vel      x-accl      y-accl      z-accl      x-coor      y-coor      z-coor
    22626 -3.23077E-02 3.23478E+00-1.57416E-01 1.37477E-03 1.40609E+00 2.61692E-01 5.17644E-03 2.61394E-01 2.10552E-01 4.62707E+00-2.49561E+01-4.51391E+01



 n o d a l   p r i n t   o u t   f o r   t i m e  s t e p   13202                              ( at time 6.5998395E+00 )

 nodal point  x-rot      y-rot       z-rot       x-rot vel   y-rot vel   z-rot vel   x-rot acc   y-rot acc   z-rot acc
    22626 -1.88493E-02 4.77758E-05-6.04317E-04-7.49963E-03 1.44707E-04 3.13563E-05 5.02320E-04-3.74464E-04-7.12070E-04



 n o d a l   p r i n t   o u t   f o r   t i m e  s t e p   13402                              ( at time 6.6998295E+00 )

 nodal point  x-disp     y-disp      z-disp      x-vel       y-vel       z-vel      x-accl      y-accl      z-accl      x-coor      y-coor      z-coor
    22626 -3.23676E-02 3.37658E+00-1.30208E-01-2.16667E-03 1.42946E+00 2.83323E-01-3.54180E-02 2.33707E-01 2.16332E-01 4.62701E+00-2.48142E+01-4.51119E+01



 n o d a l   p r i n t   o u t   f o r   t i m e  s t e p   13402                              ( at time 6.6998295E+00 )

 nodal point  x-rot      y-rot       z-rot       x-rot vel   y-rot vel   z-rot vel   x-rot acc   y-rot acc   z-rot acc
    22626 -1.95981E-02 6.36099E-05-5.97171E-04-7.47107E-03 1.90077E-04 1.05294E-04 2.85647E-04 4.53752E-04 7.39454E-04



 n o d a l   p r i n t   o u t   f o r   t i m e  s t e p   13602                              ( at time 6.7998195E+00 )

 nodal point  x-disp     y-disp      z-disp      x-vel       y-vel       z-vel      x-accl      y-accl      z-accl      x-coor      y-coor      z-coor
    22626 -3.22926E-02 3.52061E+00-1.00983E-01 3.90764E-03 1.45191E+00 3.02131E-01 6.07493E-02 2.24583E-01 1.88093E-01 4.62708E+00-2.46702E+01-4.50827E+01



 n o d a l   p r i n t   o u t   f o r   t i m e  s t e p   13602                              ( at time 6.7998195E+00 )

 nodal point  x-rot      y-rot       z-rot       x-rot vel   y-rot vel   z-rot vel   x-rot acc   y-rot acc   z-rot acc
    22626 -2.03451E-02 8.28626E-05-5.87515E-04-7.43817E-03 1.72439E-04 7.17021E-05 3.29065E-04-1.76402E-04-3.35955E-04



 n o d a l   p r i n t   o u t   f o r   t i m e  s t e p   13802                              ( at time 6.8998095E+00 )

 nodal point  x-disp     y-disp      z-disp      x-vel       y-vel       z-vel      x-accl      y-accl      z-accl      x-coor      y-coor      z-coor
    22626 -3.19471E-02 3.66696E+00-6.97779E-02 6.55817E-04 1.47493E+00 3.24593E-01-3.25215E-02 2.30133E-01 2.24651E-01 4.62743E+00-2.45239E+01-4.50515E+01



 n o d a l   p r i n t   o u t   f o r   t i m e  s t e p   13802                              ( at time 6.8998095E+00 )

 nodal point  x-rot      y-rot       z-rot       x-rot vel   y-rot vel   z-rot vel   x-rot acc   y-rot acc   z-rot acc
    22626 -2.10892E-02 1.00688E-04-5.77508E-04-7.41212E-03 1.79314E-04 1.36571E-04 2.60517E-04 6.87589E-05 6.48753E-04



 n o d a l   p r i n t   o u t   f o r   t i m e  s t e p   14002                              ( at time 6.9997995E+00 )

 nodal point  x-disp     y-disp      z-disp      x-vel       y-vel       z-vel      x-accl      y-accl      z-accl      x-coor      y-coor      z-coor
    22626 -3.18536E-02 3.81547E+00-3.60366E-02 1.56224E-03 1.49422E+00 3.49716E-01 9.06516E-03 1.92982E-01 2.51252E-01 4.62752E+00-2.43754E+01-4.50178E+01



 n o d a l   p r i n t   o u t   f o r   t i m e  s t e p   14002                              ( at time 6.9997995E+00 )

 nodal point  x-rot      y-rot       z-rot       x-rot vel   y-rot vel   z-rot vel   x-rot acc   y-rot acc   z-rot acc
    22626 -2.18289E-02 1.18162E-04-5.67127E-04-7.37848E-03 1.69193E-04 7.18859E-05 3.36409E-04-1.01219E-04-6.46914E-04



 n o d a l   p r i n t   o u t   f o r   t i m e  s t e p   14202                              ( at time 7.0997895E+00 )

 nodal point  x-disp     y-disp      z-disp      x-vel       y-vel       z-vel      x-accl      y-accl      z-accl      x-coor      y-coor      z-coor
    22626 -3.16332E-02 3.96580E+00 8.05377E-05 4.40500E-03 1.51386E+00 3.72719E-01 2.84304E-02 1.96372E-01 2.30053E-01 4.62774E+00-2.42250E+01-4.49816E+01



 n o d a l   p r i n t   o u t   f o r   t i m e  s t e p   14202                              ( at time 7.0997895E+00 )

 nodal point  x-rot      y-rot       z-rot       x-rot vel   y-rot vel   z-rot vel   x-rot acc   y-rot acc   z-rot acc
    22626 -2.25652E-02 1.37495E-04-5.56674E-04-7.33195E-03 2.28569E-04 1.53739E-04 4.65306E-04 5.93813E-04 8.18612E-04



 n o d a l   p r i n t   o u t   f o r   t i m e  s t e p   14402                              ( at time 7.1997794E+00 )

 nodal point  x-disp     y-disp      z-disp      x-vel       y-vel       z-vel      x-accl      y-accl      z-accl      x-coor      y-coor      z-coor
    22626 -3.11670E-02 4.11823E+00 3.86233E-02 5.30218E-03 1.53216E+00 3.98203E-01 8.97263E-03 1.83077E-01 2.54863E-01 4.62821E+00-2.40726E+01-4.49431E+01



 n o d a l   p r i n t   o u t   f o r   t i m e  s t e p   14402                              ( at time 7.1997794E+00 )

 nodal point  x-rot      y-rot       z-rot       x-rot vel   y-rot vel   z-rot vel   x-rot acc   y-rot acc   z-rot acc
    22626 -2.32963E-02 1.58930E-04-5.40372E-04-7.28119E-03 1.80076E-04 1.36562E-04 5.07655E-04-4.84975E-04-1.71788E-04



 n o d a l   p r i n t   o u t   f o r   t i m e  s t e p   14602                              ( at time 7.2997694E+00 )

 nodal point  x-disp     y-disp      z-disp      x-vel       y-vel       z-vel      x-accl      y-accl      z-accl      x-coor      y-coor      z-coor
    22626 -3.07982E-02 4.27221E+00 7.99570E-02 2.34900E-03 1.54682E+00 4.27974E-01-2.95348E-02 1.46618E-01 2.97739E-01 4.62858E+00-2.39186E+01-4.49018E+01



 n o d a l   p r i n t   o u t   f o r   t i m e  s t e p   14602                              ( at time 7.2997694E+00 )

 nodal point  x-rot      y-rot       z-rot       x-rot vel   y-rot vel   z-rot vel   x-rot acc   y-rot acc   z-rot acc
    22626 -2.40234E-02 1.74717E-04-5.30074E-04-7.25994E-03 1.49067E-04 1.01357E-04 2.12554E-04-3.10129E-04-3.52090E-04



 n o d a l   p r i n t   o u t   f o r   t i m e  s t e p   14802                              ( at time 7.3997594E+00 )

 nodal point  x-disp     y-disp      z-disp      x-vel       y-vel       z-vel      x-accl      y-accl      z-accl      x-coor      y-coor      z-coor
    22626 -3.03641E-02 4.42756E+00 1.24287E-01 6.27209E-03 1.55892E+00 4.59375E-01 3.92349E-02 1.20954E-01 3.14046E-01 4.62901E+00-2.37633E+01-4.48574E+01



 n o d a l   p r i n t   o u t   f o r   t i m e  s t e p   14802                              ( at time 7.3997594E+00 )

 nodal point  x-rot      y-rot       z-rot       x-rot vel   y-rot vel   z-rot vel   x-rot acc   y-rot acc   z-rot acc
    22626 -2.47477E-02 1.93301E-04-5.16288E-04-7.20235E-03 2.18909E-04 1.58102E-04 5.75946E-04 6.98495E-04 5.67509E-04



 n o d a l   p r i n t   o u t   f o r   t i m e  s t e p   15002                              ( at time 7.4997494E+00 )

 nodal point  x-disp     y-disp      z-disp      x-vel       y-vel       z-vel      x-accl      y-accl      z-accl      x-coor      y-coor      z-coor
    22626 -2.97141E-02 4.58408E+00 1.71732E-01 7.21677E-03 1.57237E+00 4.89741E-01 9.44774E-03 1.34573E-01 3.03690E-01 4.62966E+00-2.36068E+01-4.48100E+01



 n o d a l   p r i n t   o u t   f o r   t i m e  s t e p   15002                              ( at time 7.4997494E+00 )

 nodal point  x-rot      y-rot       z-rot       x-rot vel   y-rot vel   z-rot vel   x-rot acc   y-rot acc   z-rot acc
    22626 -2.54662E-02 2.13322E-04-5.02927E-04-7.18060E-03 1.68555E-04 9.86683E-05 2.17489E-04-5.03586E-04-5.94393E-04



 n o d a l   p r i n t   o u t   f o r   t i m e  s t e p   15202                              ( at time 7.5997394E+00 )

 nodal point  x-disp     y-disp      z-disp      x-vel       y-vel       z-vel      x-accl      y-accl      z-accl      x-coor      y-coor      z-coor
    22626 -2.90058E-02 4.74169E+00 2.22463E-01 6.10532E-03 1.57979E+00 5.25277E-01-1.11157E-02 7.42189E-02 3.55391E-01 4.63037E+00-2.34491E+01-4.47593E+01



 n o d a l   p r i n t   o u t   f o r   t i m e  s t e p   15202                              ( at time 7.5997394E+00 )

 nodal point  x-rot      y-rot       z-rot       x-rot vel   y-rot vel   z-rot vel   x-rot acc   y-rot acc   z-rot acc
    22626 -2.61843E-02 2.27022E-04-4.91648E-04-7.15344E-03 1.30188E-04 1.32305E-04 2.71685E-04-3.83716E-04 3.36401E-04



 n o d a l   p r i n t   o u t   f o r   t i m e  s t e p   15402                              ( at time 7.6997294E+00 )

 nodal point  x-disp     y-disp      z-disp      x-vel       y-vel       z-vel      x-accl      y-accl      z-accl      x-coor      y-coor      z-coor
    22626 -2.83480E-02 4.90025E+00 2.76427E-01 7.86081E-03 1.59192E+00 5.54029E-01 1.75567E-02 1.21318E-01 2.87555E-01 4.63103E+00-2.32906E+01-4.47053E+01



 n o d a l   p r i n t   o u t   f o r   t i m e  s t e p   15402                              ( at time 7.6997294E+00 )

 nodal point  x-rot      y-rot       z-rot       x-rot vel   y-rot vel   z-rot vel   x-rot acc   y-rot acc   z-rot acc
    22626 -2.68972E-02 2.42502E-04-4.79412E-04-7.10954E-03 1.61497E-04 1.04954E-04 4.39000E-04 3.13128E-04-2.73542E-04



 n o d a l   p r i n t   o u t   f o r   t i m e  s t e p   15602                              ( at time 7.7997194E+00 )

 nodal point  x-disp     y-disp      z-disp      x-vel       y-vel       z-vel      x-accl      y-accl      z-accl      x-coor      y-coor      z-coor
    22626 -2.74803E-02 5.05981E+00 3.33643E-01 9.17816E-03 1.59986E+00 5.91682E-01 1.31749E-02 7.93442E-02 3.76562E-01 4.63189E+00-2.31310E+01-4.46481E+01



 n o d a l   p r i n t   o u t   f o r   t i m e  s t e p   15602                              ( at time 7.7997194E+00 )

 nodal point  x-rot      y-rot       z-rot       x-rot vel   y-rot vel   z-rot vel   x-rot acc   y-rot acc   z-rot acc
    22626 -2.76084E-02 2.58571E-04-4.69045E-04-7.12306E-03 1.37356E-04 1.02445E-04-1.35149E-04-2.41436E-04-2.50876E-05



 n o d a l   p r i n t   o u t   f o r   t i m e  s t e p   15802                              ( at time 7.8997094E+00 )

 nodal point  x-disp     y-disp      z-disp      x-vel       y-vel       z-vel      x-accl      y-accl      z-accl      x-coor      y-coor      z-coor
    22626 -2.66902E-02 5.22029E+00 3.94575E-01 7.06404E-03 1.60831E+00 6.25952E-01-2.11434E-02 8.45708E-02 3.42738E-01 4.63268E+00-2.29705E+01-4.45871E+01



 n o d a l   p r i n t   o u t   f o r   t i m e  s t e p   15802                              ( at time 7.8997094E+00 )

 nodal point  x-rot      y-rot       z-rot       x-rot vel   y-rot vel   z-rot vel   x-rot acc   y-rot acc   z-rot acc
    22626 -2.83179E-02 2.70111E-04-4.59407E-04-7.03616E-03 8.86550E-05 7.67595E-05 8.69091E-04-4.87059E-04-2.56882E-04



 n o d a l   p r i n t   o u t   f o r   t i m e  s t e p   16002                              ( at time 7.9996994E+00 )

 nodal point  x-disp     y-disp      z-disp      x-vel       y-vel       z-vel      x-accl      y-accl      z-accl      x-coor      y-coor      z-coor
    22626 -2.60451E-02 5.38151E+00 4.58774E-01 6.23383E-03 1.61630E+00 6.59833E-01-8.30288E-03 7.98123E-02 3.38846E-01 4.63333E+00-2.28093E+01-4.45229E+01



 n o d a l   p r i n t   o u t   f o r   t i m e  s t e p   16002                              ( at time 7.9996994E+00 )

 nodal point  x-rot      y-rot       z-rot       x-rot vel   y-rot vel   z-rot vel   x-rot acc   y-rot acc   z-rot acc
    22626 -2.90207E-02 2.81533E-04-4.53516E-04-7.00847E-03 1.37678E-04 6.03587E-05 2.76900E-04 4.90274E-04-1.64023E-04



 n o d a l   p r i n t   o u t   f o r   t i m e  s t e p   16202                              ( at time 8.0996894E+00 )

 nodal point  x-disp     y-disp      z-disp      x-vel       y-vel       z-vel      x-accl      y-accl      z-accl      x-coor      y-coor      z-coor
    22626 -2.53952E-02 5.54361E+00 5.26527E-01 7.31210E-03 1.62431E+00 6.94866E-01 1.07838E-02 8.01096E-02 3.50358E-01 4.63398E+00-2.26472E+01-4.44552E+01



 n o d a l   p r i n t   o u t   f o r   t i m e  s t e p   16202                              ( at time 8.0996894E+00 )

 nodal point  x-rot      y-rot       z-rot       x-rot vel   y-rot vel   z-rot vel   x-rot acc   y-rot acc   z-rot acc
    22626 -2.97238E-02 2.93619E-04-4.47538E-04-7.01870E-03 1.12981E-04 5.42528E-05-1.02288E-04-2.46992E-04-6.10660E-05



 n o d a l   p r i n t   o u t   f o r   t i m e  s t e p   16402                              ( at time 8.1996794E+00 )

 nodal point  x-disp     y-disp      z-disp      x-vel       y-vel       z-vel      x-accl      y-accl      z-accl      x-coor      y-coor      z-coor
    22626 -2.47905E-02 5.70626E+00 5.97972E-01 4.58946E-03 1.62923E+00 7.33567E-01-2.72291E-02 4.92968E-02 3.87056E-01 4.63458E+00-2.24846E+01-4.43837E+01



 n o d a l   p r i n t   o u t   f o r   t i m e  s t e p   16402                              ( at time 8.1996794E+00 )

 nodal point  x-rot      y-rot       z-rot       x-rot vel   y-rot vel   z-rot vel   x-rot acc   y-rot acc   z-rot acc
    22626 -3.04215E-02 3.04320E-04-4.44467E-04-6.96011E-03 9.78337E-05 6.68096E-06 5.85940E-04-1.51489E-04-4.75766E-04



 n o d a l   p r i n t   o u t   f o r   t i m e  s t e p   16602                              ( at time 8.2996694E+00 )

 nodal point  x-disp     y-disp      z-disp      x-vel       y-vel       z-vel      x-accl      y-accl      z-accl      x-coor      y-coor      z-coor
    22626 -2.43490E-02 5.86965E+00 6.73162E-01 4.32523E-03 1.63662E+00 7.68588E-01-2.64262E-03 7.38421E-02 3.50237E-01 4.63503E+00-2.23212E+01-4.43086E+01



 n o d a l   p r i n t   o u t   f o r   t i m e  s t e p   16602                              ( at time 8.2996694E+00 )

 nodal point  x-rot      y-rot       z-rot       x-rot vel   y-rot vel   z-rot vel   x-rot acc   y-rot acc   z-rot acc
    22626 -3.11172E-02 3.12884E-04-4.43107E-04-6.95872E-03 7.82917E-05 2.58174E-05 1.39247E-05-1.95439E-04 1.91384E-04



 n o d a l   p r i n t   o u t   f o r   t i m e  s t e p   16802                              ( at time 8.3996594E+00 )

 nodal point  x-disp     y-disp      z-disp      x-vel       y-vel       z-vel      x-accl      y-accl      z-accl      x-coor      y-coor      z-coor
    22626 -2.38525E-02 6.03360E+00 7.51990E-01 5.75757E-03 1.64311E+00 8.07466E-01 1.43249E-02 6.48814E-02 3.88821E-01 4.63552E+00-2.21572E+01-4.42297E+01



 n o d a l   p r i n t   o u t   f o r   t i m e  s t e p   16802                              ( at time 8.3996594E+00 )

 nodal point  x-rot      y-rot       z-rot       x-rot vel   y-rot vel   z-rot vel   x-rot acc   y-rot acc   z-rot acc
    22626 -3.18089E-02 3.22725E-04-4.40847E-04-6.88194E-03 1.03819E-04 2.22026E-06 7.67841E-04 2.55296E-04-2.35995E-04



 n o d a l   p r i n t   o u t   f o r   t i m e  s t e p   17002                              ( at time 8.4996494E+00 )

 nodal point  x-disp     y-disp      z-disp      x-vel       y-vel       z-vel      x-accl      y-accl      z-accl      x-coor      y-coor      z-coor
    22626 -2.32786E-02 6.19824E+00 8.34573E-01 4.83951E-03 1.64865E+00 8.44680E-01-9.18154E-03 5.54928E-02 3.72176E-01 4.63610E+00-2.19926E+01-4.41471E+01



 n o d a l   p r i n t   o u t   f o r   t i m e  s t e p   17002                              ( at time 8.4996494E+00 )

 nodal point  x-rot      y-rot       z-rot       x-rot vel   y-rot vel   z-rot vel   x-rot acc   y-rot acc   z-rot acc
    22626 -3.24968E-02 3.32293E-04-4.40835E-04-6.85628E-03 9.42573E-05 1.55996E-05 2.56605E-04-9.56237E-05 1.33807E-04



 n o d a l   p r i n t   o u t   f o r   t i m e  s t e p   17202                              ( at time 8.5996394E+00 )

 nodal point  x-disp     y-disp      z-disp      x-vel       y-vel       z-vel      x-accl      y-accl      z-accl      x-coor      y-coor      z-coor
    22626 -2.28265E-02 6.36340E+00 9.20816E-01 5.32224E-03 1.65592E+00 8.81907E-01 4.82777E-03 7.26916E-02 3.72313E-01 4.63655E+00-2.18274E+01-4.40609E+01



 n o d a l   p r i n t   o u t   f o r   t i m e  s t e p   17202                              ( at time 8.5996394E+00 )

 nodal point  x-rot      y-rot       z-rot       x-rot vel   y-rot vel   z-rot vel   x-rot acc   y-rot acc   z-rot acc
    22626 -3.31832E-02 3.40572E-04-4.40456E-04-6.84811E-03 7.72625E-05 1.05439E-05 8.17365E-05-1.69965E-04-5.05617E-05



 n o d a l   p r i n t   o u t   f o r   t i m e  s t e p   17402                              ( at time 8.6996293E+00 )

 nodal point  x-disp     y-disp      z-disp      x-vel       y-vel       z-vel      x-accl      y-accl      z-accl      x-coor      y-coor      z-coor
    22626 -2.22305E-02 6.52926E+00 1.01097E+00 5.50812E-03 1.66107E+00 9.20512E-01 1.85893E-03 5.14805E-02 3.86082E-01 4.63714E+00-2.16616E+01-4.39708E+01



 n o d a l   p r i n t   o u t   f o r   t i m e  s t e p   17402                              ( at time 8.6996293E+00 )

 nodal point  x-rot      y-rot       z-rot       x-rot vel   y-rot vel   z-rot vel   x-rot acc   y-rot acc   z-rot acc
    22626 -3.38674E-02 3.48598E-04-4.39374E-04-6.83459E-03 9.39088E-05 1.57054E-05 1.35147E-04 1.66479E-04 5.16201E-05



 n o d a l   p r i n t   o u t   f o r   t i m e  s t e p   17602                              ( at time 8.7996193E+00 )

 nodal point  x-disp     y-disp      z-disp      x-vel       y-vel       z-vel      x-accl      y-accl      z-accl      x-coor      y-coor      z-coor
    22626 -2.16742E-02 6.69555E+00 1.10499E+00 6.04416E-03 1.66560E+00 9.58547E-01 5.36103E-03 4.53005E-02 3.80391E-01 4.63770E+00-2.14953E+01-4.38767E+01



 n o d a l   p r i n t   o u t   f o r   t i m e  s t e p   17602                              ( at time 8.7996193E+00 )

 nodal point  x-rot      y-rot       z-rot       x-rot vel   y-rot vel   z-rot vel   x-rot acc   y-rot acc   z-rot acc
    22626 -3.45476E-02 3.58735E-04-4.38440E-04-6.78637E-03 9.36305E-05-4.99380E-06 4.82288E-04-2.78399E-06-2.07013E-04



 n o d a l   p r i n t   o u t   f o r   t i m e  s t e p   17802                              ( at time 8.8996093E+00 )

 nodal point  x-disp     y-disp      z-disp      x-vel       y-vel       z-vel      x-accl      y-accl      z-accl      x-coor      y-coor      z-coor
    22626 -2.11106E-02 6.86252E+00 1.20282E+00 5.99645E-03 1.67359E+00 9.97361E-01-4.77216E-04 7.99045E-02 3.88178E-01 4.63826E+00-2.13283E+01-4.37789E+01



 n o d a l   p r i n t   o u t   f o r   t i m e  s t e p   17802                              ( at time 8.8996093E+00 )

 nodal point  x-rot      y-rot       z-rot       x-rot vel   y-rot vel   z-rot vel   x-rot acc   y-rot acc   z-rot acc
    22626 -3.52261E-02 3.67761E-04-4.37717E-04-6.80472E-03 9.39431E-05 2.76331E-05-1.83550E-04 3.12665E-06 3.26302E-04



 n o d a l   p r i n t   o u t   f o r   t i m e  s t e p   18002                              ( at time 8.9995993E+00 )

 nodal point  x-disp     y-disp      z-disp      x-vel       y-vel       z-vel      x-accl      y-accl      z-accl      x-coor      y-coor      z-coor
    22626 -2.04826E-02 7.03013E+00 1.30459E+00 6.82744E-03 1.67798E+00 1.03699E+00 8.31077E-03 4.38675E-02 3.96329E-01 4.63889E+00-2.11607E+01-4.36771E+01



 n o d a l   p r i n t   o u t   f o r   t i m e  s t e p   18002                              ( at time 8.9995993E+00 )

 nodal point  x-rot      y-rot       z-rot       x-rot vel   y-rot vel   z-rot vel   x-rot acc   y-rot acc   z-rot acc
    22626 -3.59057E-02 3.77667E-04-4.33364E-04-6.78889E-03 1.03592E-04 3.35536E-05 1.58327E-04 9.64994E-05 5.92110E-05



 n o d a l   p r i n t   o u t   f o r   t i m e  s t e p   18202                              ( at time 9.0995893E+00 )

 nodal point  x-disp     y-disp      z-disp      x-vel       y-vel       z-vel      x-accl      y-accl      z-accl      x-coor      y-coor      z-coor
    22626 -1.97758E-02 7.19827E+00 1.41024E+00 6.52090E-03 1.68412E+00 1.07680E+00-3.06568E-03 6.14908E-02 3.98141E-01 4.63960E+00-2.09926E+01-4.35715E+01



 n o d a l   p r i n t   o u t   f o r   t i m e  s t e p   18202                              ( at time 9.0995893E+00 )

 nodal point  x-rot      y-rot       z-rot       x-rot vel   y-rot vel   z-rot vel   x-rot acc   y-rot acc   z-rot acc
    22626 -3.65845E-02 3.87624E-04-4.31764E-04-6.79229E-03 9.26747E-05 1.73843E-05-3.39967E-05-1.09185E-04-1.61709E-04



 n o d a l   p r i n t   o u t   f o r   t i m e  s t e p   18402                              ( at time 9.1995793E+00 )

 nodal point  x-disp     y-disp      z-disp      x-vel       y-vel       z-vel      x-accl      y-accl      z-accl      x-coor      y-coor      z-coor
    22626 -1.90715E-02 7.36700E+00 1.51997E+00 8.09439E-03 1.69035E+00 1.11707E+00 1.57364E-02 6.22896E-02 4.02702E-01 4.64030E+00-2.08238E+01-4.34618E+01



 n o d a l   p r i n t   o u t   f o r   t i m e  s t e p   18402                              ( at time 9.1995793E+00 )

 nodal point  x-rot      y-rot       z-rot       x-rot vel   y-rot vel   z-rot vel   x-rot acc   y-rot acc   z-rot acc
    22626 -3.72658E-02 3.96533E-04-4.28483E-04-6.81547E-03 8.94559E-05 3.48273E-05-2.31844E-04-3.21911E-05 1.74447E-04



 n o d a l   p r i n t   o u t   f o r   t i m e  s t e p   18602                              ( at time 9.2995693E+00 )

 nodal point  x-disp     y-disp      z-disp      x-vel       y-vel       z-vel      x-accl      y-accl      z-accl      x-coor      y-coor      z-coor
    22626 -1.81403E-02 7.53626E+00 1.63355E+00 9.62408E-03 1.69715E+00 1.15541E+00 1.52985E-02 6.79574E-02 3.83440E-01 4.64123E+00-2.06546E+01-4.33482E+01



 n o d a l   p r i n t   o u t   f o r   t i m e  s t e p   18602                              ( at time 9.2995693E+00 )

 nodal point  x-rot      y-rot       z-rot       x-rot vel   y-rot vel   z-rot vel   x-rot acc   y-rot acc   z-rot acc
    22626 -3.79475E-02 4.06081E-04-4.25640E-04-6.82176E-03 8.62072E-05 1.74310E-05-6.28473E-05-3.24899E-05-1.73980E-04



 n o d a l   p r i n t   o u t   f o r   t i m e  s t e p   18802                              ( at time 9.3995593E+00 )

 nodal point  x-disp     y-disp      z-disp      x-vel       y-vel       z-vel      x-accl      y-accl      z-accl      x-coor      y-coor      z-coor
    22626 -1.71412E-02 7.70620E+00 1.75112E+00 1.06538E-02 1.70131E+00 1.19709E+00 1.02980E-02 4.16202E-02 4.16879E-01 4.64223E+00-2.04846E+01-4.32306E+01



 n o d a l   p r i n t   o u t   f o r   t i m e  s t e p   18802                              ( at time 9.3995593E+00 )

 nodal point  x-rot      y-rot       z-rot       x-rot vel   y-rot vel   z-rot vel   x-rot acc   y-rot acc   z-rot acc
    22626 -3.86340E-02 4.14196E-04-4.23179E-04-6.87943E-03 6.84368E-05 3.27668E-05-5.76738E-04-1.77722E-04 1.53373E-04



 n o d a l   p r i n t   o u t   f o r   t i m e  s t e p   19002                              ( at time 9.4995493E+00 )

 nodal point  x-disp     y-disp      z-disp      x-vel       y-vel       z-vel      x-accl      y-accl      z-accl      x-coor      y-coor      z-coor
    22626 -1.59921E-02 7.87650E+00 1.87274E+00 1.39316E-02 1.70651E+00 1.23549E+00 3.27819E-02 5.20043E-02 3.84072E-01 4.64338E+00-2.03143E+01-4.31090E+01



 n o d a l   p r i n t   o u t   f o r   t i m e  s t e p   19002                              ( at time 9.4995493E+00 )

 nodal point  x-rot      y-rot       z-rot       x-rot vel   y-rot vel   z-rot vel   x-rot acc   y-rot acc   z-rot acc
    22626 -3.93233E-02 4.21927E-04-4.17116E-04-6.90606E-03 8.76506E-05 8.40532E-05-2.66334E-04 1.92157E-04 5.12915E-04



 n o d a l   p r i n t   o u t   f o r   t i m e  s t e p   19202                              ( at time 9.5995393E+00 )

 nodal point  x-disp     y-disp      z-disp      x-vel       y-vel       z-vel      x-accl      y-accl      z-accl      x-coor      y-coor      z-coor
    22626 -1.45456E-02 8.04718E+00 1.99838E+00 1.44276E-02 1.70576E+00 1.27706E+00 4.96050E-03-7.47511E-03 4.15667E-01 4.64483E+00-2.01437E+01-4.29833E+01



 n o d a l   p r i n t   o u t   f o r   t i m e  s t e p   19202                              ( at time 9.5995393E+00 )

 nodal point  x-rot      y-rot       z-rot       x-rot vel   y-rot vel   z-rot vel   x-rot acc   y-rot acc   z-rot acc
    22626 -4.00158E-02 4.32600E-04-4.06584E-04-6.93943E-03 1.19439E-04 1.24066E-04-3.33812E-04 3.17917E-04 4.00168E-04



 n o d a l   p r i n t   o u t   f o r   t i m e  s t e p   19402                              ( at time 9.6995293E+00 )

 nodal point  x-disp     y-disp      z-disp      x-vel       y-vel       z-vel      x-accl      y-accl      z-accl      x-coor      y-coor      z-coor
    22626 -1.31132E-02 8.21794E+00 2.12808E+00 1.35241E-02 1.70936E+00 1.31699E+00-9.03599E-03 3.59607E-02 3.99347E-01 4.64626E+00-1.99729E+01-4.28536E+01



 n o d a l   p r i n t   o u t   f o r   t i m e  s t e p   19402                              ( at time 9.6995293E+00 )

 nodal point  x-rot      y-rot       z-rot       x-rot vel   y-rot vel   z-rot vel   x-rot acc   y-rot acc   z-rot acc
    22626 -4.07134E-02 4.42030E-04-3.96759E-04-7.01134E-03 5.68491E-05 7.98360E-05-7.19133E-04-6.25967E-04-4.42348E-04



 n o d a l   p r i n t   o u t   f o r   t i m e  s t e p   19602                              ( at time 9.7995193E+00 )

 nodal point  x-disp     y-disp      z-disp      x-vel       y-vel       z-vel      x-accl      y-accl      z-accl      x-coor      y-coor      z-coor
    22626 -1.20056E-02 8.38893E+00 2.26200E+00 9.16646E-03 1.71118E+00 1.36034E+00-4.35812E-02 1.82027E-02 4.33591E-01 4.64737E+00-1.98019E+01-4.27197E+01



 n o d a l   p r i n t   o u t   f o r   t i m e  s t e p   19602                              ( at time 9.7995193E+00 )

 nodal point  x-rot      y-rot       z-rot       x-rot vel   y-rot vel   z-rot vel   x-rot acc   y-rot acc   z-rot acc
    22626 -4.14189E-02 4.46402E-04-3.91614E-04-7.08419E-03 6.22583E-05 2.80178E-05-7.28545E-04 5.40979E-05-5.18235E-04



 n o d a l   p r i n t   o u t   f o r   t i m e  s t e p   19802                              ( at time 9.8995093E+00 )

 nodal point  x-disp     y-disp      z-disp      x-vel       y-vel       z-vel      x-accl      y-accl      z-accl      x-coor      y-coor      z-coor
    22626 -1.08322E-02 8.55998E+00 2.39984E+00 1.41272E-02 1.71062E+00 1.39659E+00 4.96126E-02-5.58314E-03 3.62528E-01 4.64854E+00-1.96308E+01-4.25819E+01



 n o d a l   p r i n t   o u t   f o r   t i m e  s t e p   19802                              ( at time 9.8995093E+00 )

 nodal point  x-rot      y-rot       z-rot       x-rot vel   y-rot vel   z-rot vel   x-rot acc   y-rot acc   z-rot acc
    22626 -4.21284E-02 4.54273E-04-3.85918E-04-7.09918E-03 9.02352E-05 8.60736E-05-1.49977E-04 2.79797E-04 5.80617E-04



 n o d a l   p r i n t   o u t   f o r   t i m e  s t e p   20003                              ( at time 9.9999992E+00 )

 nodal point  x-disp     y-disp      z-disp      x-vel       y-vel       z-vel      x-accl      y-accl      z-accl      x-coor      y-coor      z-coor
[...]
    22626 -2.58465E-01-1.09282E-04-9.95840E-04-2.53878E-02 1.13021E-04 8.11001E-05 1.14302E-04 1.11612E-04-8.62211E-05



 n o d a l   p r i n t   o u t   f o r   t i m e  s t e p   45205                              ( at time 2.2599738E+01 )

 nodal point  x-disp     y-disp      z-disp      x-vel       y-vel       z-vel      x-accl      y-accl      z-accl      x-coor      y-coor      z-coor
    22626 -1.17705E-01 3.18262E+01 2.28656E+01-2.11663E-02 1.69968E+00 1.31357E+00-2.24929E-03-5.33522E-02 9.08208E-02 4.54167E+00 3.63533E+00-2.21162E+01



 n o d a l   p r i n t   o u t   f o r   t i m e  s t e p   45205                              ( at time 2.2599738E+01 )

 nodal point  x-rot      y-rot       z-rot       x-rot vel   y-rot vel   z-rot vel   x-rot acc   y-rot acc   z-rot acc
    22626 -2.61002E-01-9.81390E-05-9.87277E-04-2.53696E-02 1.05821E-04 7.95115E-05 1.81345E-04-7.20020E-05-1.58876E-05



 n o d a l   p r i n t   o u t   f o r   t i m e  s t e p   45405                              ( at time 2.2699728E+01 )

 nodal point  x-disp     y-disp      z-disp      x-vel       y-vel       z-vel      x-accl      y-accl      z-accl      x-coor      y-coor      z-coor
    22626 -1.19859E-01 3.19958E+01 2.29973E+01-2.20507E-02 1.69380E+00 1.32145E+00-8.84426E-03-5.88124E-02 7.88669E-02 4.53952E+00 3.80501E+00-2.19844E+01



 n o d a l   p r i n t   o u t   f o r   t i m e  s t e p   45405                              ( at time 2.2699728E+01 )

 nodal point  x-rot      y-rot       z-rot       x-rot vel   y-rot vel   z-rot vel   x-rot acc   y-rot acc   z-rot acc
    22626 -2.63539E-01-8.73145E-05-9.78717E-04-2.53611E-02 1.10606E-04 9.08788E-05 8.48529E-05 4.78550E-05 1.13686E-04



 n o d a l   p r i n t   o u t   f o r   t i m e  s t e p   45605                              ( at time 2.2799718E+01 )

 nodal point  x-disp     y-disp      z-disp      x-vel       y-vel       z-vel      x-accl      y-accl      z-accl      x-coor      y-coor      z-coor
    22626 -1.21996E-01 3.21649E+01 2.31298E+01-2.12080E-02 1.68833E+00 1.32998E+00 8.42723E-03-5.47006E-02 8.52794E-02 4.53738E+00 3.97410E+00-2.18519E+01



 n o d a l   p r i n t   o u t   f o r   t i m e  s t e p   45605                              ( at time 2.2799718E+01 )

 nodal point  x-rot      y-rot       z-rot       x-rot vel   y-rot vel   z-rot vel   x-rot acc   y-rot acc   z-rot acc
    22626 -2.66074E-01-7.59637E-05-9.70388E-04-2.53436E-02 1.20752E-04 7.63097E-05 1.75123E-04 1.01466E-04-1.45705E-04



 n o d a l   p r i n t   o u t   f o r   t i m e  s t e p   45805                              ( at time 2.2899708E+01 )

 nodal point  x-disp     y-disp      z-disp      x-vel       y-vel       z-vel      x-accl      y-accl      z-accl      x-coor      y-coor      z-coor
    22626 -1.24078E-01 3.23335E+01 2.32632E+01-2.06082E-02 1.68307E+00 1.33789E+00 5.99862E-03-5.25986E-02 7.91280E-02 4.53530E+00 4.14266E+00-2.17185E+01



 n o d a l   p r i n t   o u t   f o r   t i m e  s t e p   45805                              ( at time 2.2899708E+01 )

 nodal point  x-rot      y-rot       z-rot       x-rot vel   y-rot vel   z-rot vel   x-rot acc   y-rot acc   z-rot acc
    22626 -2.68607E-01-6.37938E-05-9.62965E-04-2.53334E-02 1.23846E-04 7.10827E-05 1.01917E-04 3.09470E-05-5.22758E-05



 n o d a l   p r i n t   o u t   f o r   t i m e  s t e p   46005                              ( at time 2.2999698E+01 )

 nodal point  x-disp     y-disp      z-disp      x-vel       y-vel       z-vel      x-accl      y-accl      z-accl      x-coor      y-coor      z-coor
    22626 -1.26180E-01 3.25015E+01 2.33975E+01-2.12535E-02 1.67827E+00 1.34725E+00-6.45369E-03-4.80553E-02 9.36260E-02 4.53320E+00 4.31071E+00-2.15842E+01



 n o d a l   p r i n t   o u t   f o r   t i m e  s t e p   46005                              ( at time 2.2999698E+01 )

 nodal point  x-rot      y-rot       z-rot       x-rot vel   y-rot vel   z-rot vel   x-rot acc   y-rot acc   z-rot acc
    22626 -2.71138E-01-5.25682E-05-9.55658E-04-2.53058E-02 1.06477E-04 7.28512E-05 2.76591E-04-1.73710E-04 1.76871E-05



 n o d a l   p r i n t   o u t   f o r   t i m e  s t e p   46205                              ( at time 2.3099688E+01 )

 nodal point  x-disp     y-disp      z-disp      x-vel       y-vel       z-vel      x-accl      y-accl      z-accl      x-coor      y-coor      z-coor
    22626 -1.28243E-01 3.26691E+01 2.35327E+01-2.01550E-02 1.67342E+00 1.35640E+00 1.09868E-02-4.84627E-02 9.15009E-02 4.53113E+00 4.47826E+00-2.14490E+01



 n o d a l   p r i n t   o u t   f o r   t i m e  s t e p   46205                              ( at time 2.3099688E+01 )

 nodal point  x-rot      y-rot       z-rot       x-rot vel   y-rot vel   z-rot vel   x-rot acc   y-rot acc   z-rot acc
    22626 -2.73667E-01-4.15281E-05-9.48968E-04-2.52803E-02 1.18619E-04 6.61739E-05 2.54577E-04 1.21439E-04-6.67805E-05



 n o d a l   p r i n t   o u t   f o r   t i m e  s t e p   46405                              ( at time 2.3199678E+01 )

 nodal point  x-disp     y-disp      z-disp      x-vel       y-vel       z-vel      x-accl      y-accl      z-accl      x-coor      y-coor      z-coor
    22626 -1.30247E-01 3.28362E+01 2.36687E+01-2.01145E-02 1.66822E+00 1.36453E+00 4.04659E-04-5.20205E-02 8.12748E-02 4.52913E+00 4.64535E+00-2.13130E+01



 n o d a l   p r i n t   o u t   f o r   t i m e  s t e p   46405                              ( at time 2.3199678E+01 )

 nodal point  x-rot      y-rot       z-rot       x-rot vel   y-rot vel   z-rot vel   x-rot acc   y-rot acc   z-rot acc
    22626 -2.76194E-01-2.88385E-05-9.42254E-04-2.52592E-02 1.27745E-04 6.15850E-05 2.11057E-04 9.12703E-05-4.58929E-05



 n o d a l   p r i n t   o u t   f o r   t i m e  s t e p   46605                              ( at time 2.3299668E+01 )

 nodal point  x-disp     y-disp      z-disp      x-vel       y-vel       z-vel      x-accl      y-accl      z-accl      x-coor      y-coor      z-coor
    22626 -1.32351E-01 3.30028E+01 2.38056E+01-2.11163E-02 1.66420E+00 1.37280E+00-1.00187E-02-4.02352E-02 8.27106E-02 4.52702E+00 4.81195E+00-2.11761E+01



 n o d a l   p r i n t   o u t   f o r   t i m e  s t e p   46605                              ( at time 2.3299668E+01 )

 nodal point  x-rot      y-rot       z-rot       x-rot vel   y-rot vel   z-rot vel   x-rot acc   y-rot acc   z-rot acc
    22626 -2.78717E-01-1.59740E-05-9.35763E-04-2.52307E-02 1.25899E-04 6.61363E-05 2.84867E-04-1.84668E-05 4.55174E-05



 n o d a l   p r i n t   o u t   f o r   t i m e  s t e p   46805                              ( at time 2.3399658E+01 )

 nodal point  x-disp     y-disp      z-disp      x-vel       y-vel       z-vel      x-accl      y-accl      z-accl      x-coor      y-coor      z-coor
    22626 -1.34398E-01 3.31690E+01 2.39433E+01-2.02689E-02 1.66012E+00 1.38162E+00 8.47479E-03-4.08258E-02 8.82075E-02 4.52498E+00 4.97813E+00-2.10384E+01



 n o d a l   p r i n t   o u t   f o r   t i m e  s t e p   46805                              ( at time 2.3399658E+01 )

 nodal point  x-rot      y-rot       z-rot       x-rot vel   y-rot vel   z-rot vel   x-rot acc   y-rot acc   z-rot acc
    22626 -2.81237E-01-3.14114E-06-9.29753E-04-2.51921E-02 1.34066E-04 6.30511E-05 3.86124E-04 8.16808E-05-3.08545E-05



 n o d a l   p r i n t   o u t   f o r   t i m e  s t e p   47005                              ( at time 2.3499648E+01 )

 nodal point  x-disp     y-disp      z-disp      x-vel       y-vel       z-vel      x-accl      y-accl      z-accl      x-coor      y-coor      z-coor
    22626 -1.36452E-01 3.33347E+01 2.40819E+01-2.05704E-02 1.65616E+00 1.38994E+00-3.01569E-03-3.96133E-02 8.32109E-02 4.52292E+00 5.14390E+00-2.08999E+01



 n o d a l   p r i n t   o u t   f o r   t i m e  s t e p   47005                              ( at time 2.3499648E+01 )

 nodal point  x-rot      y-rot       z-rot       x-rot vel   y-rot vel   z-rot vel   x-rot acc   y-rot acc   z-rot acc
    22626 -2.83754E-01 1.01771E-05-9.23532E-04-2.51596E-02 1.39765E-04 5.91337E-05 3.25546E-04 5.69939E-05-3.91777E-05



 n o d a l   p r i n t   o u t   f o r   t i m e  s t e p   47205                              ( at time 2.3599638E+01 )

 nodal point  x-disp     y-disp      z-disp      x-vel       y-vel       z-vel      x-accl      y-accl      z-accl      x-coor      y-coor      z-coor
    22626 -1.38502E-01 3.35001E+01 2.42212E+01-2.11435E-02 1.65288E+00 1.39681E+00-5.73121E-03-3.27278E-02 6.86876E-02 4.52087E+00 5.30929E+00-2.07605E+01



 n o d a l   p r i n t   o u t   f o r   t i m e  s t e p   47205                              ( at time 2.3599638E+01 )

 nodal point  x-rot      y-rot       z-rot       x-rot vel   y-rot vel   z-rot vel   x-rot acc   y-rot acc   z-rot acc
    22626 -2.86267E-01 2.41814E-05-9.18159E-04-2.51066E-02 1.32643E-04 5.14947E-05 5.29534E-04-7.12330E-05-7.63988E-05



 n o d a l   p r i n t   o u t   f o r   t i m e  s t e p   47405                              ( at time 2.3699628E+01 )

 nodal point  x-disp     y-disp      z-disp      x-vel       y-vel       z-vel      x-accl      y-accl      z-accl      x-coor      y-coor      z-coor
    22626 -1.40539E-01 3.36652E+01 2.43613E+01-1.97956E-02 1.64914E+00 1.40536E+00 1.34803E-02-3.74041E-02 8.55715E-02 4.51884E+00 5.47438E+00-2.06204E+01



 n o d a l   p r i n t   o u t   f o r   t i m e  s t e p   47405                              ( at time 2.3699628E+01 )

 nodal point  x-rot      y-rot       z-rot       x-rot vel   y-rot vel   z-rot vel   x-rot acc   y-rot acc   z-rot acc
    22626 -2.88774E-01 3.79466E-05-9.12802E-04-2.50517E-02 1.28850E-04 5.73768E-05 5.49344E-04-3.79310E-05 5.88265E-05



 n o d a l   p r i n t   o u t   f o r   t i m e  s t e p   47605                              ( at time 2.3799618E+01 )

 nodal point  x-disp     y-disp      z-disp      x-vel       y-vel       z-vel      x-accl      y-accl      z-accl      x-coor      y-coor      z-coor
    22626 -1.42512E-01 3.38300E+01 2.45021E+01-1.88975E-02 1.64620E+00 1.41145E+00 8.98114E-03-2.94646E-02 6.08440E-02 4.51686E+00 5.63915E+00-2.04796E+01



 n o d a l   p r i n t   o u t   f o r   t i m e  s t e p   47605                              ( at time 2.3799618E+01 )

 nodal point  x-rot      y-rot       z-rot       x-rot vel   y-rot vel   z-rot vel   x-rot acc   y-rot acc   z-rot acc
    22626 -2.91277E-01 5.04989E-05-9.06807E-04-2.50105E-02 1.24658E-04 5.49164E-05 4.12491E-04-4.19254E-05-2.46063E-05



 n o d a l   p r i n t   o u t   f o r   t i m e  s t e p   47805                              ( at time 2.3899608E+01 )

 nodal point  x-disp     y-disp      z-disp      x-vel       y-vel       z-vel      x-accl      y-accl      z-accl      x-coor      y-coor      z-coor
    22626 -1.44456E-01 3.39945E+01 2.46436E+01-1.97328E-02 1.64439E+00 1.41884E+00-8.35380E-03-1.80511E-02 7.39153E-02 4.51492E+00 5.80368E+00-2.03381E+01



 n o d a l   p r i n t   o u t   f o r   t i m e  s t e p   47805                              ( at time 2.3899608E+01 )

 nodal point  x-rot      y-rot       z-rot       x-rot vel   y-rot vel   z-rot vel   x-rot acc   y-rot acc   z-rot acc
    22626 -2.93774E-01 6.26564E-05-9.01530E-04-2.49378E-02 1.27658E-04 5.73744E-05 7.26684E-04 3.00063E-05 2.45819E-05



 n o d a l   p r i n t   o u t   f o r   t i m e  s t e p   48005                              ( at time 2.3999598E+01 )

 nodal point  x-disp     y-disp      z-disp      x-vel       y-vel       z-vel      x-accl      y-accl      z-accl      x-coor      y-coor      z-coor
    22626 -1.46373E-01 3.41588E+01 2.47858E+01-1.93371E-02 1.64172E+00 1.42558E+00 3.95740E-03-2.67297E-02 6.74501E-02 4.51300E+00 5.96795E+00-2.01959E+01



 n o d a l   p r i n t   o u t   f o r   t i m e  s t e p   48005                              ( at time 2.3999598E+01 )

 nodal point  x-rot      y-rot       z-rot       x-rot vel   y-rot vel   z-rot vel   x-rot acc   y-rot acc   z-rot acc
    22626 -2.96265E-01 7.60600E-05-8.96370E-04-2.48927E-02 1.32805E-04 4.82733E-05 4.50810E-04 5.14707E-05-9.10204E-05



 n o d a l   p r i n t   o u t   f o r   t i m e  s t e p   48205                              ( at time 2.4099588E+01 )

 nodal point  x-disp     y-disp      z-disp      x-vel       y-vel       z-vel      x-accl      y-accl      z-accl      x-coor      y-coor      z-coor
    22626 -1.48359E-01 3.43229E+01 2.49287E+01-1.98607E-02 1.64031E+00 1.43180E+00-5.23556E-03-1.40704E-02 6.22055E-02 4.51102E+00 6.13203E+00-2.00530E+01



 n o d a l   p r i n t   o u t   f o r   t i m e  s t e p   48205                              ( at time 2.4099588E+01 )

 nodal point  x-rot      y-rot       z-rot       x-rot vel   y-rot vel   z-rot vel   x-rot acc   y-rot acc   z-rot acc
    22626 -2.98751E-01 8.96656E-05-8.90664E-04-2.48221E-02 1.29310E-04 5.30584E-05 7.06026E-04-3.49485E-05 4.78546E-05



 n o d a l   p r i n t   o u t   f o r   t i m e  s t e p   48405                              ( at time 2.4199578E+01 )

 nodal point  x-disp     y-disp      z-disp      x-vel       y-vel       z-vel      x-accl      y-accl      z-accl      x-coor      y-coor      z-coor
    22626 -1.50390E-01 3.44868E+01 2.50722E+01-2.03921E-02 1.63867E+00 1.43767E+00-5.31511E-03-1.64110E-02 5.86539E-02 4.50899E+00 6.29592E+00-1.99096E+01



 n o d a l   p r i n t   o u t   f o r   t i m e  s t e p   48405                              ( at time 2.4199578E+01 )

 nodal point  x-rot      y-rot       z-rot       x-rot vel   y-rot vel   z-rot vel   x-rot acc   y-rot acc   z-rot acc
    22626 -3.01230E-01 1.02863E-04-8.85156E-04-2.47543E-02 1.32671E-04 5.34932E-05 6.77854E-04 3.36114E-05 4.34903E-06



 n o d a l   p r i n t   o u t   f o r   t i m e  s t e p   48605                              ( at time 2.4299568E+01 )

 nodal point  x-disp     y-disp      z-disp      x-vel       y-vel       z-vel      x-accl      y-accl      z-accl      x-coor      y-coor      z-coor
    22626 -1.52343E-01 3.46505E+01 2.52162E+01-1.94616E-02 1.63636E+00 1.44461E+00 9.30560E-03-2.31502E-02 6.94183E-02 4.50703E+00 6.45963E+00-1.97655E+01



 n o d a l   p r i n t   o u t   f o r   t i m e  s t e p   48605                              ( at time 2.4299568E+01 )

 nodal point  x-rot      y-rot       z-rot       x-rot vel   y-rot vel   z-rot vel   x-rot acc   y-rot acc   z-rot acc
    22626 -3.03702E-01 1.16974E-04-8.79635E-04-2.46996E-02 1.52747E-04 6.30760E-05 5.47854E-04 2.00782E-04 9.58365E-05



 n o d a l   p r i n t   o u t   f o r   t i m e  s t e p   48805                              ( at time 2.4399558E+01 )

 nodal point  x-disp     y-disp      z-disp      x-vel       y-vel       z-vel      x-accl      y-accl      z-accl      x-coor      y-coor      z-coor
    22626 -1.54336E-01 3.48140E+01 2.53609E+01-1.97261E-02 1.63541E+00 1.44979E+00-2.64468E-03-9.45893E-03 5.18322E-02 4.50504E+00 6.62318E+00-1.96208E+01



 n o d a l   p r i n t   o u t   f o r   t i m e  s t e p   48805                              ( at time 2.4399558E+01 )

 nodal point  x-rot      y-rot       z-rot       x-rot vel   y-rot vel   z-rot vel   x-rot acc   y-rot acc   z-rot acc
    22626 -3.06168E-01 1.31358E-04-8.73352E-04-2.46185E-02 1.39291E-04 5.75284E-05 8.11182E-04-1.34576E-04-5.54810E-05



 n o d a l   p r i n t   o u t   f o r   t i m e  s t e p   49006                              ( at time 2.4500048E+01 )

 nodal point  x-disp     y-disp      z-disp      x-vel       y-vel       z-vel      x-accl      y-accl      z-accl      x-coor      y-coor      z-coor
    22626 -1.56338E-01 3.49782E+01 2.55068E+01-2.03748E-02 1.63266E+00 1.45370E+00-6.45616E-03-2.73833E-02 3.88607E-02 4.50304E+00 6.78740E+00-1.94749E+01



 n o d a l   p r i n t   o u t   f o r   t i m e  s t e p   49006                              ( at time 2.4500048E+01 )

 nodal point  x-rot      y-rot       z-rot       x-rot vel   y-rot vel   z-rot vel   x-rot acc   y-rot acc   z-rot acc
    22626 -3.08640E-01 1.45273E-04-8.66966E-04-2.45553E-02 1.34708E-04 7.05763E-05 6.28273E-04-4.56027E-05 1.29845E-04



 n o d a l   p r i n t   o u t   f o r   t i m e  s t e p   49206                              ( at time 2.4600038E+01 )

 nodal point  x-disp     y-disp      z-disp      x-vel       y-vel       z-vel      x-accl      y-accl      z-accl      x-coor      y-coor      z-coor
    22626 -1.58336E-01 3.51415E+01 2.56524E+01-1.92908E-02 1.63245E+00 1.45773E+00 1.08412E-02-2.10662E-03 4.03084E-02 4.50104E+00 6.95066E+00-1.93293E+01



 n o d a l   p r i n t   o u t   f o r   t i m e  s t e p   49206                              ( at time 2.4600038E+01 )

 nodal point  x-rot      y-rot       z-rot       x-rot vel   y-rot vel   z-rot vel   x-rot acc   y-rot acc   z-rot acc
    22626 -3.11091E-01 1.58413E-04-8.60068E-04-2.44837E-02 1.28724E-04 5.71716E-05 7.15992E-04-5.98517E-05-1.34059E-04



 n o d a l   p r i n t   o u t   f o r   t i m e  s t e p   49406                              ( at time 2.4700028E+01 )

 nodal point  x-disp     y-disp      z-disp      x-vel       y-vel       z-vel      x-accl      y-accl      z-accl      x-coor      y-coor      z-coor
    22626 -1.60228E-01 3.53046E+01 2.57983E+01-1.82695E-02 1.63106E+00 1.46045E+00 1.02143E-02-1.38894E-02 2.72101E-02 4.49915E+00 7.11382E+00-1.91834E+01



 n o d a l   p r i n t   o u t   f o r   t i m e  s t e p   49406                              ( at time 2.4700028E+01 )

 nodal point  x-rot      y-rot       z-rot       x-rot vel   y-rot vel   z-rot vel   x-rot acc   y-rot acc   z-rot acc
    22626 -3.13535E-01 1.71177E-04-8.53120E-04-2.43947E-02 1.27232E-04 7.90414E-05 8.90443E-04-1.49163E-05 2.18722E-04



 n o d a l   p r i n t   o u t   f o r   t i m e  s t e p   49606                              ( at time 2.4800018E+01 )

 nodal point  x-disp     y-disp      z-disp      x-vel       y-vel       z-vel      x-accl      y-accl      z-accl      x-coor      y-coor      z-coor
    22626 -1.62013E-01 3.54677E+01 2.59445E+01-1.89534E-02 1.63024E+00 1.46386E+00-6.83983E-03-8.16539E-03 3.41471E-02 4.49736E+00 7.27692E+00-1.90373E+01



 n o d a l   p r i n t   o u t   f o r   t i m e  s t e p   49606                              ( at time 2.4800018E+01 )

 nodal point  x-rot      y-rot       z-rot       x-rot vel   y-rot vel   z-rot vel   x-rot acc   y-rot acc   z-rot acc
    22626 -3.15972E-01 1.82440E-04-8.45936E-04-2.43262E-02 1.15250E-04 7.45323E-05 6.84995E-04-1.19835E-04-4.50953E-05



 n o d a l   p r i n t   o u t   f o r   t i m e  s t e p   49806                              ( at time 2.4900008E+01 )

 nodal point  x-disp     y-disp      z-disp      x-vel       y-vel       z-vel      x-accl      y-accl      z-accl      x-coor      y-coor      z-coor
    22626 -1.63911E-01 3.56307E+01 2.60908E+01-1.80392E-02 1.62996E+00 1.46264E+00 9.14367E-03-2.78861E-03-1.22465E-02 4.49546E+00 7.43989E+00-1.88910E+01



 n o d a l   p r i n t   o u t   f o r   t i m e  s t e p   49806                              ( at time 2.4900008E+01 )

 nodal point  x-rot      y-rot       z-rot       x-rot vel   y-rot vel   z-rot vel   x-rot acc   y-rot acc   z-rot acc
    22626 -3.18400E-01 1.93129E-04-8.38693E-04-2.42426E-02 1.11654E-04 7.80937E-05 8.36569E-04-3.59666E-05 3.56187E-05



 n o d a l   p r i n t   o u t   f o r   t i m e  s t e p   50006                              ( at time 2.4999998E+01 )

 nodal point  x-disp     y-disp      z-disp      x-vel       y-vel       z-vel      x-accl      y-accl      z-accl      x-coor      y-coor      z-coor
    22626 -1.65744E-01 3.57937E+01 2.62372E+01-1.92794E-02 1.62937E+00 1.46444E+00-1.24031E-02-5.91571E-03 1.80499E-02 4.49363E+00 7.60285E+00-1.87445E+01



 n o d a l   p r i n t   o u t   f o r   t i m e  s t e p   50006                              ( at time 2.4999998E+01 )

 nodal point  x-rot      y-rot       z-rot       x-rot vel   y-rot vel   z-rot vel   x-rot acc   y-rot acc   z-rot acc
    22626 -3.20820E-01 2.04992E-04-8.31341E-04-2.41636E-02 1.15235E-04 6.94626E-05 7.89797E-04 3.58172E-05-8.63192E-05
