 LSTC 50th% Full_FE H-III Dummy (Beta Version, February 17, 2019)        
                    ls-dyna smp s R16 R16.0_619_d222963 date 03/18/2025

{BEGIN LEGEND}
 Entity #        Title
        1     Upper_Neck_Force_INJURY                                              
{END LEGEND}



 line#1  section#     time        x-force     y-force     z-force    magnitude
 line#2  resultant  moments       x-moment    y-moment    z-moment   magnitude
 line#3  centroids                x           y           z            area  
           1    0.00000E+00     0.0000E+00  0.0000E+00  0.0000E+00  0.0000E+00
ac ID =   33377                 0.0000E+00  0.0000E+00  0.0000E+00  0.0000E+00
                               -3.7437E-01  1.0501E+01 -4.6940E+01  0.0000E+00

           1    1.00490E-01     1.3582E-04 -4.9878E-03  2.5982E-01  2.5987E-01
ac ID =   33377                 4.2549E-01 -1.2521E+00 -2.7107E-02  1.3227E+00
                               -3.7387E-01  1.0590E+01 -4.6886E+01  2.5147E+03

           1    2.00480E-01    -4.4316E-02  4.9831E-04  4.4126E-01  4.4348E-01
ac ID =   33377                 3.0759E-01 -1.5984E+00  2.0562E-02  1.6279E+00
                               -3.7386E-01  1.0591E+01 -4.6888E+01  2.5147E+03

           1    3.00470E-01     1.4735E-02 -3.0713E-03  2.1756E-01  2.1808E-01
ac ID =   33377                 2.1919E-02 -3.3567E-01  6.5518E-02  3.4271E-01
                               -3.7382E-01  1.0591E+01 -4.6889E+01  2.5147E+03

           1    4.00460E-01     2.9126E-03  1.0540E-02  8.8088E-02  8.8764E-02
ac ID =   33377                -4.9443E-01 -9.4522E-01 -3.2887E-05  1.0667E+00
                               -3.7383E-01  1.0592E+01 -4.6890E+01  2.5147E+03

           1    5.00450E-01    -4.0649E-02  4.4261E-03  1.6199E-01  1.6707E-01
ac ID =   33377                -3.9748E-01 -1.5058E+00 -1.0896E-01  1.5612E+00
                               -3.7385E-01  1.0594E+01 -4.6893E+01  2.5147E+03

           1    6.00440E-01    -1.1066E-02  3.7823E-03  3.4354E-01  3.4374E-01
ac ID =   33377                 9.8000E-02 -1.3288E+00 -3.8417E-02  1.3330E+00
                               -3.7385E-01  1.0595E+01 -4.6897E+01  2.5147E+03

           1    7.00430E-01     2.7673E-03 -5.4606E-03  2.9516E-01  2.9522E-01
ac ID =   33377                 1.2834E-01 -5.1102E-01  8.4155E-02  5.3357E-01
                               -3.7389E-01  1.0597E+01 -4.6901E+01  2.5147E+03

           1    8.00420E-01    -3.1027E-02 -9.2181E-04  1.0094E-01  1.0560E-01
ac ID =   33377                 7.5468E-02 -1.0523E+00  4.2890E-02  1.0559E+00
                               -3.7394E-01  1.0599E+01 -4.6905E+01  2.5147E+03

           1    9.00410E-01    -3.9227E-02  8.0283E-04  6.2263E-02  7.3594E-02
ac ID =   33377                 1.0428E-01 -1.0716E+00 -5.9967E-03  1.0767E+00
                               -3.7398E-01  1.0601E+01 -4.6909E+01  2.5147E+03

           1    1.00040E+00     1.4455E-02 -4.0342E-03  2.2116E-01  2.2167E-01
ac ID =   33377                 3.7179E-01 -2.9111E-01 -6.8244E-02  4.7710E-01
                               -3.7400E-01  1.0604E+01 -4.6915E+01  2.5147E+03

           1    1.10039E+00     5.9724E-05 -2.2166E-03  2.7173E-01  2.7174E-01
ac ID =   33377                 3.3607E-01 -8.9050E-01 -5.7924E-02  9.5356E-01
                               -3.7400E-01  1.0607E+01 -4.6921E+01  2.5147E+03

           1    1.20038E+00    -3.1895E-02 -3.0724E-04  1.2992E-01  1.3377E-01
ac ID =   33377                -1.5198E-01 -1.1840E+00  1.3870E-02  1.1938E+00
                               -3.7403E-01  1.0609E+01 -4.6927E+01  2.5147E+03

           1    1.30037E+00    -1.1066E-02  4.5212E-03  7.6206E-02  7.7137E-02
ac ID =   33377                -2.9481E-01 -9.1706E-01  1.2144E-02  9.6336E-01
                               -3.7406E-01  1.0612E+01 -4.6933E+01  2.5147E+03

           1    1.40036E+00     7.4132E-03  4.5529E-03  1.7569E-01  1.7591E-01
ac ID =   33377                -3.0639E-01 -8.6386E-01  3.2164E-02  9.1715E-01
                               -3.7408E-01  1.0616E+01 -4.6941E+01  2.5147E+03

           1    1.50035E+00    -2.7595E-02  1.7116E-03  3.3113E-01  3.3228E-01
ac ID =   33377                -2.6498E-02 -1.6216E+00 -4.2027E-02  1.6223E+00
                               -3.7411E-01  1.0620E+01 -4.6949E+01  2.5147E+03

           1    1.60034E+00    -2.1482E-02 -1.7960E-03  2.2646E-01  2.2748E-01
ac ID =   33377                -1.9005E-02 -1.4539E+00 -7.3434E-03  1.4541E+00
                               -3.7416E-01  1.0623E+01 -4.6956E+01  2.5147E+03

           1    1.70033E+00     4.9601E-03  1.8023E-03  5.7450E-02  5.7691E-02
ac ID =   33377                -1.1191E-01 -6.5484E-01  5.9271E-02  6.6697E-01
                               -3.7422E-01  1.0627E+01 -4.6964E+01  2.5147E+03

           1    1.80032E+00    -1.5031E-03  3.6161E-03  6.1490E-02  6.1615E-02
ac ID =   33377                 4.4074E-03 -7.8732E-01  1.2638E-01  7.9741E-01
                               -3.7425E-01  1.0631E+01 -4.6973E+01  2.5147E+03

           1    1.90031E+00     2.6677E-02  3.3793E-04  1.5813E-01  1.6036E-01
ac ID =   33377                 1.2644E-01 -2.7106E-01 -1.3102E-01  3.2654E-01
                               -3.7424E-01  1.0637E+01 -4.6983E+01  2.5147E+03

           1    2.00030E+00     3.5889E-02  4.1987E-03  1.1436E-01  1.1993E-01
ac ID =   33377                -7.3442E-02  4.2796E-01 -1.5575E-01  4.6130E-01
                               -3.7421E-01  1.0642E+01 -4.6993E+01  2.5147E+03

           1    2.10029E+00     3.7843E-02  5.8873E-03 -5.6803E-02  6.8508E-02
ac ID =   33377                -3.4475E-01  7.7002E-01 -8.7877E-02  8.4824E-01
                               -3.7415E-01  1.0649E+01 -4.7002E+01  2.5147E+03

           1    2.20028E+00     5.5616E-02  1.7788E-02 -7.4085E-02  9.4330E-02
ac ID =   33377                -7.0621E-01  9.8877E-01  1.1042E-01  1.2201E+00
                               -3.7407E-01  1.0656E+01 -4.7013E+01  2.5147E+03

           1    2.30027E+00     8.5397E-02  1.1103E-02  4.0176E-02  9.5027E-02
ac ID =   33377                -6.3201E-01  1.2954E+00 -1.0367E-01  1.4451E+00
                               -3.7393E-01  1.0666E+01 -4.7024E+01  2.5147E+03

           1    2.40026E+00     7.3473E-02  4.1620E-03  7.1204E-02  1.0240E-01
ac ID =   33377                -6.1672E-01  1.0201E+00 -1.7163E-01  1.2043E+00
                               -3.7383E-01  1.0677E+01 -4.7036E+01  2.5147E+03

           1    2.50025E+00     8.8393E-02  5.7947E-03 -1.4569E-01  1.7050E-01
ac ID =   33377                -6.4811E-01  1.7892E+00  3.7918E-02  1.9033E+00
                               -3.7376E-01  1.0689E+01 -4.7048E+01  2.5147E+03

           1    2.60024E+00     1.0085E-01  1.1578E-02 -2.3957E-01  2.6019E-01
ac ID =   33377                -5.9732E-01  2.5995E+00 -3.0755E-02  2.6674E+00
                               -3.7372E-01  1.0703E+01 -4.7060E+01  2.5147E+03

           1    2.70023E+00     1.0570E-01  3.1658E-03 -1.8001E-01  2.0878E-01
ac ID =   33377                -2.3156E-01  2.8575E+00  7.0096E-02  2.8677E+00
                               -3.7370E-01  1.0720E+01 -4.7074E+01  2.5147E+03

           1    2.80022E+00     1.2137E-01 -2.9701E-03 -1.5958E-01  2.0052E-01
ac ID =   33377                 1.1389E-01  3.3396E+00  8.8260E-02  3.3428E+00
                               -3.7369E-01  1.0739E+01 -4.7088E+01  2.5147E+03

           1    2.90021E+00     1.3200E-01 -3.5497E-03 -2.4766E-01  2.8066E-01
ac ID =   33377                -1.6949E-01  3.7130E+00 -1.9180E-01  3.7218E+00
                               -3.7369E-01  1.0760E+01 -4.7103E+01  2.5147E+03

           1    3.00020E+00     1.3911E-01  1.0301E-02 -3.5066E-01  3.7738E-01
ac ID =   33377                -5.5077E-01  3.8873E+00 -1.5053E-01  3.9290E+00
                               -3.7374E-01  1.0783E+01 -4.7118E+01  2.5147E+03

           1    3.10019E+00     1.4211E-01  8.4683E-03 -2.9211E-01  3.2495E-01
ac ID =   33377                -3.9417E-01  3.7107E+00 -7.9238E-02  3.7324E+00
                               -3.7381E-01  1.0810E+01 -4.7134E+01  2.5147E+03

           1    3.20018E+00     1.6809E-01  9.0963E-03 -2.4936E-01  3.0086E-01
ac ID =   33377                -7.8023E-01  4.1054E+00  1.7302E-02  4.1789E+00
                               -3.7381E-01  1.0839E+01 -4.7151E+01  2.5147E+03

           1    3.30017E+00     1.6571E-01  5.9799E-03 -3.3507E-01  3.7385E-01
ac ID =   33377                -8.4834E-01  4.3387E+00 -4.8932E-03  4.4209E+00
                               -3.7388E-01  1.0871E+01 -4.7168E+01  2.5147E+03

           1    3.40016E+00     1.7534E-01  9.0286E-03 -4.7192E-01  5.0352E-01
ac ID =   33377                -9.2736E-01  4.9974E+00  4.8203E-02  5.0829E+00
                               -3.7401E-01  1.0905E+01 -4.7186E+01  2.5147E+03

           1    3.50015E+00     1.7523E-01  6.1492E-03 -5.3693E-01  5.6483E-01
ac ID =   33377                -5.4861E-01  5.5754E+00  1.9225E-01  5.6056E+00
                               -3.7416E-01  1.0944E+01 -4.7204E+01  2.5147E+03

           1    3.60014E+00     1.8157E-01  6.0297E-04 -4.6570E-01  4.9985E-01
ac ID =   33377                -2.1261E-01  5.8467E+00  2.3869E-01  5.8555E+00
                               -3.7430E-01  1.0985E+01 -4.7224E+01  2.5147E+03

           1    3.70013E+00     2.2820E-01 -4.5586E-03 -5.2567E-01  5.7309E-01
ac ID =   33377                 1.2648E-02  6.6139E+00 -5.5356E-04  6.6139E+00
                               -3.7447E-01  1.1029E+01 -4.7243E+01  2.5147E+03

           1    3.80012E+00     1.9557E-01 -9.7707E-03 -6.7648E-01  7.0425E-01
ac ID =   33377                 9.6875E-02  7.2450E+00 -1.1008E-01  7.2465E+00
                               -3.7475E-01  1.1076E+01 -4.7263E+01  2.5147E+03

           1    3.90011E+00     2.1670E-01  2.7498E-03 -7.5981E-01  7.9011E-01
ac ID =   33377                 1.3184E-02  7.1744E+00 -8.8214E-02  7.1750E+00
                               -3.7502E-01  1.1127E+01 -4.7284E+01  2.5147E+03

           1    4.00010E+00     2.1189E-01  1.5799E-02 -7.2870E-01  7.5905E-01
ac ID =   33377                -7.8416E-01  7.3899E+00 -1.8009E-01  7.4335E+00
                               -3.7529E-01  1.1182E+01 -4.7305E+01  2.5147E+03

           1    4.10009E+00     2.1194E-01 -1.7312E-04 -7.3526E-01  7.6520E-01
ac ID =   33377                -5.4248E-01  7.1982E+00 -1.2920E-01  7.2198E+00
                               -3.7552E-01  1.1240E+01 -4.7327E+01  2.5147E+03

           1    4.20008E+00     2.6457E-01  1.0274E-02 -9.0089E-01  9.3900E-01
ac ID =   33377                -1.0261E+00  7.8845E+00  1.4842E-01  7.9524E+00
                               -3.7580E-01  1.1300E+01 -4.7349E+01  2.5147E+03

           1    4.30007E+00     2.3916E-01  9.0595E-03 -1.0377E+00  1.0650E+00
ac ID =   33377                -1.0401E+00  8.3837E+00  1.5764E-01  8.4494E+00
                               -3.7608E-01  1.1365E+01 -4.7371E+01  2.5147E+03

           1    4.40006E+00     2.6446E-01  1.2386E-02 -1.0207E+00  1.0544E+00
ac ID =   33377                -7.3286E-01  9.1830E+00 -2.4518E-01  9.2154E+00
                               -3.7641E-01  1.1434E+01 -4.7394E+01  2.5147E+03

           1    4.50005E+00     2.1420E-01 -1.5346E-02 -9.7059E-01  9.9407E-01
ac ID =   33377                 3.3648E-02  9.1322E+00  6.9394E-02  9.1325E+00
                               -3.7673E-01  1.1506E+01 -4.7417E+01  2.5147E+03

           1    4.60004E+00     3.1812E-01 -2.1919E-02 -1.0959E+00  1.1414E+00
ac ID =   33377                 6.7534E-01  9.4049E+00 -9.3650E-02  9.4295E+00
                               -3.7718E-01  1.1581E+01 -4.7440E+01  2.5147E+03

           1    4.70003E+00     2.4866E-01  2.2706E-02 -1.2595E+00  1.2840E+00
ac ID =   33377                -5.8393E-01  9.5245E+00  5.1727E-01  9.5564E+00
                               -3.7757E-01  1.1661E+01 -4.7463E+01  2.5147E+03

           1    4.80002E+00     2.9309E-01 -1.8778E-02 -1.3279E+00  1.3599E+00
ac ID =   33377                 5.5674E-01  1.0476E+01  5.1535E-01  1.0503E+01
                               -3.7791E-01  1.1743E+01 -4.7485E+01  2.5147E+03

           1    4.90001E+00     2.6516E-01  4.7522E-03 -1.2705E+00  1.2979E+00
ac ID =   33377                -9.9572E-03  9.7203E+00  1.6242E-01  9.7216E+00
                               -3.7832E-01  1.1830E+01 -4.7509E+01  2.5147E+03

           1    5.00000E+00     3.0993E-01  6.0730E-04 -1.3215E+00  1.3574E+00
ac ID =   33377                -1.1066E+00  1.0559E+01 -2.2376E-01  1.0619E+01
                               -3.7857E-01  1.1919E+01 -4.7531E+01  2.5147E+03

           1    5.10049E+00     3.2799E-01  2.5236E-02 -1.5094E+00  1.5448E+00
ac ID =   33377                -1.3174E+00  1.2043E+01 -6.3951E-01  1.2132E+01
                               -3.7902E-01  1.2013E+01 -4.7553E+01  2.5147E+03

           1    5.20048E+00     3.0941E-01  6.2561E-03 -1.5719E+00  1.6021E+00
ac ID =   33377                -6.4510E-01  1.2315E+01  1.5312E-01  1.2333E+01
                               -3.7943E-01  1.2109E+01 -4.7575E+01  2.5147E+03

           1    5.30047E+00     3.2245E-01  2.2102E-03 -1.5949E+00  1.6272E+00
ac ID =   33377                -6.4189E-01  1.2579E+01  5.4106E-01  1.2607E+01
                               -3.7970E-01  1.2210E+01 -4.7596E+01  2.5147E+03

           1    5.40046E+00     3.1893E-01  1.9202E-03 -1.6214E+00  1.6525E+00
ac ID =   33377                -6.3926E-01  1.3544E+01 -1.7738E-01  1.3561E+01
                               -3.8004E-01  1.2313E+01 -4.7617E+01  2.5147E+03

           1    5.50045E+00     3.3355E-01 -1.1559E-02 -1.7241E+00  1.7561E+00
ac ID =   33377                 7.9654E-01  1.3627E+01 -2.6185E-01  1.3653E+01
                               -3.8053E-01  1.2419E+01 -4.7637E+01  2.5147E+03

           1    5.60044E+00     3.4956E-01  2.4366E-03 -1.9629E+00  1.9937E+00
ac ID =   33377                -1.7243E-01  1.5058E+01  1.6172E-01  1.5060E+01
                               -3.8073E-01  1.2528E+01 -4.7655E+01  2.5147E+03

           1    5.70043E+00     3.8688E-01 -8.4672E-03 -2.0106E+00  2.0475E+00
ac ID =   33377                 1.0298E-01  1.5536E+01  9.6008E-01  1.5566E+01
                               -3.8094E-01  1.2640E+01 -4.7673E+01  2.5147E+03

           1    5.80042E+00     3.6954E-01 -6.2516E-03 -1.9784E+00  2.0126E+00
ac ID =   33377                 1.7552E-01  1.6012E+01  3.6721E-01  1.6018E+01
                               -3.8121E-01  1.2756E+01 -4.7689E+01  2.5147E+03

           1    5.90041E+00     3.6494E-01  7.0412E-03 -2.0582E+00  2.0903E+00
ac ID =   33377                -9.7913E-01  1.7049E+01 -4.4291E-01  1.7083E+01
                               -3.8125E-01  1.2874E+01 -4.7704E+01  2.5147E+03

           1    6.00040E+00     4.1928E-01  6.6607E-03 -2.2323E+00  2.2714E+00
ac ID =   33377                -8.6808E-01  1.7948E+01 -1.5376E-01  1.7970E+01
                               -3.8151E-01  1.2995E+01 -4.7718E+01  2.5147E+03

           1    6.10039E+00     4.1686E-01  2.3949E-02 -2.3018E+00  2.3394E+00
ac ID =   33377                -9.6929E-01  1.9341E+01  6.3673E-01  1.9375E+01
                               -3.8178E-01  1.3119E+01 -4.7730E+01  2.5147E+03

           1    6.20038E+00     3.8931E-01 -1.9156E-02 -2.3050E+00  2.3377E+00
ac ID =   33377                -5.0888E-02  1.8513E+01  7.3448E-01  1.8528E+01
                               -3.8193E-01  1.3246E+01 -4.7741E+01  2.5147E+03

           1    6.30037E+00     4.2300E-01  1.1264E-02 -2.3492E+00  2.3870E+00
ac ID =   33377                -5.4065E-01  2.0439E+01 -2.8792E-01  2.0448E+01
                               -3.8220E-01  1.3376E+01 -4.7751E+01  2.5147E+03

           1    6.40036E+00     4.5740E-01 -4.1303E-03 -2.5157E+00  2.5569E+00
ac ID =   33377                 1.7403E-01  2.1389E+01 -1.9969E-01  2.1391E+01
                               -3.8250E-01  1.3508E+01 -4.7758E+01  2.5147E+03

           1    6.50035E+00     4.1019E-01 -3.5378E-02 -2.6659E+00  2.6975E+00
ac ID =   33377                 8.6803E-01  2.2266E+01 -6.5209E-03  2.2283E+01
                               -3.8273E-01  1.3643E+01 -4.7764E+01  2.5147E+03

           1    6.60034E+00     4.8279E-01  1.1886E-02 -2.6350E+00  2.6789E+00
ac ID =   33377                -3.9938E-01  2.3292E+01  3.6179E-01  2.3298E+01
                               -3.8304E-01  1.3780E+01 -4.7767E+01  2.5147E+03

           1    6.70033E+00     4.9294E-01  3.0574E-03 -2.6785E+00  2.7234E+00
ac ID =   33377                -2.1910E-01  2.4926E+01 -8.7537E-02  2.4927E+01
                               -3.8334E-01  1.3920E+01 -4.7769E+01  2.5147E+03

           1    6.80032E+00     4.5696E-01 -3.2406E-02 -2.7607E+00  2.7985E+00
ac ID =   33377                 2.7405E-01  2.5306E+01 -1.5120E-01  2.5308E+01
                               -3.8359E-01  1.4062E+01 -4.7769E+01  2.5147E+03

           1    6.90031E+00     4.7896E-01  2.8655E-02 -2.8915E+00  2.9311E+00
ac ID =   33377                -1.7957E+00  2.6321E+01  9.3740E-02  2.6382E+01
                               -3.8387E-01  1.4205E+01 -4.7766E+01  2.5147E+03

           1    7.00030E+00     5.3441E-01  9.2258E-03 -2.9571E+00  3.0050E+00
ac ID =   33377                -7.9341E-01  2.8402E+01 -1.8491E-01  2.8413E+01
                               -3.8421E-01  1.4352E+01 -4.7761E+01  2.5147E+03

           1    7.10029E+00     4.8347E-01  5.5588E-03 -2.9287E+00  2.9683E+00
ac ID =   33377                -8.1129E-01  2.7826E+01  7.7737E-01  2.7849E+01
                               -3.8436E-01  1.4500E+01 -4.7753E+01  2.5147E+03

           1    7.20028E+00     5.1824E-01 -1.1350E-02 -3.0815E+00  3.1248E+00
ac ID =   33377                -3.6805E-01  2.9501E+01  1.8254E-02  2.9503E+01
                               -3.8457E-01  1.4650E+01 -4.7742E+01  2.5147E+03

           1    7.30027E+00     5.5834E-01  2.7502E-02 -3.1768E+00  3.2256E+00
ac ID =   33377                -1.1146E+00  3.1108E+01  1.7556E-01  3.1129E+01
                               -3.8475E-01  1.4802E+01 -4.7729E+01  2.5147E+03

           1    7.40026E+00     5.3025E-01  8.3820E-03 -3.2146E+00  3.2581E+00
ac ID =   33377                 3.6687E-01  3.1802E+01 -1.6647E-01  3.1805E+01
                               -3.8484E-01  1.4955E+01 -4.7712E+01  2.5147E+03

           1    7.50025E+00     5.2346E-01 -3.5865E-02 -3.2064E+00  3.2490E+00
ac ID =   33377                 4.0034E-01  3.2307E+01 -7.7668E-02  3.2309E+01
                               -3.8468E-01  1.5110E+01 -4.7693E+01  2.5147E+03

           1    7.60024E+00     5.6470E-01  5.4040E-02 -3.2414E+00  3.2907E+00
ac ID =   33377                -1.7692E+00  3.3742E+01 -1.6759E-01  3.3789E+01
                               -3.8462E-01  1.5265E+01 -4.7670E+01  2.5147E+03

           1    7.70023E+00     5.4158E-01  1.2984E-03 -3.3159E+00  3.3599E+00
ac ID =   33377                -4.5946E-01  3.3803E+01 -4.9858E-01  3.3810E+01
                               -3.8442E-01  1.5421E+01 -4.7643E+01  2.5147E+03

           1    7.80022E+00     5.5317E-01  5.7457E-03 -3.4037E+00  3.4484E+00
ac ID =   33377                -1.2627E+00  3.4617E+01 -6.7481E-02  3.4640E+01
                               -3.8396E-01  1.5579E+01 -4.7613E+01  2.5147E+03

           1    7.90021E+00     5.6302E-01  3.7704E-02 -3.3645E+00  3.4115E+00
ac ID =   33377                -1.6423E+00  3.5841E+01 -2.8052E-01  3.5880E+01
                               -3.8365E-01  1.5737E+01 -4.7580E+01  2.5147E+03

           1    8.00020E+00     5.7458E-01  1.4997E-02 -3.4183E+00  3.4663E+00
ac ID =   33377                -1.2971E+00  3.6741E+01 -8.8288E-03  3.6764E+01
                               -3.8325E-01  1.5896E+01 -4.7543E+01  2.5147E+03

           1    8.10019E+00     5.8763E-01 -2.1426E-03 -3.5260E+00  3.5746E+00
ac ID =   33377                -6.0503E-01  3.8190E+01 -3.0635E-01  3.8196E+01
                               -3.8281E-01  1.6056E+01 -4.7502E+01  2.5147E+03

           1    8.20018E+00     5.9074E-01  3.8665E-03 -3.5622E+00  3.6109E+00
ac ID =   33377                -7.4501E-01  3.8745E+01  3.0270E-03  3.8752E+01
                               -3.8237E-01  1.6216E+01 -4.7457E+01  2.5147E+03

           1    8.30017E+00     6.1884E-01  6.6981E-03 -3.5726E+00  3.6258E+00
ac ID =   33377                -2.2672E-01  4.0002E+01 -1.7493E-01  4.0003E+01
                               -3.8199E-01  1.6377E+01 -4.7409E+01  2.5147E+03

           1    8.40016E+00     6.0232E-01 -1.8577E-02 -3.5503E+00  3.6011E+00
ac ID =   33377                 4.3029E-01  3.9985E+01 -4.5541E-01  3.9990E+01
                               -3.8159E-01  1.6539E+01 -4.7357E+01  2.5147E+03

           1    8.50015E+00     6.2584E-01  2.0105E-02 -3.5969E+00  3.6510E+00
ac ID =   33377                -7.6332E-01  4.1624E+01 -1.2357E-01  4.1631E+01
                               -3.8111E-01  1.6701E+01 -4.7301E+01  2.5147E+03

           1    8.60014E+00     5.9887E-01 -1.0893E-02 -3.6582E+00  3.7069E+00
ac ID =   33377                -6.8302E-01  4.1249E+01 -5.7067E-02  4.1254E+01
                               -3.8060E-01  1.6864E+01 -4.7241E+01  2.5147E+03

           1    8.70013E+00     6.1891E-01  1.9047E-02 -3.6839E+00  3.7356E+00
ac ID =   33377                -1.1059E+00  4.2696E+01  7.7702E-02  4.2711E+01
                               -3.8023E-01  1.7028E+01 -4.7177E+01  2.5147E+03

           1    8.80012E+00     6.2125E-01  2.1582E-02 -3.6522E+00  3.7047E+00
ac ID =   33377                -1.5354E+00  4.2844E+01  8.0426E-02  4.2872E+01
                               -3.7968E-01  1.7192E+01 -4.7109E+01  2.5147E+03

           1    8.90011E+00     6.3606E-01  3.9281E-03 -3.6705E+00  3.7252E+00
ac ID =   33377                -9.4731E-01  4.3826E+01 -1.3241E-01  4.3837E+01
                               -3.7916E-01  1.7357E+01 -4.7038E+01  2.5147E+03

           1    9.00010E+00     6.4154E-01 -1.3721E-02 -3.7219E+00  3.7768E+00
ac ID =   33377                -8.5979E-02  4.4977E+01 -4.3949E-01  4.4979E+01
                               -3.7867E-01  1.7522E+01 -4.6962E+01  2.5147E+03

           1    9.10009E+00     6.5365E-01  2.7411E-02 -3.7092E+00  3.7664E+00
ac ID =   33377                -8.2116E-01  4.5273E+01  9.9690E-02  4.5280E+01
                               -3.7819E-01  1.7688E+01 -4.6883E+01  2.5147E+03

           1    9.20008E+00     6.5248E-01 -9.1224E-03 -3.6613E+00  3.7190E+00
ac ID =   33377                 3.7208E-01  4.5881E+01 -1.8627E-01  4.5882E+01
                               -3.7752E-01  1.7854E+01 -4.6799E+01  2.5147E+03

           1    9.30007E+00     6.3283E-01 -1.3812E-02 -3.6277E+00  3.6825E+00
ac ID =   33377                 5.6297E-01  4.5545E+01 -4.3555E-01  4.5551E+01
                               -3.7676E-01  1.8021E+01 -4.6712E+01  2.5147E+03

           1    9.40006E+00     6.4464E-01  1.4826E-02 -3.6678E+00  3.7240E+00
ac ID =   33377                -4.3308E-01  4.6353E+01 -3.2591E-01  4.6356E+01
                               -3.7591E-01  1.8189E+01 -4.6621E+01  2.5147E+03

           1    9.50005E+00     6.1711E-01  1.0724E-02 -3.6039E+00  3.6563E+00
ac ID =   33377                -5.7894E-01  4.6148E+01  2.8879E-02  4.6152E+01
                               -3.7499E-01  1.8357E+01 -4.6526E+01  2.5147E+03

           1    9.60004E+00     6.2343E-01 -1.5520E-02 -3.5458E+00  3.6002E+00
ac ID =   33377                 1.3420E-01  4.7117E+01 -3.7973E-02  4.7118E+01
                               -3.7395E-01  1.8525E+01 -4.6427E+01  2.5147E+03

           1    9.70003E+00     6.3326E-01  1.3771E-02 -3.4838E+00  3.5409E+00
ac ID =   33377                -1.3943E+00  4.7164E+01  2.2926E-01  4.7185E+01
                               -3.7299E-01  1.8694E+01 -4.6325E+01  2.5147E+03

           1    9.80002E+00     6.3818E-01  3.5067E-02 -3.4724E+00  3.5307E+00
ac ID =   33377                -1.0548E+00  4.7655E+01 -2.7078E-01  4.7668E+01
                               -3.7219E-01  1.8862E+01 -4.6218E+01  2.5147E+03

           1    9.90001E+00     6.0783E-01 -3.0097E-02 -3.4808E+00  3.5336E+00
ac ID =   33377                 1.9474E-01  4.8238E+01 -4.5916E-02  4.8238E+01
                               -3.7105E-01  1.9031E+01 -4.6108E+01  2.5147E+03

           1    1.00005E+01     6.1372E-01  7.9279E-03 -3.4044E+00  3.4592E+00
ac ID =   33377                -2.9987E-01  4.7837E+01 -1.9735E-01  4.7838E+01
                               -3.7005E-01  1.9200E+01 -4.5993E+01  2.5147E+03

           1    1.01005E+01     6.5279E-01  2.9209E-02 -3.3454E+00  3.4086E+00
ac ID =   33377                -5.8679E-01  4.9876E+01 -3.3588E-01  4.9881E+01
                               -3.6908E-01  1.9369E+01 -4.5875E+01  2.5147E+03

           1    1.02005E+01     6.3762E-01 -3.8129E-02 -3.3472E+00  3.4076E+00
ac ID =   33377                 6.7828E-01  4.9627E+01 -5.0743E-01  4.9634E+01
                               -3.6793E-01  1.9538E+01 -4.5754E+01  2.5147E+03

           1    1.03005E+01     5.8954E-01  1.1861E-02 -3.3084E+00  3.3606E+00
ac ID =   33377                -4.5237E-01  4.9579E+01 -3.2659E-01  4.9582E+01
                               -3.6676E-01  1.9706E+01 -4.5629E+01  2.5147E+03

           1    1.04005E+01     6.4472E-01  1.6885E-02 -3.2308E+00  3.2945E+00
ac ID =   33377                -9.4269E-01  5.0523E+01  3.0384E-01  5.0533E+01
                               -3.6568E-01  1.9875E+01 -4.5500E+01  2.5147E+03

           1    1.05004E+01     6.3422E-01  4.2034E-03 -3.1240E+00  3.1877E+00
ac ID =   33377                -2.5474E-01  5.0500E+01  5.5129E-01  5.0503E+01
                               -3.6458E-01  2.0044E+01 -4.5369E+01  2.5147E+03

           1    1.06004E+01     6.2703E-01 -1.6882E-02 -3.0664E+00  3.1299E+00
ac ID =   33377                -2.0909E-01  5.0466E+01 -1.9453E-01  5.0467E+01
                               -3.6336E-01  2.0213E+01 -4.5234E+01  2.5147E+03

           1    1.07004E+01     6.3101E-01  2.1649E-02 -3.0431E+00  3.1080E+00
ac ID =   33377                -9.1490E-01  5.0669E+01 -4.5092E-01  5.0679E+01
                               -3.6230E-01  2.0382E+01 -4.5096E+01  2.5147E+03

           1    1.08004E+01     6.7166E-01  6.9258E-03 -3.0024E+00  3.0766E+00
ac ID =   33377                -2.4729E-01  5.1684E+01 -4.7988E-01  5.1687E+01
                               -3.6123E-01  2.0552E+01 -4.4955E+01  2.5147E+03

           1    1.09004E+01     6.0703E-01 -1.3306E-02 -2.8726E+00  2.9361E+00
ac ID =   33377                -3.2805E-02  5.0657E+01 -1.2101E-01  5.0657E+01
                               -3.6007E-01  2.0722E+01 -4.4811E+01  2.5147E+03

           1    1.10004E+01     5.9712E-01 -6.0859E-03 -2.7978E+00  2.8608E+00
ac ID =   33377                -1.5974E-01  5.0487E+01 -1.1642E-01  5.0487E+01
                               -3.5892E-01  2.0892E+01 -4.4665E+01  2.5147E+03

           1    1.11004E+01     6.6146E-01  5.8063E-03 -2.7516E+00  2.8300E+00
ac ID =   33377                -5.5376E-01  5.1800E+01 -2.9748E-01  5.1804E+01
                               -3.5784E-01  2.1062E+01 -4.4516E+01  2.5147E+03

           1    1.12004E+01     6.0064E-01 -1.1795E-02 -2.6792E+00  2.7457E+00
ac ID =   33377                 3.9561E-01  5.1020E+01 -3.1360E-02  5.1022E+01
                               -3.5679E-01  2.1232E+01 -4.4364E+01  2.5147E+03

           1    1.13004E+01     5.9008E-01  6.0915E-03 -2.5509E+00  2.6183E+00
ac ID =   33377                -8.4609E-01  5.0821E+01  1.1010E-01  5.0828E+01
                               -3.5560E-01  2.1403E+01 -4.4211E+01  2.5147E+03

           1    1.14004E+01     6.1521E-01  1.5973E-02 -2.4485E+00  2.5247E+00
ac ID =   33377                -6.7576E-01  5.0848E+01 -1.3978E-01  5.0852E+01
                               -3.5448E-01  2.1573E+01 -4.4055E+01  2.5147E+03

           1    1.15003E+01     5.9985E-01  9.2561E-03 -2.3678E+00  2.4427E+00
ac ID =   33377                -8.0951E-01  5.0596E+01 -2.0587E-01  5.0603E+01
                               -3.5337E-01  2.1743E+01 -4.3897E+01  2.5147E+03

           1    1.16003E+01     5.5178E-01 -2.4285E-03 -2.3186E+00  2.3834E+00
ac ID =   33377                -2.5188E-01  4.9852E+01  7.4738E-02  4.9853E+01
                               -3.5210E-01  2.1914E+01 -4.3737E+01  2.5147E+03

           1    1.17003E+01     6.1586E-01  2.3743E-02 -2.2464E+00  2.3294E+00
ac ID =   33377                -1.1620E+00  5.0923E+01  1.7215E-01  5.0936E+01
                               -3.5082E-01  2.2084E+01 -4.3576E+01  2.5147E+03

           1    1.18003E+01     5.6225E-01  2.5065E-03 -2.1062E+00  2.1800E+00
ac ID =   33377                 4.6263E-02  5.0128E+01  2.9719E-01  5.0128E+01
                               -3.4967E-01  2.2254E+01 -4.3412E+01  2.5147E+03

           1    1.19003E+01     5.4674E-01 -7.9117E-03 -2.0408E+00  2.1128E+00
ac ID =   33377                -2.6529E-01  4.9828E+01 -3.5530E-01  4.9830E+01
                               -3.4834E-01  2.2425E+01 -4.3248E+01  2.5147E+03

           1    1.20003E+01     5.5495E-01  1.6204E-02 -1.9424E+00  2.0202E+00
ac ID =   33377                -1.3769E+00  4.9779E+01 -2.8590E-01  4.9798E+01
                               -3.4687E-01  2.2595E+01 -4.3082E+01  2.5147E+03

           1    1.21003E+01     5.7280E-01 -1.7867E-02 -1.8645E+00  1.9506E+00
ac ID =   33377                 1.1177E-01  4.8923E+01  2.1201E-01  4.8924E+01
                               -3.4551E-01  2.2765E+01 -4.2914E+01  2.5147E+03

           1    1.22003E+01     5.2618E-01  2.0713E-02 -1.7334E+00  1.8116E+00
ac ID =   33377                -9.5399E-01  4.7894E+01  4.5156E-01  4.7905E+01
                               -3.4414E-01  2.2936E+01 -4.2746E+01  2.5147E+03

           1    1.23003E+01     5.5470E-01  1.9916E-02 -1.6146E+00  1.7074E+00
ac ID =   33377                -1.3540E+00  4.7522E+01  3.3746E-01  4.7542E+01
                               -3.4263E-01  2.3106E+01 -4.2576E+01  2.5147E+03

           1    1.24003E+01     5.2487E-01 -1.8860E-02 -1.5516E+00  1.6381E+00
ac ID =   33377                -8.1491E-01  4.6944E+01 -5.8909E-01  4.6954E+01
                               -3.4121E-01  2.3277E+01 -4.2407E+01  2.5147E+03

           1    1.25002E+01     5.0828E-01  1.5885E-02 -1.4884E+00  1.5729E+00
ac ID =   33377                -9.4621E-01  4.5255E+01 -2.9009E-01  4.5266E+01
                               -3.3988E-01  2.3447E+01 -4.2236E+01  2.5147E+03

           1    1.26002E+01     5.2053E-01  9.1330E-03 -1.3996E+00  1.4933E+00
ac ID =   33377                -7.7297E-01  4.5209E+01  2.0678E-01  4.5216E+01
                               -3.3857E-01  2.3618E+01 -4.2065E+01  2.5147E+03

           1    1.27002E+01     5.0314E-01  1.2178E-02 -1.3105E+00  1.4038E+00
ac ID =   33377                -7.5337E-01  4.3958E+01  7.1195E-01  4.3971E+01
                               -3.3724E-01  2.3789E+01 -4.1894E+01  2.5147E+03

           1    1.28002E+01     4.6409E-01 -5.0289E-03 -1.1910E+00  1.2782E+00
ac ID =   33377                -4.2304E-01  4.3073E+01  3.1536E-01  4.3076E+01
                               -3.3588E-01  2.3960E+01 -4.1722E+01  2.5147E+03

           1    1.29002E+01     4.8054E-01  2.3559E-02 -1.1247E+00  1.2233E+00
ac ID =   33377                -1.0816E+00  4.3428E+01 -3.3280E-01  4.3442E+01
                               -3.3454E-01  2.4131E+01 -4.1551E+01  2.5147E+03

           1    1.30002E+01     4.8680E-01  9.4100E-04 -1.0320E+00  1.1410E+00
ac ID =   33377                -7.0950E-01  4.3554E+01 -1.7807E-01  4.3560E+01
                               -3.3315E-01  2.4302E+01 -4.1380E+01  2.5147E+03

           1    1.31002E+01     4.5998E-01  3.3586E-03 -9.1323E-01  1.0225E+00
ac ID =   33377                -6.8078E-01  4.2919E+01 -1.8460E-01  4.2924E+01
                               -3.3181E-01  2.4474E+01 -4.1209E+01  2.5147E+03

           1    1.32002E+01     4.5702E-01  1.8232E-02 -8.5212E-01  9.6712E-01
ac ID =   33377                -1.7437E+00  4.2884E+01 -3.3432E-01  4.2921E+01
                               -3.3060E-01  2.4646E+01 -4.1039E+01  2.5147E+03

           1    1.33002E+01     4.6777E-01  9.7189E-03 -7.7383E-01  9.0428E-01
ac ID =   33377                -1.0611E+00  4.2718E+01 -2.5998E-01  4.2732E+01
                               -3.2948E-01  2.4818E+01 -4.0869E+01  2.5147E+03

           1    1.34002E+01     4.1891E-01 -3.2515E-02 -6.9644E-01  8.1337E-01
ac ID =   33377                -1.0712E-01  4.0976E+01  3.9409E-01  4.0978E+01
                               -3.2836E-01  2.4991E+01 -4.0700E+01  2.5147E+03

           1    1.35001E+01     4.7001E-01  1.4681E-02 -6.6525E-01  8.1467E-01
ac ID =   33377                -8.5796E-01  4.2120E+01  4.1762E-02  4.2129E+01
                               -3.2753E-01  2.5164E+01 -4.0533E+01  2.5147E+03

           1    1.36001E+01     4.5323E-01 -2.3113E-04 -5.0900E-01  6.8154E-01
ac ID =   33377                -4.3571E-01  4.1471E+01 -7.6512E-04  4.1473E+01
                               -3.2674E-01  2.5338E+01 -4.0366E+01  2.5147E+03

           1    1.37001E+01     4.3940E-01 -1.8258E-02 -4.5726E-01  6.3442E-01
ac ID =   33377                 1.2077E-01  4.0882E+01  2.8218E-02  4.0882E+01
                               -3.2600E-01  2.5512E+01 -4.0201E+01  2.5147E+03

           1    1.38001E+01     4.4886E-01 -8.7230E-03 -3.8310E-01  5.9019E-01
ac ID =   33377                -4.6820E-01  4.0480E+01 -1.2278E-01  4.0483E+01
                               -3.2531E-01  2.5686E+01 -4.0037E+01  2.5147E+03

           1    1.39001E+01     4.5029E-01  2.5220E-02 -2.9841E-01  5.4078E-01
ac ID =   33377                -9.9519E-01  3.9706E+01 -3.2673E-01  3.9719E+01
                               -3.2476E-01  2.5861E+01 -3.9874E+01  2.5147E+03

           1    1.40001E+01     3.8103E-01 -3.4329E-04 -2.4506E-01  4.5303E-01
ac ID =   33377                -5.9247E-01  3.7519E+01 -2.9927E-01  3.7525E+01
                               -3.2422E-01  2.6036E+01 -3.9714E+01  2.5147E+03

           1    1.41001E+01     4.0483E-01 -1.1800E-02 -1.1953E-01  4.2227E-01
ac ID =   33377                -3.2851E-01  3.7333E+01 -8.4258E-01  3.7344E+01
                               -3.2371E-01  2.6212E+01 -3.9555E+01  2.5147E+03

           1    1.42001E+01     4.2661E-01  2.8710E-02 -7.6223E-02  4.3432E-01
ac ID =   33377                -1.6603E+00  3.8096E+01 -2.9975E-01  3.8134E+01
                               -3.2327E-01  2.6388E+01 -3.9398E+01  2.5147E+03

           1    1.43001E+01     4.0109E-01 -9.0772E-03 -4.2062E-02  4.0339E-01
ac ID =   33377                -1.2212E-01  3.7925E+01  1.6759E-01  3.7925E+01
                               -3.2295E-01  2.6564E+01 -3.9243E+01  2.5147E+03

           1    1.44001E+01     4.0292E-01 -5.3145E-03  2.3753E-02  4.0365E-01
ac ID =   33377                -2.5749E-01  3.8054E+01 -1.2622E-01  3.8055E+01
                               -3.2257E-01  2.6741E+01 -3.9090E+01  2.5147E+03

           1    1.45000E+01     4.2137E-01  1.0765E-03  9.4639E-02  4.3187E-01
ac ID =   33377                -3.1418E-01  3.8039E+01 -3.4128E-01  3.8042E+01
                               -3.2222E-01  2.6919E+01 -3.8940E+01  2.5147E+03

           1    1.46000E+01     3.8823E-01 -7.6710E-03  1.2043E-01  4.0655E-01
ac ID =   33377                -4.8578E-01  3.7040E+01 -7.7966E-02  3.7043E+01
                               -3.2192E-01  2.7097E+01 -3.8792E+01  2.5147E+03

           1    1.47000E+01     3.3963E-01 -1.4888E-03  1.7310E-01  3.8120E-01
ac ID =   33377                -1.8491E-01  3.6425E+01  1.5669E-01  3.6425E+01
                               -3.2169E-01  2.7275E+01 -3.8647E+01  2.5147E+03

           1    1.48005E+01     4.1621E-01 -2.9282E-04  2.3756E-01  4.7923E-01
ac ID =   33377                -8.1929E-01  3.7346E+01  2.9117E-01  3.7356E+01
                               -3.2139E-01  2.7455E+01 -3.8503E+01  2.5147E+03

           1    1.49005E+01     3.5547E-01  5.0894E-03  3.0358E-01  4.6749E-01
ac ID =   33377                -7.5132E-01  3.6523E+01 -7.6088E-02  3.6531E+01
                               -3.2120E-01  2.7635E+01 -3.8363E+01  2.5147E+03

           1    1.50005E+01     3.3910E-01 -1.1172E-02  3.1287E-01  4.6152E-01
ac ID =   33377                -7.9170E-01  3.5405E+01 -7.6061E-01  3.5422E+01
                               -3.2112E-01  2.7815E+01 -3.8226E+01  2.5147E+03

           1    1.51005E+01     3.6229E-01  1.5215E-02  3.7584E-01  5.2224E-01
ac ID =   33377                -9.4678E-01  3.6114E+01 -4.4179E-02  3.6126E+01
                               -3.2109E-01  2.7996E+01 -3.8091E+01  2.5147E+03

           1    1.52005E+01     3.7762E-01 -1.1852E-02  4.5518E-01  5.9155E-01
ac ID =   33377                -3.7384E-01  3.6221E+01  2.1549E-01  3.6223E+01
                               -3.2113E-01  2.8177E+01 -3.7959E+01  2.5147E+03

           1    1.53005E+01     3.6159E-01  7.8549E-03  5.1897E-01  6.3257E-01
ac ID =   33377                -3.7744E-01  3.5968E+01 -1.0979E-01  3.5970E+01
                               -3.2133E-01  2.8358E+01 -3.7831E+01  2.5147E+03

           1    1.54005E+01     3.5618E-01 -5.6207E-03  5.0357E-01  6.1683E-01
ac ID =   33377                -3.9031E-01  3.5006E+01 -3.3999E-01  3.5009E+01
                               -3.2161E-01  2.8540E+01 -3.7704E+01  2.5147E+03

           1    1.55004E+01     3.6698E-01  7.6511E-03  4.6669E-01  5.9375E-01
ac ID =   33377                -6.1539E-01  3.3864E+01 -5.0112E-01  3.3873E+01
                               -3.2188E-01  2.8722E+01 -3.7581E+01  2.5147E+03

           1    1.56004E+01     2.9303E-01 -2.4681E-02  5.4961E-01  6.2334E-01
ac ID =   33377                -2.4617E-01  3.2387E+01 -7.5018E-01  3.2397E+01
                               -3.2224E-01  2.8905E+01 -3.7461E+01  2.5147E+03

           1    1.57004E+01     3.5955E-01  2.2774E-02  6.4751E-01  7.4099E-01
ac ID =   33377                -1.1723E+00  3.2756E+01 -1.2720E-01  3.2777E+01
                               -3.2281E-01  2.9087E+01 -3.7344E+01  2.5147E+03

           1    1.58004E+01     3.4099E-01 -1.2581E-03  6.3802E-01  7.2342E-01
ac ID =   33377                -9.7708E-01  3.3175E+01  4.6602E-02  3.3189E+01
                               -3.2332E-01  2.9270E+01 -3.7230E+01  2.5147E+03

           1    1.59004E+01     3.7790E-01 -4.2457E-03  5.8162E-01  6.9362E-01
ac ID =   33377                -8.1172E-01  3.4337E+01 -1.7355E-01  3.4347E+01
                               -3.2389E-01  2.9452E+01 -3.7119E+01  2.5147E+03

           1    1.60004E+01     3.3292E-01  3.8595E-03  6.5403E-01  7.3389E-01
ac ID =   33377                -1.1077E+00  3.3568E+01  4.8233E-02  3.3587E+01
                               -3.2462E-01  2.9635E+01 -3.7011E+01  2.5147E+03

           1    1.61004E+01     3.6380E-01  1.5495E-02  7.0086E-01  7.8981E-01
ac ID =   33377                -7.4017E-01  3.3065E+01 -1.1685E-01  3.3073E+01
                               -3.2542E-01  2.9818E+01 -3.6906E+01  2.5147E+03

           1    1.62004E+01     3.0462E-01 -1.9455E-02  7.5391E-01  8.1336E-01
ac ID =   33377                -3.2964E-01  3.1173E+01  3.4239E-02  3.1175E+01
                               -3.2614E-01  3.0001E+01 -3.6805E+01  2.5147E+03

           1    1.63004E+01     3.1673E-01 -8.8890E-03  6.8913E-01  7.5848E-01
ac ID =   33377                -2.7923E-02  3.0142E+01 -2.6672E-01  3.0144E+01
                               -3.2709E-01  3.0184E+01 -3.6705E+01  2.5147E+03

           1    1.64004E+01     2.9931E-01  1.9109E-02  6.7961E-01  7.4285E-01
ac ID =   33377                -1.1031E+00  2.9884E+01 -1.0868E-01  2.9905E+01
                               -3.2796E-01  3.0367E+01 -3.6610E+01  2.5147E+03

           1    1.65003E+01     3.0171E-01 -1.0223E-02  7.3886E-01  7.9815E-01
ac ID =   33377                -4.0283E-01  2.8983E+01 -2.1739E-01  2.8987E+01
                               -3.2888E-01  3.0550E+01 -3.6517E+01  2.5147E+03

           1    1.66003E+01     2.9583E-01 -1.6066E-02  8.0207E-01  8.5504E-01
ac ID =   33377                -2.7312E-01  2.9117E+01 -2.4007E-01  2.9119E+01
                               -3.2988E-01  3.0733E+01 -3.6427E+01  2.5147E+03

           1    1.67003E+01     3.0526E-01  1.6959E-02  7.3848E-01  7.9927E-01
ac ID =   33377                -1.4162E+00  2.7779E+01 -1.5158E-01  2.7816E+01
                               -3.3100E-01  3.0915E+01 -3.6340E+01  2.5147E+03

           1    1.68003E+01     2.8995E-01  3.4428E-02  7.3139E-01  7.8752E-01
ac ID =   33377                -1.4855E+00  2.7171E+01  1.1590E-01  2.7212E+01
                               -3.3215E-01  3.1098E+01 -3.6256E+01  2.5147E+03

           1    1.69003E+01     2.9673E-01 -3.6098E-02  7.9091E-01  8.4552E-01
ac ID =   33377                 1.4397E-01  2.6171E+01 -2.1257E-01  2.6173E+01
                               -3.3325E-01  3.1280E+01 -3.6175E+01  2.5147E+03

           1    1.70003E+01     2.7889E-01  2.8382E-02  8.0967E-01  8.5683E-01
ac ID =   33377                -1.2615E+00  2.5394E+01 -2.0566E-01  2.5426E+01
                               -3.3448E-01  3.1463E+01 -3.6096E+01  2.5147E+03

           1    1.71003E+01     2.6060E-01  1.0685E-02  7.7782E-01  8.2038E-01
ac ID =   33377                -1.0231E+00  2.4366E+01 -1.1497E-01  2.4388E+01
                               -3.3572E-01  3.1645E+01 -3.6021E+01  2.5147E+03

           1    1.72003E+01     2.4787E-01 -4.7072E-03  7.2148E-01  7.6289E-01
ac ID =   33377                -3.7828E-01  2.3442E+01 -1.4178E-01  2.3445E+01
                               -3.3694E-01  3.1826E+01 -3.5948E+01  2.5147E+03

           1    1.73003E+01     2.5640E-01 -1.0460E-03  7.2349E-01  7.6758E-01
ac ID =   33377                -5.0177E-01  2.3050E+01 -7.6020E-02  2.3055E+01
                               -3.3815E-01  3.2008E+01 -3.5878E+01  2.5147E+03

           1    1.74003E+01     2.5096E-01  1.0736E-02  7.5301E-01  7.9380E-01
ac ID =   33377                -1.0289E+00  2.2557E+01 -2.0331E-01  2.2581E+01
                               -3.3944E-01  3.2189E+01 -3.5810E+01  2.5147E+03

           1    1.75002E+01     2.4893E-01  1.5506E-02  7.3547E-01  7.7661E-01
ac ID =   33377                -9.5219E-01  2.2114E+01 -3.1186E-01  2.2136E+01
                               -3.4082E-01  3.2370E+01 -3.5745E+01  2.5147E+03

           1    1.76002E+01     2.6075E-01 -1.8679E-02  6.6760E-01  7.1695E-01
ac ID =   33377                -5.2687E-01  2.2047E+01 -3.5851E-01  2.2056E+01
                               -3.4217E-01  3.2550E+01 -3.5682E+01  2.5147E+03

           1    1.77002E+01     2.5158E-01  2.7224E-02  6.6486E-01  7.1138E-01
ac ID =   33377                -1.4469E+00  2.1091E+01  2.1350E-02  2.1141E+01
                               -3.4361E-01  3.2730E+01 -3.5622E+01  2.5147E+03

           1    1.78002E+01     2.2542E-01  2.1666E-02  6.9561E-01  7.3154E-01
ac ID =   33377                -1.0580E+00  1.9558E+01 -3.3597E-02  1.9587E+01
                               -3.4508E-01  3.2909E+01 -3.5564E+01  2.5147E+03

           1    1.79002E+01     2.2407E-01 -1.0396E-02  6.9484E-01  7.3015E-01
ac ID =   33377                -3.9549E-01  1.8599E+01 -3.6885E-01  1.8607E+01
                               -3.4649E-01  3.3088E+01 -3.5509E+01  2.5147E+03

           1    1.80002E+01     2.1168E-01  3.0489E-03  6.3823E-01  6.7242E-01
ac ID =   33377                -8.2607E-01  1.7547E+01 -1.5175E-01  1.7567E+01
                               -3.4796E-01  3.3266E+01 -3.5455E+01  2.5147E+03

           1    1.81002E+01     2.0291E-01  1.7969E-02  6.0480E-01  6.3819E-01
ac ID =   33377                -1.1304E+00  1.7155E+01 -1.8401E-01  1.7194E+01
                               -3.4946E-01  3.3444E+01 -3.5404E+01  2.5147E+03

           1    1.82002E+01     2.2037E-01 -5.2062E-03  6.2371E-01  6.6152E-01
ac ID =   33377                -4.8569E-01  1.7720E+01 -3.2357E-01  1.7730E+01
                               -3.5100E-01  3.3621E+01 -3.5354E+01  2.5147E+03

           1    1.83002E+01     2.4228E-01  1.0192E-03  6.1217E-01  6.5837E-01
ac ID =   33377                -4.2654E-01  1.7845E+01 -2.0737E-02  1.7850E+01
                               -3.5255E-01  3.3798E+01 -3.5307E+01  2.5147E+03

           1    1.84002E+01     2.0666E-01  1.9993E-02  5.5375E-01  5.9140E-01
ac ID =   33377                -1.1402E+00  1.6850E+01  1.6443E-01  1.6889E+01
                               -3.5409E-01  3.3974E+01 -3.5261E+01  2.5147E+03

           1    1.85001E+01     2.3044E-01  9.6478E-03  5.0231E-01  5.5273E-01
ac ID =   33377                -8.6557E-01  1.6079E+01 -3.2776E-01  1.6106E+01
                               -3.5571E-01  3.4149E+01 -3.5217E+01  2.5147E+03

           1    1.86001E+01     2.0129E-01  5.7828E-03  5.0865E-01  5.4706E-01
ac ID =   33377                -8.1413E-01  1.4879E+01 -3.2624E-01  1.4904E+01
                               -3.5728E-01  3.4324E+01 -3.5175E+01  2.5147E+03

           1    1.87001E+01     2.0950E-01 -7.5537E-03  5.1397E-01  5.5508E-01
ac ID =   33377                -4.7685E-01  1.4167E+01 -4.7064E-03  1.4175E+01
                               -3.5882E-01  3.4498E+01 -3.5135E+01  2.5147E+03

           1    1.88001E+01     2.1291E-01  1.4692E-02  4.7888E-01  5.2428E-01
ac ID =   33377                -8.8696E-01  1.4126E+01 -7.8296E-02  1.4154E+01
                               -3.6051E-01  3.4671E+01 -3.5096E+01  2.5147E+03

           1    1.89001E+01     2.1415E-01 -5.2743E-03  4.0978E-01  4.6240E-01
ac ID =   33377                -9.8969E-02  1.3840E+01 -2.1135E-01  1.3842E+01
                               -3.6226E-01  3.4844E+01 -3.5059E+01  2.5147E+03

           1    1.90001E+01     2.1859E-01 -1.6039E-03  4.0645E-01  4.6151E-01
ac ID =   33377                -5.4191E-01  1.3686E+01 -1.4237E-01  1.3698E+01
                               -3.6401E-01  3.5016E+01 -3.5023E+01  2.5147E+03

           1    1.91001E+01     2.1766E-01 -1.3691E-02  4.1123E-01  4.6549E-01
ac ID =   33377                 2.3493E-01  1.3276E+01 -3.4078E-01  1.3282E+01
                               -3.6586E-01  3.5187E+01 -3.4988E+01  2.5147E+03

           1    1.92001E+01     2.2903E-01  1.0721E-02  3.6106E-01  4.2771E-01
ac ID =   33377                -6.6993E-01  1.2733E+01 -2.4989E-01  1.2753E+01
                               -3.6774E-01  3.5357E+01 -3.4955E+01  2.5147E+03

           1    1.93001E+01     2.1696E-01 -3.5462E-03  3.0542E-01  3.7466E-01
ac ID =   33377                -2.4729E-01  1.1974E+01 -1.1266E-01  1.1977E+01
                               -3.6965E-01  3.5526E+01 -3.4922E+01  2.5147E+03

           1    1.94001E+01     2.1652E-01 -4.1143E-03  2.5390E-01  3.3371E-01
ac ID =   33377                -7.4455E-01  1.1306E+01 -1.6294E-03  1.1331E+01
                               -3.7151E-01  3.5694E+01 -3.4891E+01  2.5147E+03

           1    1.95000E+01     2.2229E-01  1.6454E-03  2.3859E-01  3.2610E-01
ac ID =   33377                -6.7060E-01  1.1013E+01 -3.2904E-01  1.1038E+01
                               -3.7348E-01  3.5862E+01 -3.4861E+01  2.5147E+03

           1    1.96000E+01     2.0041E-01  5.5993E-03  2.3492E-01  3.0884E-01
ac ID =   33377                -9.0403E-01  9.6353E+00 -2.6016E-01  9.6811E+00
                               -3.7550E-01  3.6028E+01 -3.4831E+01  2.5147E+03

           1    1.97005E+01     2.0762E-01  1.8824E-03  1.8701E-01  2.7943E-01
ac ID =   33377                -5.2257E-01  9.2211E+00 -4.0127E-02  9.2360E+00
                               -3.7755E-01  3.6195E+01 -3.4802E+01  2.5147E+03

           1    1.98005E+01     2.1189E-01 -1.0877E-02  1.4183E-01  2.5520E-01
ac ID =   33377                -3.4353E-01  8.7670E+00  5.3533E-02  8.7739E+00
                               -3.7961E-01  3.6360E+01 -3.4774E+01  2.5147E+03

           1    1.99005E+01     1.9985E-01  4.5945E-03  1.4598E-01  2.4753E-01
ac ID =   33377                -8.1556E-01  7.9707E+00 -1.8623E-01  8.0145E+00
                               -3.8177E-01  3.6524E+01 -3.4747E+01  2.5147E+03

           1    2.00005E+01     2.0399E-01 -9.8417E-03  1.2021E-01  2.3698E-01
ac ID =   33377                 2.0592E-03  7.6945E+00 -4.1333E-01  7.7056E+00
                               -3.8402E-01  3.6687E+01 -3.4720E+01  2.5147E+03

           1    2.01005E+01     1.9092E-01 -9.4802E-03  8.5163E-02  2.0927E-01
ac ID =   33377                -4.5332E-01  6.5111E+00 -3.8947E-01  6.5385E+00
                               -3.8624E-01  3.6849E+01 -3.4694E+01  2.5147E+03

           1    2.02005E+01     1.8986E-01  1.2431E-02  2.9780E-02  1.9258E-01
ac ID =   33377                -7.9470E-01  5.4348E+00 -5.1756E-01  5.5169E+00
                               -3.8863E-01  3.7010E+01 -3.4668E+01  2.5147E+03

           1    2.03005E+01     1.8176E-01  5.6634E-03  9.7475E-03  1.8211E-01
ac ID =   33377                -1.0966E+00  4.3518E+00 -2.3946E-01  4.4942E+00
                               -3.9103E-01  3.7170E+01 -3.4642E+01  2.5147E+03

           1    2.04005E+01     1.7665E-01 -1.1021E-03 -7.1478E-03  1.7680E-01
ac ID =   33377                -7.6829E-01  3.4822E+00 -6.0687E-02  3.5665E+00
                               -3.9352E-01  3.7330E+01 -3.4616E+01  2.5147E+03

           1    2.05004E+01     1.7630E-01  2.4343E-02 -3.8174E-02  1.8202E-01
ac ID =   33377                -1.4702E+00  3.4711E+00 -3.0488E-01  3.7819E+00
                               -3.9608E-01  3.7489E+01 -3.4591E+01  2.5147E+03

           1    2.06004E+01     1.7307E-01  2.7421E-02 -7.5877E-02  1.9095E-01
ac ID =   33377                -1.2159E+00  2.7437E+00 -2.5577E-01  3.0119E+00
                               -3.9869E-01  3.7646E+01 -3.4565E+01  2.5147E+03

           1    2.07004E+01     1.9514E-01 -1.3767E-03 -1.1137E-01  2.2469E-01
ac ID =   33377                -8.2548E-01  2.8285E+00  1.0999E-01  2.9486E+00
                               -4.0132E-01  3.7803E+01 -3.4540E+01  2.5147E+03

           1    2.08004E+01     1.8688E-01  6.8019E-03 -1.0087E-01  2.1247E-01
ac ID =   33377                -6.5316E-01  1.7026E+00  5.1035E-02  1.8243E+00
                               -4.0399E-01  3.7959E+01 -3.4514E+01  2.5147E+03

           1    2.09004E+01     1.6596E-01  1.4267E-02 -1.0672E-01  1.9783E-01
ac ID =   33377                -8.8419E-01  8.6415E-01 -2.3661E-01  1.2588E+00
                               -4.0667E-01  3.8115E+01 -3.4488E+01  2.5147E+03

           1    2.10004E+01     1.7496E-01 -5.1806E-03 -1.3204E-01  2.1926E-01
ac ID =   33377                 6.1011E-03  3.2426E-01 -3.4639E-01  4.7452E-01
                               -4.0944E-01  3.8269E+01 -3.4462E+01  2.5147E+03

           1    2.11004E+01     1.9126E-01  7.4567E-03 -1.6443E-01  2.5234E-01
ac ID =   33377                -3.6106E-01  3.9850E-01 -3.6376E-01  6.4922E-01
                               -4.1219E-01  3.8422E+01 -3.4435E+01  2.5147E+03

           1    2.12004E+01     1.8372E-01  1.0716E-02 -1.8064E-01  2.5788E-01
ac ID =   33377                -7.4020E-01  1.8526E-01 -2.3298E-01  7.9780E-01
                               -4.1493E-01  3.8575E+01 -3.4408E+01  2.5147E+03

           1    2.13004E+01     1.9839E-01 -6.8350E-03 -1.8882E-01  2.7397E-01
ac ID =   33377                -3.1722E-01 -1.8157E-01 -9.3409E-02  3.7726E-01
                               -4.1771E-01  3.8726E+01 -3.4381E+01  2.5147E+03

           1    2.14004E+01     1.9193E-01 -3.1400E-03 -1.9277E-01  2.7204E-01
ac ID =   33377                -1.0917E-01 -5.9187E-01  9.7921E-02  6.0977E-01
                               -4.2056E-01  3.8877E+01 -3.4353E+01  2.5147E+03

           1    2.15003E+01     2.0314E-01  1.6157E-02 -2.3328E-01  3.0975E-01
ac ID =   33377                -6.1383E-01 -1.0409E+00  1.8697E-01  1.2228E+00
                               -4.2334E-01  3.9027E+01 -3.4325E+01  2.5147E+03

           1    2.16003E+01     1.9236E-01  2.5227E-03 -2.5198E-01  3.1702E-01
ac ID =   33377                -9.6479E-02 -1.3569E+00  1.8581E-01  1.3730E+00
                               -4.2615E-01  3.9176E+01 -3.4296E+01  2.5147E+03

           1    2.17003E+01     2.1026E-01 -2.2707E-02 -2.3291E-01  3.1460E-01
ac ID =   33377                 6.4806E-01 -1.5786E+00  4.1452E-02  1.7069E+00
                               -4.2892E-01  3.9324E+01 -3.4266E+01  2.5147E+03

           1    2.18003E+01     2.0936E-01 -9.0082E-03 -2.3873E-01  3.1765E-01
ac ID =   33377                 2.8205E-01 -1.5746E+00 -1.0056E-01  1.6028E+00
                               -4.3172E-01  3.9471E+01 -3.4236E+01  2.5147E+03

           1    2.19003E+01     2.0180E-01  4.9199E-03 -2.5017E-01  3.2146E-01
ac ID =   33377                 3.3102E-01 -2.5171E+00 -4.7611E-02  2.5393E+00
                               -4.3453E-01  3.9617E+01 -3.4204E+01  2.5147E+03

           1    2.20003E+01     2.0201E-01 -1.5533E-02 -2.6234E-01  3.3147E-01
ac ID =   33377                 9.1491E-01 -3.2385E+00 -6.0944E-02  3.3658E+00
                               -4.3730E-01  3.9762E+01 -3.4173E+01  2.5147E+03

           1    2.21003E+01     2.1559E-01 -6.4572E-03 -3.0149E-01  3.7070E-01
ac ID =   33377                 8.8396E-01 -2.8778E+00 -1.1752E-01  3.0128E+00
                               -4.4004E-01  3.9907E+01 -3.4140E+01  2.5147E+03

           1    2.22003E+01     2.0635E-01  5.6702E-04 -2.7895E-01  3.4698E-01
ac ID =   33377                 3.7889E-01 -3.6019E+00 -1.1957E-01  3.6237E+00
                               -4.4276E-01  4.0050E+01 -3.4107E+01  2.5147E+03

           1    2.23003E+01     2.0603E-01  5.4827E-03 -2.9142E-01  3.5694E-01
ac ID =   33377                 3.9466E-01 -3.7534E+00  4.0582E-01  3.7958E+00
                               -4.4543E-01  4.0193E+01 -3.4072E+01  2.5147E+03

           1    2.24003E+01     2.2049E-01 -1.1717E-02 -3.1181E-01  3.8207E-01
ac ID =   33377                 7.8330E-01 -4.2564E+00  3.3138E-01  4.3405E+00
                               -4.4806E-01  4.0335E+01 -3.4037E+01  2.5147E+03

           1    2.25002E+01     2.1333E-01 -6.7917E-03 -3.2127E-01  3.8571E-01
ac ID =   33377                 8.3196E-01 -4.7937E+00  5.6090E-02  4.8657E+00
                               -4.5062E-01  4.0476E+01 -3.4001E+01  2.5147E+03

           1    2.26002E+01     2.1170E-01 -1.0604E-02 -3.1413E-01  3.7896E-01
ac ID =   33377                 8.0691E-01 -5.5064E+00 -1.2041E-01  5.5665E+00
                               -4.5312E-01  4.0616E+01 -3.3964E+01  2.5147E+03

           1    2.27002E+01     1.9939E-01 -3.3787E-02 -3.0118E-01  3.6278E-01
ac ID =   33377                 1.8161E+00 -5.7350E+00 -4.6530E-01  6.0336E+00
                               -4.5573E-01  4.0756E+01 -3.3926E+01  2.5147E+03

           1    2.28002E+01     2.1923E-01 -1.7952E-02 -2.9956E-01  3.7165E-01
ac ID =   33377                 1.7453E+00 -6.1770E+00 -1.2514E-01  6.4201E+00
                               -4.5832E-01  4.0894E+01 -3.3887E+01  2.5147E+03

           1    2.29002E+01     2.1147E-01 -4.4412E-03 -2.9117E-01  3.5989E-01
ac ID =   33377                 1.2955E+00 -6.4337E+00  1.9042E-01  6.5656E+00
                               -4.6083E-01  4.1032E+01 -3.3847E+01  2.5147E+03

           1    2.30002E+01     2.3302E-01 -3.4155E-02 -2.9871E-01  3.8038E-01
ac ID =   33377                 1.6439E+00 -6.7792E+00 -2.0183E-01  6.9786E+00
                               -4.6329E-01  4.1169E+01 -3.3805E+01  2.5147E+03

           1    2.31002E+01     2.0032E-01 -2.6413E-02 -2.8623E-01  3.5036E-01
ac ID =   33377                 1.5804E+00 -7.6396E+00 -3.0213E-01  7.8072E+00
                               -4.6578E-01  4.1306E+01 -3.3763E+01  2.5147E+03

           1    2.32002E+01     2.1583E-01 -3.8452E-03 -2.7937E-01  3.5305E-01
ac ID =   33377                 6.8427E-01 -8.1576E+00 -8.6781E-02  8.1867E+00
                               -4.6821E-01  4.1442E+01 -3.3720E+01  2.5147E+03

           1    2.33002E+01     2.1046E-01 -2.6432E-02 -2.7644E-01  3.4845E-01
ac ID =   33377                 1.2078E+00 -8.8816E+00 -1.9733E-01  8.9655E+00
                               -4.7067E-01  4.1577E+01 -3.3676E+01  2.5147E+03

           1    2.34002E+01     2.1322E-01 -1.7569E-02 -2.9937E-01  3.6796E-01
ac ID =   33377                 1.0671E+00 -9.2236E+00  1.3815E-02  9.2851E+00
                               -4.7313E-01  4.1711E+01 -3.3631E+01  2.5147E+03

           1    2.35001E+01     1.8728E-01 -2.0124E-02 -2.6683E-01  3.2662E-01
ac ID =   33377                 1.1397E+00 -1.0466E+01 -5.1666E-01  1.0540E+01
                               -4.7557E-01  4.1845E+01 -3.3585E+01  2.5147E+03

           1    2.36001E+01     1.8557E-01 -1.3880E-02 -2.2759E-01  2.9398E-01
ac ID =   33377                 1.1287E+00 -1.1385E+01 -3.0612E-01  1.1445E+01
                               -4.7800E-01  4.1979E+01 -3.3538E+01  2.5147E+03

           1    2.37001E+01     1.9930E-01 -1.0912E-02 -2.2875E-01  3.0358E-01
ac ID =   33377                 1.5107E+00 -1.1901E+01 -1.1105E-01  1.1997E+01
                               -4.8042E-01  4.2112E+01 -3.3489E+01  2.5147E+03

           1    2.38001E+01     1.7823E-01 -1.2213E-02 -2.2309E-01  2.8580E-01
ac ID =   33377                 8.6959E-01 -1.2614E+01 -4.2620E-01  1.2651E+01
                               -4.8277E-01  4.2244E+01 -3.3440E+01  2.5147E+03

           1    2.39001E+01     1.8002E-01 -4.8643E-04 -2.2252E-01  2.8622E-01
ac ID =   33377                 8.8893E-01 -1.3092E+01 -5.1312E-01  1.3132E+01
                               -4.8509E-01  4.2376E+01 -3.3390E+01  2.5147E+03

           1    2.40001E+01     1.7179E-01 -1.0217E-02 -1.8771E-01  2.5466E-01
ac ID =   33377                 5.9927E-01 -1.3707E+01 -1.9126E-01  1.3721E+01
                               -4.8734E-01  4.2508E+01 -3.3339E+01  2.5147E+03

           1    2.41001E+01     1.8099E-01 -1.4944E-02 -1.7722E-01  2.5375E-01
ac ID =   33377                 9.4205E-01 -1.4608E+01 -1.0278E-01  1.4639E+01
                               -4.8973E-01  4.2639E+01 -3.3287E+01  2.5147E+03

           1    2.42001E+01     1.6116E-01  9.0420E-03 -1.7917E-01  2.4116E-01
ac ID =   33377                 1.0535E-02 -1.5879E+01 -8.5501E-02  1.5879E+01
                               -4.9218E-01  4.2770E+01 -3.3233E+01  2.5147E+03

           1    2.43001E+01     1.4715E-01  1.5775E-02 -1.8683E-01  2.3834E-01
ac ID =   33377                 1.2662E-01 -1.6730E+01 -3.3855E-01  1.6734E+01
                               -4.9454E-01  4.2901E+01 -3.3179E+01  2.5147E+03

           1    2.44001E+01     1.1877E-01 -2.8825E-02 -1.2870E-01  1.7748E-01
ac ID =   33377                 9.4163E-01 -1.8198E+01 -3.0946E-01  1.8225E+01
                               -4.9687E-01  4.3031E+01 -3.3125E+01  2.5147E+03

           1    2.45005E+01     1.4172E-01 -1.4428E-02 -1.4656E-01  2.0438E-01
ac ID =   33377                 8.6535E-01 -1.8180E+01 -5.2152E-01  1.8208E+01
                               -4.9932E-01  4.3162E+01 -3.3069E+01  2.5147E+03

           1    2.46005E+01     1.1302E-01  1.9184E-02 -1.1074E-01  1.5939E-01
ac ID =   33377                 3.0278E-01 -1.9433E+01 -1.2388E-01  1.9436E+01
                               -5.0179E-01  4.3292E+01 -3.3012E+01  2.5147E+03

           1    2.47005E+01     1.2865E-01  9.5559E-03 -1.3334E-01  1.8553E-01
ac ID =   33377                 3.5959E-01 -1.9307E+01 -1.1501E-01  1.9310E+01
                               -5.0407E-01  4.3421E+01 -3.2955E+01  2.5147E+03

           1    2.48005E+01     1.1234E-01 -2.2692E-02 -9.7331E-02  1.5036E-01
ac ID =   33377                 9.6817E-01 -1.9837E+01 -2.6366E-01  1.9863E+01
                               -5.0627E-01  4.3551E+01 -3.2897E+01  2.5147E+03

           1    2.49005E+01     1.0014E-01 -2.5419E-02 -5.8914E-02  1.1893E-01
ac ID =   33377                 8.3012E-01 -2.1368E+01  1.3850E-01  2.1385E+01
                               -5.0857E-01  4.3680E+01 -3.2839E+01  2.5147E+03

