 LSTC 50th% Full_FE H-III Dummy (Beta Version, February 17, 2019)        
                    ls-dyna smp s R16 R16.0_619_d222963 date 03/18/2025

{BEGIN LEGEND}
 Entity #        Title
    22626                                                                                     
{END LEGEND}




 n o d a l   p r i n t   o u t   f o r   t i m e  s t e p       1                              ( at time 0.0000000E+00 )

 nodal point  x-disp     y-disp      z-disp      x-vel       y-vel       z-vel      x-accl      y-accl      z-accl      x-coor      y-coor      z-coor
    22626  0.00000E+00 0.00000E+00 0.00000E+00 0.00000E+00 0.00000E+00-3.12000E+00 0.00000E+00 0.00000E+00 0.00000E+00 4.79642E+01-2.20298E+01 7.33850E+00



 n o d a l   p r i n t   o u t   f o r   t i m e  s t e p       1                              ( at time 0.0000000E+00 )

 nodal point  x-rot      y-rot       z-rot       x-rot vel   y-rot vel   z-rot vel   x-rot acc   y-rot acc   z-rot acc
    22626  0.00000E+00 0.00000E+00 0.00000E+00 0.00000E+00 0.00000E+00 0.00000E+00 0.00000E+00 0.00000E+00 0.00000E+00



 n o d a l   p r i n t   o u t   f o r   t i m e  s t e p     201                              ( at time 9.9989993E-02 )

 nodal point  x-disp     y-disp      z-disp      x-vel       y-vel       z-vel      x-accl      y-accl      z-accl      x-coor      y-coor      z-coor
    22626  8.34245E-07-4.04470E-06-3.12016E-01 4.76692E-05-4.96424E-04-3.12074E+00 4.76740E-04-4.96474E-03-7.42510E-03 4.79642E+01-2.20298E+01 7.02648E+00



 n o d a l   p r i n t   o u t   f o r   t i m e  s t e p     201                              ( at time 9.9989993E-02 )

 nodal point  x-rot      y-rot       z-rot       x-rot vel   y-rot vel   z-rot vel   x-rot acc   y-rot acc   z-rot acc
    22626  9.60912E-09 3.04010E-08 5.26988E-08 1.30710E-06 2.72273E-06 5.21254E-06 1.30723E-05 2.72300E-05 5.21306E-05



 n o d a l   p r i n t   o u t   f o r   t i m e  s t e p     401                              ( at time 1.9997999E-01 )

 nodal point  x-disp     y-disp      z-disp      x-vel       y-vel       z-vel      x-accl      y-accl      z-accl      x-coor      y-coor      z-coor
    22626 -5.12816E-05-5.21560E-04-6.23853E-01-1.09695E-03-1.11135E-02-3.11558E+00-1.14473E-02-1.06181E-01 5.16085E-02 4.79641E+01-2.20303E+01 6.71465E+00



 n o d a l   p r i n t   o u t   f o r   t i m e  s t e p     401                              ( at time 1.9997999E-01 )

 nodal point  x-rot      y-rot       z-rot       x-rot vel   y-rot vel   z-rot vel   x-rot acc   y-rot acc   z-rot acc
    22626  4.60440E-07 1.32967E-06 2.50212E-06 2.66883E-06 1.90418E-05 3.49556E-05 1.36187E-05 1.63207E-04 2.97461E-04



 n o d a l   p r i n t   o u t   f o r   t i m e  s t e p     601                              ( at time 2.9996998E-01 )

 nodal point  x-disp     y-disp      z-disp      x-vel       y-vel       z-vel      x-accl      y-accl      z-accl      x-coor      y-coor      z-coor
    22626 -2.45807E-05-1.97634E-03-9.35238E-01 1.66181E-03-1.60434E-02-3.11415E+00 2.75904E-02-4.93041E-02 1.43447E-02 4.79642E+01-2.20318E+01 6.40326E+00



 n o d a l   p r i n t   o u t   f o r   t i m e  s t e p     601                              ( at time 2.9996998E-01 )

 nodal point  x-rot      y-rot       z-rot       x-rot vel   y-rot vel   z-rot vel   x-rot acc   y-rot acc   z-rot acc
    22626  6.75480E-07 2.41155E-06 4.82796E-06 8.27446E-06 5.37235E-06 1.47041E-05 5.60619E-05-1.36709E-04-2.02535E-04



 n o d a l   p r i n t   o u t   f o r   t i m e  s t e p     801                              ( at time 3.9995997E-01 )

 nodal point  x-disp     y-disp      z-disp      x-vel       y-vel       z-vel      x-accl      y-accl      z-accl      x-coor      y-coor      z-coor
    22626  5.94448E-05-3.57403E-03-1.24663E+00 1.91736E-04-1.73912E-02-3.11353E+00-1.47023E-02-1.34792E-02 6.16135E-03 4.79642E+01-2.20334E+01 6.09187E+00



 n o d a l   p r i n t   o u t   f o r   t i m e  s t e p     801                              ( at time 3.9995997E-01 )

 nodal point  x-rot      y-rot       z-rot       x-rot vel   y-rot vel   z-rot vel   x-rot acc   y-rot acc   z-rot acc
    22626  1.58179E-06 3.68104E-06 6.68079E-06 6.24996E-06 2.42464E-05 3.81771E-05-2.02470E-05 1.88759E-04 2.34754E-04



 n o d a l   p r i n t   o u t   f o r   t i m e  s t e p    1001                              ( at time 4.9994997E-01 )

 nodal point  x-disp     y-disp      z-disp      x-vel       y-vel       z-vel      x-accl      y-accl      z-accl      x-coor      y-coor      z-coor
    22626  7.27223E-05-5.63147E-03-1.55782E+00 8.84922E-04-2.38493E-02-3.11085E+00 6.93256E-03-6.45872E-02 2.67986E-02 4.79643E+01-2.20354E+01 5.78068E+00



 n o d a l   p r i n t   o u t   f o r   t i m e  s t e p    1001                              ( at time 4.9994997E-01 )

 nodal point  x-rot      y-rot       z-rot       x-rot vel   y-rot vel   z-rot vel   x-rot acc   y-rot acc   z-rot acc
    22626  1.49471E-06 6.64741E-06 1.18362E-05-4.86221E-06 4.37042E-05 7.18494E-05-1.11133E-04 1.94598E-04 3.36756E-04



 n o d a l   p r i n t   o u t   f o r   t i m e  s t e p    1201                              ( at time 5.9993996E-01 )

 nodal point  x-disp     y-disp      z-disp      x-vel       y-vel       z-vel      x-accl      y-accl      z-accl      x-coor      y-coor      z-coor
    22626  5.29229E-05-8.13744E-03-1.86888E+00-5.63927E-04-2.61233E-02-3.11084E+00-1.44899E-02-2.27429E-02 1.31143E-04 4.79642E+01-2.20379E+01 5.46962E+00



 n o d a l   p r i n t   o u t   f o r   t i m e  s t e p    1201                              ( at time 5.9993996E-01 )

 nodal point  x-rot      y-rot       z-rot       x-rot vel   y-rot vel   z-rot vel   x-rot acc   y-rot acc   z-rot acc
    22626  1.26564E-06 9.87429E-06 1.77365E-05-2.12121E-06 2.63317E-05 5.29710E-05 2.74128E-05-1.73742E-04-1.88802E-04



 n o d a l   p r i n t   o u t   f o r   t i m e  s t e p    1401                              ( at time 6.9992995E-01 )

 nodal point  x-disp     y-disp      z-disp      x-vel       y-vel       z-vel      x-accl      y-accl      z-accl      x-coor      y-coor      z-coor
    22626  1.96794E-05-1.10207E-02-2.17976E+00 7.13593E-04-3.22396E-02-3.10770E+00 1.27765E-02-6.11684E-02 3.14339E-02 4.79642E+01-2.20408E+01 5.15874E+00



 n o d a l   p r i n t   o u t   f o r   t i m e  s t e p    1401                              ( at time 6.9992995E-01 )

 nodal point  x-rot      y-rot       z-rot       x-rot vel   y-rot vel   z-rot vel   x-rot acc   y-rot acc   z-rot acc
    22626  1.10230E-06 1.30698E-05 2.27053E-05-2.50629E-06 3.78817E-05 5.93393E-05-3.85125E-06 1.15511E-04 6.36890E-05



 n o d a l   p r i n t   o u t   f o r   t i m e  s t e p    1601                              ( at time 7.9991994E-01 )

 nodal point  x-disp     y-disp      z-disp      x-vel       y-vel       z-vel      x-accl      y-accl      z-accl      x-coor      y-coor      z-coor
    22626  1.33069E-04-1.45710E-02-2.49038E+00 1.36983E-03-3.68140E-02-3.10600E+00 6.56300E-03-4.57485E-02 1.69556E-02 4.79643E+01-2.20444E+01 4.84812E+00



 n o d a l   p r i n t   o u t   f o r   t i m e  s t e p    1601                              ( at time 7.9991994E-01 )

 nodal point  x-rot      y-rot       z-rot       x-rot vel   y-rot vel   z-rot vel   x-rot acc   y-rot acc   z-rot acc
    22626  1.00708E-06 1.72049E-05 2.96652E-05 2.93011E-06 4.88124E-05 7.64328E-05 5.43695E-05 1.09319E-04 1.70953E-04



 n o d a l   p r i n t   o u t   f o r   t i m e  s t e p    1801                              ( at time 8.9990994E-01 )

 nodal point  x-disp     y-disp      z-disp      x-vel       y-vel       z-vel      x-accl      y-accl      z-accl      x-coor      y-coor      z-coor
    22626  2.07354E-04-1.82140E-02-2.80104E+00-5.10684E-04-3.64313E-02-3.10742E+00-1.88070E-02 3.82697E-03-1.42088E-02 4.79644E+01-2.20480E+01 4.53746E+00



 n o d a l   p r i n t   o u t   f o r   t i m e  s t e p    1801                              ( at time 8.9990994E-01 )

 nodal point  x-rot      y-rot       z-rot       x-rot vel   y-rot vel   z-rot vel   x-rot acc   y-rot acc   z-rot acc
    22626  1.02510E-06 2.13193E-05 3.66563E-05-1.94771E-06 3.80303E-05 6.84008E-05-4.87831E-05-1.07832E-04-8.03283E-05



 n o d a l   p r i n t   o u t   f o r   t i m e  s t e p    2001                              ( at time 9.9989993E-01 )

 nodal point  x-disp     y-disp      z-disp      x-vel       y-vel       z-vel      x-accl      y-accl      z-accl      x-coor      y-coor      z-coor
    22626  1.09813E-04-2.19275E-02-3.11175E+00-8.14475E-04-3.84017E-02-3.10756E+00-3.03821E-03-1.97057E-02-1.34243E-03 4.79643E+01-2.20517E+01 4.22675E+00



 n o d a l   p r i n t   o u t   f o r   t i m e  s t e p    2001                              ( at time 9.9989993E-01 )

 nodal point  x-rot      y-rot       z-rot       x-rot vel   y-rot vel   z-rot vel   x-rot acc   y-rot acc   z-rot acc
    22626  8.56987E-07 2.55333E-05 4.38503E-05-8.20532E-07 4.62001E-05 8.59781E-05 1.12729E-05 8.17058E-05 1.75791E-04



 n o d a l   p r i n t   o u t   f o r   t i m e  s t e p    2201                              ( at time 1.0998899E+00 )

 nodal point  x-disp     y-disp      z-disp      x-vel       y-vel       z-vel      x-accl      y-accl      z-accl      x-coor      y-coor      z-coor
    22626  9.18954E-05-2.58761E-02-3.42246E+00-2.19021E-04-4.02527E-02-3.10712E+00 5.95514E-03-1.85120E-02 4.36588E-03 4.79643E+01-2.20557E+01 3.91605E+00



 n o d a l   p r i n t   o u t   f o r   t i m e  s t e p    2201                              ( at time 1.0998899E+00 )

 nodal point  x-rot      y-rot       z-rot       x-rot vel   y-rot vel   z-rot vel   x-rot acc   y-rot acc   z-rot acc
    22626  9.34453E-07 3.03106E-05 5.24795E-05 5.29090E-06 4.63887E-05 7.49558E-05 6.11205E-05 1.88612E-06-1.10235E-04



 n o d a l   p r i n t   o u t   f o r   t i m e  s t e p    2401                              ( at time 1.1998799E+00 )

 nodal point  x-disp     y-disp      z-disp      x-vel       y-vel       z-vel      x-accl      y-accl      z-accl      x-coor      y-coor      z-coor
    22626  1.34207E-04-2.98902E-02-3.73320E+00 7.33755E-04-3.98033E-02-3.10850E+00 9.52872E-03 4.49457E-03-1.37700E-02 4.79643E+01-2.20597E+01 3.60531E+00



 n o d a l   p r i n t   o u t   f o r   t i m e  s t e p    2401                              ( at time 1.1998799E+00 )

 nodal point  x-rot      y-rot       z-rot       x-rot vel   y-rot vel   z-rot vel   x-rot acc   y-rot acc   z-rot acc
    22626  1.33727E-06 3.44643E-05 5.93274E-05 5.03355E-06 3.98893E-05 6.55436E-05-2.57380E-06-6.50008E-05-9.41310E-05



 n o d a l   p r i n t   o u t   f o r   t i m e  s t e p    2601                              ( at time 1.2998699E+00 )

 nodal point  x-disp     y-disp      z-disp      x-vel       y-vel       z-vel      x-accl      y-accl      z-accl      x-coor      y-coor      z-coor
    22626  1.46058E-04-3.37304E-02-4.04413E+00-4.22266E-04-3.65937E-02-3.11132E+00-1.15614E-02 3.20987E-02-2.82864E-02 4.79643E+01-2.20635E+01 3.29437E+00



 n o d a l   p r i n t   o u t   f o r   t i m e  s t e p    2601                              ( at time 1.2998699E+00 )

 nodal point  x-rot      y-rot       z-rot       x-rot vel   y-rot vel   z-rot vel   x-rot acc   y-rot acc   z-rot acc
    22626  1.63942E-06 3.85430E-05 6.61324E-05-2.65061E-06 4.54300E-05 7.98465E-05-7.68493E-05 5.54125E-05 1.43043E-04



 n o d a l   p r i n t   o u t   f o r   t i m e  s t e p    2801                              ( at time 1.3998599E+00 )

 nodal point  x-disp     y-disp      z-disp      x-vel       y-vel       z-vel      x-accl      y-accl      z-accl      x-coor      y-coor      z-coor
    22626  3.21565E-05-3.71241E-02-4.35543E+00-1.31089E-03-3.14365E-02-3.11511E+00-8.88715E-03 5.15777E-02-3.78527E-02 4.79642E+01-2.20669E+01 2.98307E+00



 n o d a l   p r i n t   o u t   f o r   t i m e  s t e p    2801                              ( at time 1.3998599E+00 )

 nodal point  x-rot      y-rot       z-rot       x-rot vel   y-rot vel   z-rot vel   x-rot acc   y-rot acc   z-rot acc
    22626  1.20512E-06 4.29478E-05 7.39886E-05-4.48096E-06 4.45344E-05 7.33894E-05-1.83053E-05-8.95633E-06-6.45767E-05



 n o d a l   p r i n t   o u t   f o r   t i m e  s t e p    3001                              ( at time 1.4998499E+00 )

 nodal point  x-disp     y-disp      z-disp      x-vel       y-vel       z-vel      x-accl      y-accl      z-accl      x-coor      y-coor      z-coor
    22626 -7.76078E-05-4.01689E-02-4.66702E+00-4.96539E-04-2.97706E-02-3.11713E+00 8.14434E-03 1.66601E-02-2.02151E-02 4.79641E+01-2.20700E+01 2.67148E+00



 n o d a l   p r i n t   o u t   f o r   t i m e  s t e p    3001                              ( at time 1.4998499E+00 )

 nodal point  x-rot      y-rot       z-rot       x-rot vel   y-rot vel   z-rot vel   x-rot acc   y-rot acc   z-rot acc
    22626  8.28717E-07 4.68511E-05 8.05193E-05-1.58277E-06 3.19458E-05 5.70805E-05 2.89847E-05-1.25899E-04-1.63105E-04



 n o d a l   p r i n t   o u t   f o r   t i m e  s t e p    3201                              ( at time 1.5998399E+00 )

 nodal point  x-disp     y-disp      z-disp      x-vel       y-vel       z-vel      x-accl      y-accl      z-accl      x-coor      y-coor      z-coor
    22626 -1.24395E-04-4.30595E-02-4.97879E+00-6.94901E-04-2.75102E-02-3.11940E+00-1.98381E-03 2.26063E-02-2.26997E-02 4.79641E+01-2.20728E+01 2.35971E+00



 n o d a l   p r i n t   o u t   f o r   t i m e  s t e p    3201                              ( at time 1.5998399E+00 )

 nodal point  x-rot      y-rot       z-rot       x-rot vel   y-rot vel   z-rot vel   x-rot acc   y-rot acc   z-rot acc
    22626  5.17209E-07 4.99096E-05 8.53933E-05-1.53405E-06 3.26406E-05 4.79337E-05 4.87318E-07 6.94887E-06-9.14772E-05



 n o d a l   p r i n t   o u t   f o r   t i m e  s t e p    3401                              ( at time 1.6998299E+00 )

 nodal point  x-disp     y-disp      z-disp      x-vel       y-vel       z-vel      x-accl      y-accl      z-accl      x-coor      y-coor      z-coor
    22626 -2.11116E-04-4.55739E-02-5.29089E+00-1.12815E-03-2.24371E-02-3.12325E+00-4.33291E-03 5.07366E-02-3.84989E-02 4.79640E+01-2.20754E+01 2.04762E+00



 n o d a l   p r i n t   o u t   f o r   t i m e  s t e p    3401                              ( at time 1.6998299E+00 )

 nodal point  x-rot      y-rot       z-rot       x-rot vel   y-rot vel   z-rot vel   x-rot acc   y-rot acc   z-rot acc
    22626  3.03848E-07 5.29915E-05 9.04275E-05-3.77727E-06 2.99381E-05 4.79333E-05-2.24345E-05-2.70274E-05-3.85664E-09



 n o d a l   p r i n t   o u t   f o r   t i m e  s t e p    3601                              ( at time 1.7998199E+00 )

 nodal point  x-disp     y-disp      z-disp      x-vel       y-vel       z-vel      x-accl      y-accl      z-accl      x-coor      y-coor      z-coor
    22626 -3.12693E-04-4.75647E-02-5.60339E+00-1.32813E-03-1.77185E-02-3.12732E+00-2.00001E-03 4.71906E-02-4.07117E-02 4.79639E+01-2.20774E+01 1.73511E+00



 n o d a l   p r i n t   o u t   f o r   t i m e  s t e p    3601                              ( at time 1.7998199E+00 )

 nodal point  x-rot      y-rot       z-rot       x-rot vel   y-rot vel   z-rot vel   x-rot acc   y-rot acc   z-rot acc
    22626  1.59064E-07 5.57795E-05 9.51858E-05-3.75228E-07 2.15404E-05 4.22779E-05 3.40238E-05-8.39854E-05-5.65599E-05



 n o d a l   p r i n t   o u t   f o r   t i m e  s t e p    3801                              ( at time 1.8998099E+00 )

 nodal point  x-disp     y-disp      z-disp      x-vel       y-vel       z-vel      x-accl      y-accl      z-accl      x-coor      y-coor      z-coor
    22626 -5.00369E-04-4.92025E-02-5.91621E+00-2.16011E-03-1.51665E-02-3.12982E+00-8.32066E-03 2.55227E-02-2.49935E-02 4.79637E+01-2.20790E+01 1.42229E+00



 n o d a l   p r i n t   o u t   f o r   t i m e  s t e p    3801                              ( at time 1.8998099E+00 )

 nodal point  x-rot      y-rot       z-rot       x-rot vel   y-rot vel   z-rot vel   x-rot acc   y-rot acc   z-rot acc
    22626 -8.45886E-08 5.76757E-05 9.85988E-05 1.55964E-06 1.55112E-05 2.74518E-05 1.93506E-05-6.02986E-05-1.48276E-04



 n o d a l   p r i n t   o u t   f o r   t i m e  s t e p    4001                              ( at time 1.9997999E+00 )

 nodal point  x-disp     y-disp      z-disp      x-vel       y-vel       z-vel      x-accl      y-accl      z-accl      x-coor      y-coor      z-coor
    22626 -6.73881E-04-5.05928E-02-6.22929E+00-1.64509E-03-1.28120E-02-3.13210E+00 5.15078E-03 2.35471E-02-2.28428E-02 4.79635E+01-2.20804E+01 1.10921E+00



 n o d a l   p r i n t   o u t   f o r   t i m e  s t e p    4001                              ( at time 1.9997999E+00 )

 nodal point  x-rot      y-rot       z-rot       x-rot vel   y-rot vel   z-rot vel   x-rot acc   y-rot acc   z-rot acc
    22626  1.21569E-07 5.90108E-05 1.00908E-04 3.44268E-06 1.33987E-05 2.02360E-05 1.88323E-05-2.11266E-05-7.21653E-05



 n o d a l   p r i n t   o u t   f o r   t i m e  s t e p    4201                              ( at time 2.0997899E+00 )

 nodal point  x-disp     y-disp      z-disp      x-vel       y-vel       z-vel      x-accl      y-accl      z-accl      x-coor      y-coor      z-coor
    22626 -8.43099E-04-5.16841E-02-6.54262E+00-1.85935E-03-9.15366E-03-3.13518E+00-2.14282E-03 3.65871E-02-3.07925E-02 4.79633E+01-2.20815E+01 7.95877E-01



 n o d a l   p r i n t   o u t   f o r   t i m e  s t e p    4201                              ( at time 2.0997899E+00 )

 nodal point  x-rot      y-rot       z-rot       x-rot vel   y-rot vel   z-rot vel   x-rot acc   y-rot acc   z-rot acc
    22626  4.07136E-07 5.96546E-05 1.01999E-04-1.36197E-06 3.37811E-06 1.60557E-06-4.80513E-05-1.00216E-04-1.86323E-04



 n o d a l   p r i n t   o u t   f o r   t i m e  s t e p    4401                              ( at time 2.1997798E+00 )

 nodal point  x-disp     y-disp      z-disp      x-vel       y-vel       z-vel      x-accl      y-accl      z-accl      x-coor      y-coor      z-coor
    22626 -1.08515E-03-5.23706E-02-6.85629E+00-2.77602E-03-4.41585E-03-3.13895E+00-9.16771E-03 4.73828E-02-3.76573E-02 4.79631E+01-2.20822E+01 4.82212E-01



 n o d a l   p r i n t   o u t   f o r   t i m e  s t e p    4401                              ( at time 2.1997798E+00 )

 nodal point  x-rot      y-rot       z-rot       x-rot vel   y-rot vel   z-rot vel   x-rot acc   y-rot acc   z-rot acc
    22626  2.30071E-07 5.96455E-05 1.01928E-04-1.16999E-06-2.10661E-06-3.03814E-06 1.91997E-06-5.48527E-05-4.64417E-05



 n o d a l   p r i n t   o u t   f o r   t i m e  s t e p    4601                              ( at time 2.2997698E+00 )

 nodal point  x-disp     y-disp      z-disp      x-vel       y-vel       z-vel      x-accl      y-accl      z-accl      x-coor      y-coor      z-coor
    22626 -1.39419E-03-5.25658E-02-7.17034E+00-3.50423E-03-8.81691E-05-3.14227E+00-7.28281E-03 4.32811E-02-3.32436E-02 4.79628E+01-2.20824E+01 1.68163E-01



 n o d a l   p r i n t   o u t   f o r   t i m e  s t e p    4601                              ( at time 2.2997698E+00 )

 nodal point  x-rot      y-rot       z-rot       x-rot vel   y-rot vel   z-rot vel   x-rot acc   y-rot acc   z-rot acc
    22626 -1.58521E-07 5.93321E-05 1.01556E-04-4.60809E-06-9.71038E-06-1.28946E-05-3.43844E-05-7.60452E-05-9.85743E-05



 n o d a l   p r i n t   o u t   f o r   t i m e  s t e p    4801                              ( at time 2.3997598E+00 )

 nodal point  x-disp     y-disp      z-disp      x-vel       y-vel       z-vel      x-accl      y-accl      z-accl      x-coor      y-coor      z-coor
    22626 -1.76308E-03-5.24790E-02-7.48464E+00-3.61130E-03 1.86618E-03-3.14440E+00-1.07082E-03 1.95455E-02-2.12810E-02 4.79624E+01-2.20823E+01-1.46135E-01



 n o d a l   p r i n t   o u t   f o r   t i m e  s t e p    4801                              ( at time 2.3997598E+00 )

 nodal point  x-rot      y-rot       z-rot       x-rot vel   y-rot vel   z-rot vel   x-rot acc   y-rot acc   z-rot acc
    22626 -7.08122E-07 5.80667E-05 9.90711E-05-6.05639E-06-1.61608E-05-3.37819E-05-1.44844E-05-6.45109E-05-2.08894E-04



 n o d a l   p r i n t   o u t   f o r   t i m e  s t e p    5001                              ( at time 2.4997498E+00 )

 nodal point  x-disp     y-disp      z-disp      x-vel       y-vel       z-vel      x-accl      y-accl      z-accl      x-coor      y-coor      z-coor
    22626 -2.15618E-03-5.21715E-02-7.79916E+00-4.25421E-03 4.96741E-03-3.14711E+00-6.42969E-03 3.10154E-02-2.70942E-02 4.79620E+01-2.20820E+01-4.60662E-01



 n o d a l   p r i n t   o u t   f o r   t i m e  s t e p    5001                              ( at time 2.4997498E+00 )

 nodal point  x-rot      y-rot       z-rot       x-rot vel   y-rot vel   z-rot vel   x-rot acc   y-rot acc   z-rot acc
    22626 -1.15397E-06 5.58322E-05 9.51020E-05-4.04256E-06-2.63145E-05-4.86640E-05 2.01402E-05-1.01547E-04-1.48836E-04



 n o d a l   p r i n t   o u t   f o r   t i m e  s t e p    5201                              ( at time 2.5997398E+00 )

 nodal point  x-disp     y-disp      z-disp      x-vel       y-vel       z-vel      x-accl      y-accl      z-accl      x-coor      y-coor      z-coor
    22626 -2.63029E-03-5.14572E-02-8.11403E+00-5.25849E-03 9.26973E-03-3.15070E+00-1.00438E-02 4.30276E-02-3.59428E-02 4.79615E+01-2.20812E+01-7.75527E-01



 n o d a l   p r i n t   o u t   f o r   t i m e  s t e p    5201                              ( at time 2.5997398E+00 )

 nodal point  x-rot      y-rot       z-rot       x-rot vel   y-rot vel   z-rot vel   x-rot acc   y-rot acc   z-rot acc
    22626 -1.52621E-06 5.27290E-05 8.96641E-05-4.72493E-06-3.57835E-05-6.22876E-05-6.82434E-06-9.47002E-05-1.36249E-04



 n o d a l   p r i n t   o u t   f o r   t i m e  s t e p    5401                              ( at time 2.6997298E+00 )

 nodal point  x-disp     y-disp      z-disp      x-vel       y-vel       z-vel      x-accl      y-accl      z-accl      x-coor      y-coor      z-coor
    22626 -3.20015E-03-5.03228E-02-8.42925E+00-6.42101E-03 1.29758E-02-3.15422E+00-1.16263E-02 3.70643E-02-3.51344E-02 4.79610E+01-2.20801E+01-1.09074E+00



 n o d a l   p r i n t   o u t   f o r   t i m e  s t e p    5401                              ( at time 2.6997298E+00 )

 nodal point  x-rot      y-rot       z-rot       x-rot vel   y-rot vel   z-rot vel   x-rot acc   y-rot acc   z-rot acc
    22626 -1.82271E-06 4.89774E-05 8.31590E-05-1.84072E-06-4.13621E-05-6.68207E-05 2.88449E-05-5.57906E-05-4.53357E-05



 n o d a l   p r i n t   o u t   f o r   t i m e  s t e p    5601                              ( at time 2.7997198E+00 )

 nodal point  x-disp     y-disp      z-disp      x-vel       y-vel       z-vel      x-accl      y-accl      z-accl      x-coor      y-coor      z-coor
    22626 -3.91413E-03-4.88983E-02-8.74475E+00-7.68099E-03 1.51541E-02-3.15635E+00-1.26011E-02 2.17848E-02-2.13215E-02 4.79603E+01-2.20787E+01-1.40625E+00



 n o d a l   p r i n t   o u t   f o r   t i m e  s t e p    5601                              ( at time 2.7997198E+00 )

 nodal point  x-rot      y-rot       z-rot       x-rot vel   y-rot vel   z-rot vel   x-rot acc   y-rot acc   z-rot acc
    22626 -1.95675E-06 4.40802E-05 7.50460E-05 3.18322E-07-5.74050E-05-9.86514E-05 2.15926E-05-1.60446E-04-3.18339E-04



 n o d a l   p r i n t   o u t   f o r   t i m e  s t e p    5801                              ( at time 2.8997098E+00 )

 nodal point  x-disp     y-disp      z-disp      x-vel       y-vel       z-vel      x-accl      y-accl      z-accl      x-coor      y-coor      z-coor
    22626 -4.68575E-03-4.73301E-02-9.06045E+00-7.81878E-03 1.61406E-02-3.15804E+00-1.37811E-03 9.86648E-03-1.69580E-02 4.79595E+01-2.20771E+01-1.72194E+00



 n o d a l   p r i n t   o u t   f o r   t i m e  s t e p    5801                              ( at time 2.8997098E+00 )

 nodal point  x-rot      y-rot       z-rot       x-rot vel   y-rot vel   z-rot vel   x-rot acc   y-rot acc   z-rot acc
    22626 -1.75908E-06 3.76418E-05 6.41420E-05 2.42051E-06-6.66285E-05-1.15508E-04 2.10240E-05-9.22443E-05-1.68582E-04



 n o d a l   p r i n t   o u t   f o r   t i m e  s t e p    6001                              ( at time 2.9996998E+00 )

 nodal point  x-disp     y-disp      z-disp      x-vel       y-vel       z-vel      x-accl      y-accl      z-accl      x-coor      y-coor      z-coor
    22626 -5.50604E-03-4.55984E-02-9.37632E+00-8.82950E-03 1.86331E-02-3.16041E+00-1.01082E-02 2.49277E-02-2.36821E-02 4.79587E+01-2.20754E+01-2.03782E+00



 n o d a l   p r i n t   o u t   f o r   t i m e  s t e p    6001                              ( at time 2.9996998E+00 )

 nodal point  x-rot      y-rot       z-rot       x-rot vel   y-rot vel   z-rot vel   x-rot acc   y-rot acc   z-rot acc
    22626 -1.52600E-06 3.07797E-05 5.25748E-05 5.38863E-07-7.09092E-05-1.20909E-04-1.88183E-05-4.28105E-05-5.40123E-05



 n o d a l   p r i n t   o u t   f o r   t i m e  s t e p    6201                              ( at time 3.0996898E+00 )

 nodal point  x-disp     y-disp      z-disp      x-vel       y-vel       z-vel      x-accl      y-accl      z-accl      x-coor      y-coor      z-coor
    22626 -6.47151E-03-4.36172E-02-9.69245E+00-1.04117E-02 2.05542E-02-3.16240E+00-1.58238E-02 1.92128E-02-1.98623E-02 4.79577E+01-2.20734E+01-2.35395E+00



 n o d a l   p r i n t   o u t   f o r   t i m e  s t e p    6201                              ( at time 3.0996898E+00 )

 nodal point  x-rot      y-rot       z-rot       x-rot vel   y-rot vel   z-rot vel   x-rot acc   y-rot acc   z-rot acc
    22626 -1.57384E-06 2.34210E-05 3.99434E-05-1.86061E-06-7.57588E-05-1.33570E-04-2.39972E-05-4.85008E-05-1.26630E-04



 n o d a l   p r i n t   o u t   f o r   t i m e  s t e p    6401                              ( at time 3.1996798E+00 )

 nodal point  x-disp     y-disp      z-disp      x-vel       y-vel       z-vel      x-accl      y-accl      z-accl      x-coor      y-coor      z-coor
    22626 -7.54252E-03-4.15867E-02-1.00087E+01-1.09359E-02 1.97645E-02-3.16298E+00-5.24226E-03-7.89791E-03-5.81083E-03 4.79566E+01-2.20714E+01-2.67020E+00



 n o d a l   p r i n t   o u t   f o r   t i m e  s t e p    6401                              ( at time 3.1996798E+00 )

 nodal point  x-rot      y-rot       z-rot       x-rot vel   y-rot vel   z-rot vel   x-rot acc   y-rot acc   z-rot acc
    22626 -1.70604E-06 1.53453E-05 2.63451E-05-1.63386E-06-8.52923E-05-1.43950E-04 2.26781E-06-9.53453E-05-1.03808E-04



 n o d a l   p r i n t   o u t   f o r   t i m e  s t e p    6601                              ( at time 3.2996698E+00 )

 nodal point  x-disp     y-disp      z-disp      x-vel       y-vel       z-vel      x-accl      y-accl      z-accl      x-coor      y-coor      z-coor
    22626 -8.64834E-03-3.97070E-02-1.03249E+01-1.11959E-02 1.78280E-02-3.16270E+00-2.60051E-03-1.93670E-02 2.78024E-03 4.79555E+01-2.20695E+01-2.98645E+00



 n o d a l   p r i n t   o u t   f o r   t i m e  s t e p    6601                              ( at time 3.2996698E+00 )

 nodal point  x-rot      y-rot       z-rot       x-rot vel   y-rot vel   z-rot vel   x-rot acc   y-rot acc   z-rot acc
    22626 -1.97340E-06 6.65364E-06 1.15818E-05-2.42833E-06-8.94340E-05-1.51654E-04-7.94553E-06-4.14208E-05-7.70507E-05



 n o d a l   p r i n t   o u t   f o r   t i m e  s t e p    6801                              ( at time 3.3996598E+00 )

 nodal point  x-disp     y-disp      z-disp      x-vel       y-vel       z-vel      x-accl      y-accl      z-accl      x-coor      y-coor      z-coor
    22626 -9.79870E-03-3.80160E-02-1.06412E+01-1.17053E-02 1.60384E-02-3.16262E+00-5.09390E-03-1.78977E-02 7.79706E-04 4.79544E+01-2.20678E+01-3.30268E+00



 n o d a l   p r i n t   o u t   f o r   t i m e  s t e p    6801                              ( at time 3.3996598E+00 )

 nodal point  x-rot      y-rot       z-rot       x-rot vel   y-rot vel   z-rot vel   x-rot acc   y-rot acc   z-rot acc
    22626 -2.01980E-06-2.23884E-06-3.71328E-06-2.52011E-06-8.81590E-05-1.53260E-04-9.17914E-07 1.27516E-05-1.60595E-05



 n o d a l   p r i n t   o u t   f o r   t i m e  s t e p    7001                              ( at time 3.4996498E+00 )

 nodal point  x-disp     y-disp      z-disp      x-vel       y-vel       z-vel      x-accl      y-accl      z-accl      x-coor      y-coor      z-coor
    22626 -1.09964E-02-3.64860E-02-1.09574E+01-1.23251E-02 1.44964E-02-3.16282E+00-6.19899E-03-1.54212E-02-2.00053E-03 4.79532E+01-2.20663E+01-3.61893E+00



 n o d a l   p r i n t   o u t   f o r   t i m e  s t e p    7001                              ( at time 3.4996498E+00 )

 nodal point  x-rot      y-rot       z-rot       x-rot vel   y-rot vel   z-rot vel   x-rot acc   y-rot acc   z-rot acc
    22626 -2.00873E-06-1.09048E-05-1.85479E-05 6.80842E-07-8.72751E-05-1.47391E-04 3.20128E-05 8.83936E-06 5.87008E-05



 n o d a l   p r i n t   o u t   f o r   t i m e  s t e p    7201                              ( at time 3.5996397E+00 )

 nodal point  x-disp     y-disp      z-disp      x-vel       y-vel       z-vel      x-accl      y-accl      z-accl      x-coor      y-coor      z-coor
    22626 -1.22509E-02-3.51433E-02-1.12737E+01-1.24091E-02 1.20909E-02-3.16260E+00-8.40445E-04-2.40576E-02 2.19129E-03 4.79519E+01-2.20649E+01-3.93517E+00



 n o d a l   p r i n t   o u t   f o r   t i m e  s t e p    7201                              ( at time 3.5996397E+00 )

 nodal point  x-rot      y-rot       z-rot       x-rot vel   y-rot vel   z-rot vel   x-rot acc   y-rot acc   z-rot acc
    22626 -2.01541E-06-1.95274E-05-3.30324E-05 2.01948E-06-8.48405E-05-1.38848E-04 1.33878E-05 2.43488E-05 8.54374E-05



 n o d a l   p r i n t   o u t   f o r   t i m e  s t e p    7401                              ( at time 3.6996297E+00 )

 nodal point  x-disp     y-disp      z-disp      x-vel       y-vel       z-vel      x-accl      y-accl      z-accl      x-coor      y-coor      z-coor
    22626 -1.34808E-02-3.40996E-02-1.15899E+01-1.21472E-02 8.70651E-03-3.16159E+00 2.61975E-03-3.38474E-02 1.01314E-02 4.79507E+01-2.20639E+01-4.25135E+00



 n o d a l   p r i n t   o u t   f o r   t i m e  s t e p    7401                              ( at time 3.6996297E+00 )

 nodal point  x-rot      y-rot       z-rot       x-rot vel   y-rot vel   z-rot vel   x-rot acc   y-rot acc   z-rot acc
    22626 -1.76056E-06-2.78187E-05-4.68323E-05 3.71169E-06-8.12851E-05-1.36487E-04 1.69237E-05 3.55576E-05 2.36077E-05



 n o d a l   p r i n t   o u t   f o r   t i m e  s t e p    7601                              ( at time 3.7996197E+00 )

 nodal point  x-disp     y-disp      z-disp      x-vel       y-vel       z-vel      x-accl      y-accl      z-accl      x-coor      y-coor      z-coor
    22626 -1.46659E-02-3.33668E-02-1.19059E+01-1.15833E-02 6.00747E-03-3.16089E+00 5.63993E-03-2.69932E-02 7.03167E-03 4.79495E+01-2.20632E+01-4.56744E+00



 n o d a l   p r i n t   o u t   f o r   t i m e  s t e p    7601                              ( at time 3.7996197E+00 )

 nodal point  x-rot      y-rot       z-rot       x-rot vel   y-rot vel   z-rot vel   x-rot acc   y-rot acc   z-rot acc
    22626 -1.29277E-06-3.56387E-05-6.01058E-05 5.36368E-06-7.24521E-05-1.22084E-04 1.65216E-05 8.83391E-05 1.44043E-04



 n o d a l   p r i n t   o u t   f o r   t i m e  s t e p    7801                              ( at time 3.8996097E+00 )

 nodal point  x-disp     y-disp      z-disp      x-vel       y-vel       z-vel      x-accl      y-accl      z-accl      x-coor      y-coor      z-coor
    22626 -1.57931E-02-3.28661E-02-1.22220E+01-1.09339E-02 4.21761E-03-3.16081E+00 6.49393E-03-1.79004E-02 7.98781E-04 4.79484E+01-2.20627E+01-4.88349E+00



 n o d a l   p r i n t   o u t   f o r   t i m e  s t e p    7801                              ( at time 3.8996097E+00 )

 nodal point  x-rot      y-rot       z-rot       x-rot vel   y-rot vel   z-rot vel   x-rot acc   y-rot acc   z-rot acc
    22626 -9.30836E-07-4.22381E-05-7.12264E-05 5.84401E-07-5.77689E-05-9.62489E-05-4.77975E-05 1.46846E-04 2.58382E-04



 n o d a l   p r i n t   o u t   f o r   t i m e  s t e p    8001                              ( at time 3.9995997E+00 )

 nodal point  x-disp     y-disp      z-disp      x-vel       y-vel       z-vel      x-accl      y-accl      z-accl      x-coor      y-coor      z-coor
    22626 -1.68608E-02-3.24957E-02-1.25381E+01-1.03958E-02 3.14968E-03-3.16114E+00 5.38183E-03-1.06803E-02-3.35250E-03 4.79473E+01-2.20623E+01-5.19956E+00



 n o d a l   p r i n t   o u t   f o r   t i m e  s t e p    8001                              ( at time 3.9995997E+00 )

 nodal point  x-rot      y-rot       z-rot       x-rot vel   y-rot vel   z-rot vel   x-rot acc   y-rot acc   z-rot acc
    22626 -7.99430E-07-4.74913E-05-7.99179E-05-1.25849E-07-4.67155E-05-8.00498E-05-7.10322E-06 1.10545E-04 1.62007E-04



 n o d a l   p r i n t   o u t   f o r   t i m e  s t e p    8201                              ( at time 4.0995897E+00 )

 nodal point  x-disp     y-disp      z-disp      x-vel       y-vel       z-vel      x-accl      y-accl      z-accl      x-coor      y-coor      z-coor
    22626 -1.78174E-02-3.22963E-02-1.28541E+01-8.60278E-03 6.35304E-04-3.16064E+00 1.79319E-02-2.51463E-02 5.04305E-03 4.79464E+01-2.20621E+01-5.51562E+00



 n o d a l   p r i n t   o u t   f o r   t i m e  s t e p    8201                              ( at time 4.0995897E+00 )

 nodal point  x-rot      y-rot       z-rot       x-rot vel   y-rot vel   z-rot vel   x-rot acc   y-rot acc   z-rot acc
    22626 -8.08968E-07-5.16200E-05-8.68938E-05-1.50635E-07-3.20983E-05-5.63262E-05-2.47890E-07 1.46187E-04 2.37259E-04



 n o d a l   p r i n t   o u t   f o r   t i m e  s t e p    8401                              ( at time 4.1995797E+00 )

 nodal point  x-disp     y-disp      z-disp      x-vel       y-vel       z-vel      x-accl      y-accl      z-accl      x-coor      y-coor      z-coor
    22626 -1.85982E-02-3.23589E-02-1.31701E+01-6.96815E-03-1.79377E-03-3.16005E+00 1.63480E-02-2.42932E-02 5.91338E-03 4.79456E+01-2.20621E+01-5.83162E+00



 n o d a l   p r i n t   o u t   f o r   t i m e  s t e p    8401                              ( at time 4.1995797E+00 )

 nodal point  x-rot      y-rot       z-rot       x-rot vel   y-rot vel   z-rot vel   x-rot acc   y-rot acc   z-rot acc
    22626 -7.91535E-07-5.39989E-05-9.08485E-05-1.81425E-07-1.41357E-05-2.26790E-05-3.07933E-07 1.79644E-04 3.36506E-04



 n o d a l   p r i n t   o u t   f o r   t i m e  s t e p    8601                              ( at time 4.2995697E+00 )

 nodal point  x-disp     y-disp      z-disp      x-vel       y-vel       z-vel      x-accl      y-accl      z-accl      x-coor      y-coor      z-coor
    22626 -1.92316E-02-3.26574E-02-1.34861E+01-5.56117E-03-3.87746E-03-3.15987E+00 1.40712E-02-2.08390E-02 1.76448E-03 4.79450E+01-2.20624E+01-6.14757E+00



 n o d a l   p r i n t   o u t   f o r   t i m e  s t e p    8601                              ( at time 4.2995697E+00 )

 nodal point  x-rot      y-rot       z-rot       x-rot vel   y-rot vel   z-rot vel   x-rot acc   y-rot acc   z-rot acc
    22626 -8.13942E-07-5.44414E-05-9.17091E-05-4.78349E-07 2.82245E-06 4.47504E-06-2.96954E-06 1.69599E-04 2.71568E-04



 n o d a l   p r i n t   o u t   f o r   t i m e  s t e p    8801                              ( at time 4.3995597E+00 )

 nodal point  x-disp     y-disp      z-disp      x-vel       y-vel       z-vel      x-accl      y-accl      z-accl      x-coor      y-coor      z-coor
    22626 -1.96981E-02-3.30862E-02-1.38021E+01-3.79938E-03-4.74232E-03-3.16048E+00 1.76197E-02-8.64950E-03-6.05644E-03 4.79445E+01-2.20629E+01-6.46355E+00



 n o d a l   p r i n t   o u t   f o r   t i m e  s t e p    8801                              ( at time 4.3995597E+00 )

 nodal point  x-rot      y-rot       z-rot       x-rot vel   y-rot vel   z-rot vel   x-rot acc   y-rot acc   z-rot acc
    22626 -7.88546E-07-5.31645E-05-8.93920E-05 8.46391E-07 2.23271E-05 4.01236E-05 1.32487E-05 1.95066E-04 3.56522E-04



 n o d a l   p r i n t   o u t   f o r   t i m e  s t e p    9001                              ( at time 4.4995497E+00 )

 nodal point  x-disp     y-disp      z-disp      x-vel       y-vel       z-vel      x-accl      y-accl      z-accl      x-coor      y-coor      z-coor
    22626 -1.99956E-02-3.36558E-02-1.41181E+01-2.04694E-03-6.99553E-03-3.16009E+00 1.75261E-02-2.25342E-02 3.83176E-03 4.79442E+01-2.20634E+01-6.77956E+00



 n o d a l   p r i n t   o u t   f o r   t i m e  s t e p    9001                              ( at time 4.4995497E+00 )

 nodal point  x-rot      y-rot       z-rot       x-rot vel   y-rot vel   z-rot vel   x-rot acc   y-rot acc   z-rot acc
    22626 -6.54263E-07-4.97050E-05-8.32928E-05 3.39593E-06 4.38923E-05 7.64345E-05 2.54979E-05 2.15673E-04 3.63144E-04



 n o d a l   p r i n t   o u t   f o r   t i m e  s t e p    9201                              ( at time 4.5995397E+00 )

 nodal point  x-disp     y-disp      z-disp      x-vel       y-vel       z-vel      x-accl      y-accl      z-accl      x-coor      y-coor      z-coor
    22626 -2.01066E-02-3.45095E-02-1.44340E+01-1.24538E-04-9.89872E-03-3.15951E+00 1.92259E-02-2.90348E-02 5.83708E-03 4.79441E+01-2.20643E+01-7.09550E+00



 n o d a l   p r i n t   o u t   f o r   t i m e  s t e p    9201                              ( at time 4.5995397E+00 )

 nodal point  x-rot      y-rot       z-rot       x-rot vel   y-rot vel   z-rot vel   x-rot acc   y-rot acc   z-rot acc
    22626 -3.45188E-07-4.44889E-05-7.41879E-05 4.25815E-06 5.99772E-05 1.02905E-04 8.62307E-06 1.60865E-04 2.64729E-04



 n o d a l   p r i n t   o u t   f o r   t i m e  s t e p    9401                              ( at time 4.6995297E+00 )

 nodal point  x-disp     y-disp      z-disp      x-vel       y-vel       z-vel      x-accl      y-accl      z-accl      x-coor      y-coor      z-coor
    22626 -2.00020E-02-3.55798E-02-1.47499E+01 2.11676E-03-1.15026E-02-3.15936E+00 2.24152E-02-1.60406E-02 1.51173E-03 4.79442E+01-2.20654E+01-7.41142E+00



 n o d a l   p r i n t   o u t   f o r   t i m e  s t e p    9401                              ( at time 4.6995297E+00 )

 nodal point  x-rot      y-rot       z-rot       x-rot vel   y-rot vel   z-rot vel   x-rot acc   y-rot acc   z-rot acc
    22626  3.01295E-08-3.73346E-05-6.17548E-05 2.73513E-06 8.47085E-05 1.45652E-04-1.52318E-05 2.47338E-04 4.27515E-04



 n o d a l   p r i n t   o u t   f o r   t i m e  s t e p    9601                              ( at time 4.7995197E+00 )

 nodal point  x-disp     y-disp      z-disp      x-vel       y-vel       z-vel      x-accl      y-accl      z-accl      x-coor      y-coor      z-coor
    22626 -1.96905E-02-3.68016E-02-1.50658E+01 4.00148E-03-1.27496E-02-3.15961E+00 1.88491E-02-1.24715E-02-2.54180E-03 4.79445E+01-2.20666E+01-7.72733E+00



 n o d a l   p r i n t   o u t   f o r   t i m e  s t e p    9601                              ( at time 4.7995197E+00 )

 nodal point  x-rot      y-rot       z-rot       x-rot vel   y-rot vel   z-rot vel   x-rot acc   y-rot acc   z-rot acc
    22626  3.28566E-07-2.76241E-05-4.51120E-05-2.84721E-07 1.09337E-04 1.87281E-04-3.02016E-05 2.46307E-04 4.16335E-04



 n o d a l   p r i n t   o u t   f o r   t i m e  s t e p    9801                              ( at time 4.8995097E+00 )

 nodal point  x-disp     y-disp      z-disp      x-vel       y-vel       z-vel      x-accl      y-accl      z-accl      x-coor      y-coor      z-coor
    22626 -1.92008E-02-3.81276E-02-1.53818E+01 5.78254E-03-1.38608E-02-3.15987E+00 1.78125E-02-1.11128E-02-2.56326E-03 4.79450E+01-2.20679E+01-8.04328E+00



 n o d a l   p r i n t   o u t   f o r   t i m e  s t e p    9801                              ( at time 4.8995097E+00 )

 nodal point  x-rot      y-rot       z-rot       x-rot vel   y-rot vel   z-rot vel   x-rot acc   y-rot acc   z-rot acc
    22626  3.52552E-07-1.57891E-05-2.47632E-05-8.54723E-07 1.26324E-04 2.16705E-04-5.70060E-06 1.69889E-04 2.94264E-04



 n o d a l   p r i n t   o u t   f o r   t i m e  s t e p   10001                              ( at time 4.9994997E+00 )

 nodal point  x-disp     y-disp      z-disp      x-vel       y-vel       z-vel      x-accl      y-accl      z-accl      x-coor      y-coor      z-coor
    22626 -1.85078E-02-3.96060E-02-1.56977E+01 8.02502E-03-1.57816E-02-3.15970E+00 2.24269E-02-1.92097E-02 1.72870E-03 4.79457E+01-2.20694E+01-8.35923E+00



 n o d a l   p r i n t   o u t   f o r   t i m e  s t e p   10001                              ( at time 4.9994997E+00 )

 nodal point  x-rot      y-rot       z-rot       x-rot vel   y-rot vel   z-rot vel   x-rot acc   y-rot acc   z-rot acc
    22626  2.37931E-07-2.23669E-06-1.52742E-06-6.90653E-07 1.44052E-04 2.47585E-04 1.64086E-06 1.77293E-04 3.08834E-04



 n o d a l   p r i n t   o u t   f o r   t i m e  s t e p   10202                              ( at time 5.0999896E+00 )

 nodal point  x-disp     y-disp      z-disp      x-vel       y-vel       z-vel      x-accl      y-accl      z-accl      x-coor      y-coor      z-coor
    22626 -1.75958E-02-4.12646E-02-1.60152E+01 1.01126E-02-1.71025E-02-3.15974E+00 2.07743E-02-1.31446E-02-3.96219E-04 4.79466E+01-2.20711E+01-8.67674E+00



 n o d a l   p r i n t   o u t   f o r   t i m e  s t e p   10202                              ( at time 5.0999896E+00 )

 nodal point  x-rot      y-rot       z-rot       x-rot vel   y-rot vel   z-rot vel   x-rot acc   y-rot acc   z-rot acc
    22626  7.91401E-08 1.34731E-05 2.52633E-05-4.63802E-06 1.65894E-04 2.85208E-04-3.92814E-05 2.17364E-04 3.74397E-04



 n o d a l   p r i n t   o u t   f o r   t i m e  s t e p   10402                              ( at time 5.1999796E+00 )

 nodal point  x-disp     y-disp      z-disp      x-vel       y-vel       z-vel      x-accl      y-accl      z-accl      x-coor      y-coor      z-coor
    22626 -1.64924E-02-4.29974E-02-1.63312E+01 1.17757E-02-1.69740E-02-3.15894E+00 1.66322E-02 1.28464E-03 7.97349E-03 4.79477E+01-2.20728E+01-8.99265E+00



 n o d a l   p r i n t   o u t   f o r   t i m e  s t e p   10402                              ( at time 5.1999796E+00 )

 nodal point  x-rot      y-rot       z-rot       x-rot vel   y-rot vel   z-rot vel   x-rot acc   y-rot acc   z-rot acc
    22626 -5.58617E-07 3.17716E-05 5.54730E-05-6.01063E-06 1.98042E-04 3.14031E-04-1.37274E-05 3.21506E-04 2.88254E-04



 n o d a l   p r i n t   o u t   f o r   t i m e  s t e p   10602                              ( at time 5.2999696E+00 )

 nodal point  x-disp     y-disp      z-disp      x-vel       y-vel       z-vel      x-accl      y-accl      z-accl      x-coor      y-coor      z-coor
    22626 -1.52562E-02-4.46260E-02-1.66469E+01 1.29114E-02-1.58138E-02-3.15604E+00 1.13583E-02 1.16034E-02 2.90066E-02 4.79489E+01-2.20744E+01-9.30842E+00



 n o d a l   p r i n t   o u t   f o r   t i m e  s t e p   10602                              ( at time 5.2999696E+00 )

 nodal point  x-rot      y-rot       z-rot       x-rot vel   y-rot vel   z-rot vel   x-rot acc   y-rot acc   z-rot acc
    22626 -1.26355E-07 5.43066E-05 8.76085E-05 5.44839E-06 2.63347E-04 3.36427E-04 1.14602E-04 6.53119E-04 2.23989E-04



 n o d a l   p r i n t   o u t   f o r   t i m e  s t e p   10802                              ( at time 5.3999596E+00 )

 nodal point  x-disp     y-disp      z-disp      x-vel       y-vel       z-vel      x-accl      y-accl      z-accl      x-coor      y-coor      z-coor
    22626 -1.39177E-02-4.61174E-02-1.69621E+01 1.41943E-02-1.40363E-02-3.14763E+00 1.28307E-02 1.77765E-02 8.41273E-02 4.79503E+01-2.20759E+01-9.62361E+00



 n o d a l   p r i n t   o u t   f o r   t i m e  s t e p   10802                              ( at time 5.3999596E+00 )

 nodal point  x-rot      y-rot       z-rot       x-rot vel   y-rot vel   z-rot vel   x-rot acc   y-rot acc   z-rot acc
    22626  2.29652E-06 8.55520E-05 1.20739E-04 4.31161E-05 3.67850E-04 3.34513E-04 3.76715E-04 1.04513E-03-1.91453E-05



 n o d a l   p r i n t   o u t   f o r   t i m e  s t e p   11002                              ( at time 5.4999496E+00 )

 nodal point  x-disp     y-disp      z-disp      x-vel       y-vel       z-vel      x-accl      y-accl      z-accl      x-coor      y-coor      z-coor
    22626 -1.24159E-02-4.73314E-02-1.72762E+01 1.58619E-02-9.94993E-03-3.13428E+00 1.66771E-02 4.08683E-02 1.33497E-01 4.79518E+01-2.20771E+01-9.93769E+00



 n o d a l   p r i n t   o u t   f o r   t i m e  s t e p   11002                              ( at time 5.4999496E+00 )

 nodal point  x-rot      y-rot       z-rot       x-rot vel   y-rot vel   z-rot vel   x-rot acc   y-rot acc   z-rot acc
    22626  1.08485E-05 1.29401E-04 1.52627E-04 1.28965E-04 5.08498E-04 3.10232E-04 8.58576E-04 1.40662E-03-2.42836E-04



 n o d a l   p r i n t   o u t   f o r   t i m e  s t e p   11202                              ( at time 5.5999396E+00 )

 nodal point  x-disp     y-disp      z-disp      x-vel       y-vel       z-vel      x-accl      y-accl      z-accl      x-coor      y-coor      z-coor
    22626 -1.07880E-02-4.81241E-02-1.75887E+01 1.65392E-02-5.04864E-03-3.11503E+00 6.77434E-03 4.90178E-02 1.92531E-01 4.79534E+01-2.20779E+01-1.02502E+01



 n o d a l   p r i n t   o u t   f o r   t i m e  s t e p   11202                              ( at time 5.5999396E+00 )

 nodal point  x-rot      y-rot       z-rot       x-rot vel   y-rot vel   z-rot vel   x-rot acc   y-rot acc   z-rot acc
    22626  2.73289E-05 1.90940E-04 1.82510E-04 2.11557E-04 7.24441E-04 2.75315E-04 8.26003E-04 2.15965E-03-3.49207E-04



 n o d a l   p r i n t   o u t   f o r   t i m e  s t e p   11402                              ( at time 5.6999296E+00 )

 nodal point  x-disp     y-disp      z-disp      x-vel       y-vel       z-vel      x-accl      y-accl      z-accl      x-coor      y-coor      z-coor
    22626 -9.05291E-03-4.84001E-02-1.78992E+01 1.81417E-02 3.81223E-04-3.09360E+00 1.60259E-02 5.43039E-02 2.14309E-01 4.79551E+01-2.20782E+01-1.05607E+01



 n o d a l   p r i n t   o u t   f o r   t i m e  s t e p   11402                              ( at time 5.6999296E+00 )

 nodal point  x-rot      y-rot       z-rot       x-rot vel   y-rot vel   z-rot vel   x-rot acc   y-rot acc   z-rot acc
    22626  5.38610E-05 2.74204E-04 2.09131E-04 3.18562E-04 9.55263E-04 2.40797E-04 1.07015E-03 2.30844E-03-3.45208E-04



 n o d a l   p r i n t   o u t   f o r   t i m e  s t e p   11602                              ( at time 5.7999195E+00 )

 nodal point  x-disp     y-disp      z-disp      x-vel       y-vel       z-vel      x-accl      y-accl      z-accl      x-coor      y-coor      z-coor
    22626 -7.17767E-03-4.80317E-02-1.82074E+01 2.06191E-02 5.49652E-03-3.06935E+00 2.47765E-02 5.11581E-02 2.42515E-01 4.79570E+01-2.20778E+01-1.08689E+01



 n o d a l   p r i n t   o u t   f o r   t i m e  s t e p   11602                              ( at time 5.7999195E+00 )

 nodal point  x-rot      y-rot       z-rot       x-rot vel   y-rot vel   z-rot vel   x-rot acc   y-rot acc   z-rot acc
    22626  9.20091E-05 3.80307E-04 2.30324E-04 4.35390E-04 1.20157E-03 1.99248E-04 1.16840E-03 2.46330E-03-4.15536E-04



 n o d a l   p r i n t   o u t   f o r   t i m e  s t e p   11802                              ( at time 5.8999095E+00 )

 nodal point  x-disp     y-disp      z-disp      x-vel       y-vel       z-vel      x-accl      y-accl      z-accl      x-coor      y-coor      z-coor
    22626 -5.14086E-03-4.71406E-02-1.85127E+01 2.20183E-02 1.03062E-02-3.03993E+00 1.39936E-02 4.81018E-02 2.94250E-01 4.79590E+01-2.20769E+01-1.11742E+01



 n o d a l   p r i n t   o u t   f o r   t i m e  s t e p   11802                              ( at time 5.8999095E+00 )

 nodal point  x-rot      y-rot       z-rot       x-rot vel   y-rot vel   z-rot vel   x-rot acc   y-rot acc   z-rot acc
    22626  1.43028E-04 5.14662E-04 2.45558E-04 5.76618E-04 1.48998E-03 1.42259E-04 1.41242E-03 2.88436E-03-5.69949E-04



 n o d a l   p r i n t   o u t   f o r   t i m e  s t e p   12002                              ( at time 5.9998995E+00 )

 nodal point  x-disp     y-disp      z-disp      x-vel       y-vel       z-vel      x-accl      y-accl      z-accl      x-coor      y-coor      z-coor
    22626 -2.92324E-03-4.57159E-02-1.88151E+01 2.31674E-02 1.69752E-02-3.00741E+00 1.14923E-02 6.66970E-02 3.25179E-01 4.79613E+01-2.20755E+01-1.14766E+01



 n o d a l   p r i n t   o u t   f o r   t i m e  s t e p   12002                              ( at time 5.9998995E+00 )

 nodal point  x-rot      y-rot       z-rot       x-rot vel   y-rot vel   z-rot vel   x-rot acc   y-rot acc   z-rot acc
    22626  2.09181E-04 6.78212E-04 2.54061E-04 7.44097E-04 1.78972E-03 5.10252E-05 1.67496E-03 2.99774E-03-9.12426E-04



 n o d a l   p r i n t   o u t   f o r   t i m e  s t e p   12202                              ( at time 6.0998895E+00 )

 nodal point  x-disp     y-disp      z-disp      x-vel       y-vel       z-vel      x-accl      y-accl      z-accl      x-coor      y-coor      z-coor
    22626 -5.14872E-04-4.36814E-02-1.91141E+01 2.47540E-02 2.29611E-02-2.97347E+00 1.58679E-02 5.98648E-02 3.39412E-01 4.79637E+01-2.20735E+01-1.17756E+01



 n o d a l   p r i n t   o u t   f o r   t i m e  s t e p   12202                              ( at time 6.0998895E+00 )

 nodal point  x-rot      y-rot       z-rot       x-rot vel   y-rot vel   z-rot vel   x-rot acc   y-rot acc   z-rot acc
    22626  2.90216E-04 8.72853E-04 2.53784E-04 8.75263E-04 2.12730E-03-3.22730E-05 1.31179E-03 3.37614E-03-8.33062E-04



 n o d a l   p r i n t   o u t   f o r   t i m e  s t e p   12402                              ( at time 6.1998795E+00 )

 nodal point  x-disp     y-disp      z-disp      x-vel       y-vel       z-vel      x-accl      y-accl      z-accl      x-coor      y-coor      z-coor
    22626  2.04436E-03-4.10144E-02-1.94097E+01 2.68709E-02 3.01815E-02-2.93881E+00 2.11711E-02 7.22110E-02 3.46650E-01 4.79662E+01-2.20708E+01-1.20712E+01



 n o d a l   p r i n t   o u t   f o r   t i m e  s t e p   12402                              ( at time 6.1998795E+00 )

 nodal point  x-rot      y-rot       z-rot       x-rot vel   y-rot vel   z-rot vel   x-rot acc   y-rot acc   z-rot acc
    22626  3.87775E-04 1.09966E-03 2.44415E-04 1.06254E-03 2.43022E-03-1.35787E-04 1.87293E-03 3.02954E-03-1.03524E-03



 n o d a l   p r i n t   o u t   f o r   t i m e  s t e p   12602                              ( at time 6.2998695E+00 )

 nodal point  x-disp     y-disp      z-disp      x-vel       y-vel       z-vel      x-accl      y-accl      z-accl      x-coor      y-coor      z-coor
    22626  4.84823E-03-3.77155E-02-1.97016E+01 2.97204E-02 3.63589E-02-2.89974E+00 2.84974E-02 6.17797E-02 3.90798E-01 4.79690E+01-2.20675E+01-1.23631E+01



 n o d a l   p r i n t   o u t   f o r   t i m e  s t e p   12602                              ( at time 6.2998695E+00 )

 nodal point  x-rot      y-rot       z-rot       x-rot vel   y-rot vel   z-rot vel   x-rot acc   y-rot acc   z-rot acc
    22626  5.01679E-04 1.36011E-03 2.25437E-04 1.21484E-03 2.75969E-03-2.50201E-04 1.52317E-03 3.29496E-03-1.14426E-03



 n o d a l   p r i n t   o u t   f o r   t i m e  s t e p   12802                              ( at time 6.3998595E+00 )

 nodal point  x-disp     y-disp      z-disp      x-vel       y-vel       z-vel      x-accl      y-accl      z-accl      x-coor      y-coor      z-coor
    22626  8.08317E-03-3.38912E-02-1.99895E+01 3.35387E-02 4.20449E-02-2.85927E+00 3.81870E-02 5.68661E-02 4.04756E-01 4.79723E+01-2.20637E+01-1.26510E+01



 n o d a l   p r i n t   o u t   f o r   t i m e  s t e p   12802                              ( at time 6.3998595E+00 )

 nodal point  x-rot      y-rot       z-rot       x-rot vel   y-rot vel   z-rot vel   x-rot acc   y-rot acc   z-rot acc
    22626  6.30958E-04 1.65364E-03 1.96765E-04 1.39271E-03 3.09456E-03-3.52132E-04 1.77894E-03 3.34909E-03-1.01941E-03



 n o d a l   p r i n t   o u t   f o r   t i m e  s t e p   13002                              ( at time 6.4998495E+00 )

 nodal point  x-disp     y-disp      z-disp      x-vel       y-vel       z-vel      x-accl      y-accl      z-accl      x-coor      y-coor      z-coor
    22626  1.17169E-02-2.93388E-02-2.02735E+01 3.80997E-02 4.93691E-02-2.81776E+00 4.56141E-02 7.32499E-02 4.15117E-01 4.79759E+01-2.20591E+01-1.29350E+01



 n o d a l   p r i n t   o u t   f o r   t i m e  s t e p   13002                              ( at time 6.4998495E+00 )

 nodal point  x-rot      y-rot       z-rot       x-rot vel   y-rot vel   z-rot vel   x-rot acc   y-rot acc   z-rot acc
    22626  7.78944E-04 1.98104E-03 1.56706E-04 1.56940E-03 3.45791E-03-4.51893E-04 1.76706E-03 3.63388E-03-9.97713E-04



 n o d a l   p r i n t   o u t   f o r   t i m e  s t e p   13202                              ( at time 6.5998395E+00 )

 nodal point  x-disp     y-disp      z-disp      x-vel       y-vel       z-vel      x-accl      y-accl      z-accl      x-coor      y-coor      z-coor
    22626  1.57893E-02-2.40082E-02-2.05531E+01 4.43973E-02 5.68414E-02-2.77567E+00 6.29822E-02 7.47297E-02 4.20878E-01 4.79800E+01-2.20538E+01-1.32146E+01



 n o d a l   p r i n t   o u t   f o r   t i m e  s t e p   13202                              ( at time 6.5998395E+00 )

 nodal point  x-rot      y-rot       z-rot       x-rot vel   y-rot vel   z-rot vel   x-rot acc   y-rot acc   z-rot acc
    22626  9.46189E-04 2.34321E-03 1.04986E-04 1.77640E-03 3.77618E-03-5.63902E-04 2.07020E-03 3.18301E-03-1.12020E-03



 n o d a l   p r i n t   o u t   f o r   t i m e  s t e p   13402                              ( at time 6.6998295E+00 )

 nodal point  x-disp     y-disp      z-disp      x-vel       y-vel       z-vel      x-accl      y-accl      z-accl      x-coor      y-coor      z-coor
    22626  2.04787E-02-1.79582E-02-2.08282E+01 5.02421E-02 6.30693E-02-2.72957E+00 5.84541E-02 6.22851E-02 4.61127E-01 4.79847E+01-2.20477E+01-1.34897E+01



 n o d a l   p r i n t   o u t   f o r   t i m e  s t e p   13402                              ( at time 6.6998295E+00 )

 nodal point  x-rot      y-rot       z-rot       x-rot vel   y-rot vel   z-rot vel   x-rot acc   y-rot acc   z-rot acc
    22626  1.13260E-03 2.73851E-03 4.17166E-05 1.96514E-03 4.11330E-03-6.96104E-04 1.88753E-03 3.37148E-03-1.32215E-03



 n o d a l   p r i n t   o u t   f o r   t i m e  s t e p   13602                              ( at time 6.7998195E+00 )

 nodal point  x-disp     y-disp      z-disp      x-vel       y-vel       z-vel      x-accl      y-accl      z-accl      x-coor      y-coor      z-coor
    22626  2.58500E-02-1.12595E-02-2.10987E+01 5.71624E-02 7.11257E-02-2.68115E+00 6.92097E-02 8.05725E-02 4.84253E-01 4.79900E+01-2.20410E+01-1.37602E+01



 n o d a l   p r i n t   o u t   f o r   t i m e  s t e p   13602                              ( at time 6.7998195E+00 )

 nodal point  x-rot      y-rot       z-rot       x-rot vel   y-rot vel   z-rot vel   x-rot acc   y-rot acc   z-rot acc
    22626  1.33933E-03 3.16679E-03-3.36979E-05 2.18218E-03 4.45060E-03-8.17942E-04 2.17069E-03 3.37341E-03-1.21850E-03



 n o d a l   p r i n t   o u t   f o r   t i m e  s t e p   13802                              ( at time 6.8998095E+00 )

 nodal point  x-disp     y-disp      z-disp      x-vel       y-vel       z-vel      x-accl      y-accl      z-accl      x-coor      y-coor      z-coor
    22626  3.19288E-02-3.79669E-03-2.13644E+01 6.45932E-02 7.86876E-02-2.63145E+00 7.43164E-02 7.56268E-02 4.97034E-01 4.79961E+01-2.20336E+01-1.40259E+01



 n o d a l   p r i n t   o u t   f o r   t i m e  s t e p   13802                              ( at time 6.8998095E+00 )

 nodal point  x-rot      y-rot       z-rot       x-rot vel   y-rot vel   z-rot vel   x-rot acc   y-rot acc   z-rot acc
    22626  1.56839E-03 3.62691E-03-1.20882E-04 2.39425E-03 4.76455E-03-9.32758E-04 2.12086E-03 3.13983E-03-1.14828E-03



 n o d a l   p r i n t   o u t   f o r   t i m e  s t e p   14002                              ( at time 6.9997995E+00 )

 nodal point  x-disp     y-disp      z-disp      x-vel       y-vel       z-vel      x-accl      y-accl      z-accl      x-coor      y-coor      z-coor
    22626  3.88252E-02 4.41441E-03-2.16250E+01 7.31003E-02 8.54037E-02-2.58050E+00 8.50793E-02 6.71677E-02 5.09557E-01 4.80030E+01-2.20254E+01-1.42865E+01



 n o d a l   p r i n t   o u t   f o r   t i m e  s t e p   14002                              ( at time 6.9997995E+00 )

 nodal point  x-rot      y-rot       z-rot       x-rot vel   y-rot vel   z-rot vel   x-rot acc   y-rot acc   z-rot acc
    22626  1.81912E-03 4.11846E-03-2.21639E-04 2.60022E-03 5.08164E-03-1.06466E-03 2.05991E-03 3.17117E-03-1.31918E-03



 n o d a l   p r i n t   o u t   f o r   t i m e  s t e p   14202                              ( at time 7.0997895E+00 )

 nodal point  x-disp     y-disp      z-disp      x-vel       y-vel       z-vel      x-accl      y-accl      z-accl      x-coor      y-coor      z-coor
    22626  4.65323E-02 1.33568E-02-2.18804E+01 8.04669E-02 9.25028E-02-2.52870E+00 7.36734E-02 7.09981E-02 5.18064E-01 4.80107E+01-2.20164E+01-1.45419E+01



 n o d a l   p r i n t   o u t   f o r   t i m e  s t e p   14202                              ( at time 7.0997895E+00 )

 nodal point  x-rot      y-rot       z-rot       x-rot vel   y-rot vel   z-rot vel   x-rot acc   y-rot acc   z-rot acc
    22626  2.09288E-03 4.64150E-03-3.34854E-04 2.85526E-03 5.37631E-03-1.19238E-03 2.55069E-03 2.94699E-03-1.27726E-03



 n o d a l   p r i n t   o u t   f o r   t i m e  s t e p   14402                              ( at time 7.1997794E+00 )

 nodal point  x-disp     y-disp      z-disp      x-vel       y-vel       z-vel      x-accl      y-accl      z-accl      x-coor      y-coor      z-coor
    22626  5.51010E-02 2.29932E-02-2.21303E+01 8.96979E-02 1.00033E-01-2.47144E+00 9.23187E-02 7.53062E-02 5.72656E-01 4.80193E+01-2.20068E+01-1.47918E+01



 n o d a l   p r i n t   o u t   f o r   t i m e  s t e p   14402                              ( at time 7.1997794E+00 )

 nodal point  x-rot      y-rot       z-rot       x-rot vel   y-rot vel   z-rot vel   x-rot acc   y-rot acc   z-rot acc
    22626  2.39078E-03 5.19658E-03-4.61022E-04 3.09816E-03 5.69850E-03-1.34029E-03 2.42924E-03 3.22218E-03-1.47926E-03



 n o d a l   p r i n t   o u t   f o r   t i m e  s t e p   14602                              ( at time 7.2997694E+00 )

 nodal point  x-disp     y-disp      z-disp      x-vel       y-vel       z-vel      x-accl      y-accl      z-accl      x-coor      y-coor      z-coor
    22626  6.46711E-02 3.32427E-02-2.23746E+01 9.99075E-02 1.06532E-01-2.41521E+00 1.02107E-01 6.50040E-02 5.62305E-01 4.80289E+01-2.19965E+01-1.50361E+01



 n o d a l   p r i n t   o u t   f o r   t i m e  s t e p   14602                              ( at time 7.2997694E+00 )

 nodal point  x-rot      y-rot       z-rot       x-rot vel   y-rot vel   z-rot vel   x-rot acc   y-rot acc   z-rot acc
    22626  2.71181E-03 5.78137E-03-5.99090E-04 3.34149E-03 5.99833E-03-1.45728E-03 2.43348E-03 2.99861E-03-1.17005E-03



 n o d a l   p r i n t   o u t   f o r   t i m e  s t e p   14802                              ( at time 7.3997594E+00 )

 nodal point  x-disp     y-disp      z-disp      x-vel       y-vel       z-vel      x-accl      y-accl      z-accl      x-coor      y-coor      z-coor
    22626  7.51631E-02 4.41191E-02-2.26132E+01 1.09489E-01 1.11947E-01-2.35705E+00 9.58241E-02 5.41462E-02 5.81659E-01 4.80393E+01-2.19857E+01-1.52747E+01



 n o d a l   p r i n t   o u t   f o r   t i m e  s t e p   14802                              ( at time 7.3997594E+00 )

 nodal point  x-rot      y-rot       z-rot       x-rot vel   y-rot vel   z-rot vel   x-rot acc   y-rot acc   z-rot acc
    22626  3.05856E-03 6.39574E-03-7.49267E-04 3.59650E-03 6.28350E-03-1.56317E-03 2.55043E-03 2.85204E-03-1.05902E-03



 n o d a l   p r i n t   o u t   f o r   t i m e  s t e p   15002                              ( at time 7.4997494E+00 )

 nodal point  x-disp     y-disp      z-disp      x-vel       y-vel       z-vel      x-accl      y-accl      z-accl      x-coor      y-coor      z-coor
    22626  8.65771E-02 5.56118E-02-2.28458E+01 1.19387E-01 1.16970E-01-2.29754E+00 9.89872E-02 5.02385E-02 5.95131E-01 4.80508E+01-2.19742E+01-1.55073E+01



 n o d a l   p r i n t   o u t   f o r   t i m e  s t e p   15002                              ( at time 7.4997494E+00 )

 nodal point  x-rot      y-rot       z-rot       x-rot vel   y-rot vel   z-rot vel   x-rot acc   y-rot acc   z-rot acc
    22626  3.43170E-03 7.03882E-03-9.11402E-04 3.86025E-03 6.56060E-03-1.65613E-03 2.63775E-03 2.77120E-03-9.29644E-04



 n o d a l   p r i n t   o u t   f o r   t i m e  s t e p   15202                              ( at time 7.5997394E+00 )

 nodal point  x-disp     y-disp      z-disp      x-vel       y-vel       z-vel      x-accl      y-accl      z-accl      x-coor      y-coor      z-coor
    22626  9.89457E-02 6.74987E-02-2.30725E+01 1.28801E-01 1.20986E-01-2.23403E+00 9.41525E-02 4.01682E-02 6.35235E-01 4.80631E+01-2.19623E+01-1.57340E+01



 n o d a l   p r i n t   o u t   f o r   t i m e  s t e p   15202                              ( at time 7.5997394E+00 )

 nodal point  x-rot      y-rot       z-rot       x-rot vel   y-rot vel   z-rot vel   x-rot acc   y-rot acc   z-rot acc
    22626  3.83199E-03 7.70853E-03-1.08362E-03 4.13987E-03 6.84938E-03-1.76518E-03 2.79649E-03 2.88815E-03-1.09068E-03



 n o d a l   p r i n t   o u t   f o r   t i m e  s t e p   15402                              ( at time 7.6997294E+00 )

 nodal point  x-disp     y-disp      z-disp      x-vel       y-vel       z-vel      x-accl      y-accl      z-accl      x-coor      y-coor      z-coor
    22626  1.12232E-01 7.97192E-02-2.32928E+01 1.36780E-01 1.24077E-01-2.17111E+00 7.97941E-02 3.09147E-02 6.29179E-01 4.80764E+01-2.19501E+01-1.59543E+01



 n o d a l   p r i n t   o u t   f o r   t i m e  s t e p   15402                              ( at time 7.6997294E+00 )

 nodal point  x-rot      y-rot       z-rot       x-rot vel   y-rot vel   z-rot vel   x-rot acc   y-rot acc   z-rot acc
    22626  4.26078E-03 8.40630E-03-1.26626E-03 4.44800E-03 7.12156E-03-1.87726E-03 3.08154E-03 2.72210E-03-1.12091E-03



 n o d a l   p r i n t   o u t   f o r   t i m e  s t e p   15602                              ( at time 7.7997194E+00 )

 nodal point  x-disp     y-disp      z-disp      x-vel       y-vel       z-vel      x-accl      y-accl      z-accl      x-coor      y-coor      z-coor
    22626  1.26341E-01 9.23118E-02-2.35066E+01 1.45347E-01 1.26953E-01-2.10752E+00 8.56801E-02 2.87619E-02 6.36022E-01 4.80905E+01-2.19375E+01-1.61681E+01



 n o d a l   p r i n t   o u t   f o r   t i m e  s t e p   15602                              ( at time 7.7997194E+00 )

 nodal point  x-rot      y-rot       z-rot       x-rot vel   y-rot vel   z-rot vel   x-rot acc   y-rot acc   z-rot acc
    22626  4.71978E-03 9.13103E-03-1.45958E-03 4.74585E-03 7.36312E-03-1.98178E-03 2.97879E-03 2.41583E-03-1.04523E-03



 n o d a l   p r i n t   o u t   f o r   t i m e  s t e p   15802                              ( at time 7.8997094E+00 )

 nodal point  x-disp     y-disp      z-disp      x-vel       y-vel       z-vel      x-accl      y-accl      z-accl      x-coor      y-coor      z-coor
    22626  1.41347E-01 1.05139E-01-2.37139E+01 1.54548E-01 1.28957E-01-2.03975E+00 9.20174E-02 2.00366E-02 6.77804E-01 4.81055E+01-2.19247E+01-1.63754E+01



 n o d a l   p r i n t   o u t   f o r   t i m e  s t e p   15802                              ( at time 7.8997094E+00 )

 nodal point  x-rot      y-rot       z-rot       x-rot vel   y-rot vel   z-rot vel   x-rot acc   y-rot acc   z-rot acc
    22626  5.20916E-03 9.87976E-03-1.66265E-03 5.04583E-03 7.61777E-03-2.07392E-03 3.00014E-03 2.54672E-03-9.21555E-04



 n o d a l   p r i n t   o u t   f o r   t i m e  s t e p   16002                              ( at time 7.9996994E+00 )

 nodal point  x-disp     y-disp      z-disp      x-vel       y-vel       z-vel      x-accl      y-accl      z-accl      x-coor      y-coor      z-coor
    22626  1.57197E-01 1.18145E-01-2.39145E+01 1.62078E-01 1.31509E-01-1.97259E+00 7.53149E-02 2.55210E-02 6.71577E-01 4.81214E+01-2.19116E+01-1.65760E+01



 n o d a l   p r i n t   o u t   f o r   t i m e  s t e p   16002                              ( at time 7.9996994E+00 )

 nodal point  x-rot      y-rot       z-rot       x-rot vel   y-rot vel   z-rot vel   x-rot acc   y-rot acc   z-rot acc
    22626  5.73030E-03 1.06527E-02-1.87442E-03 5.37105E-03 7.85169E-03-2.15214E-03 3.25250E-03 2.33947E-03-7.82291E-04



 n o d a l   p r i n t   o u t   f o r   t i m e  s t e p   16202                              ( at time 8.0996894E+00 )

 nodal point  x-disp     y-disp      z-disp      x-vel       y-vel       z-vel      x-accl      y-accl      z-accl      x-coor      y-coor      z-coor
    22626  1.73816E-01 1.31365E-01-2.41084E+01 1.70022E-01 1.32850E-01-1.90594E+00 7.94448E-02 1.34169E-02 6.66571E-01 4.81380E+01-2.18984E+01-1.67699E+01



 n o d a l   p r i n t   o u t   f o r   t i m e  s t e p   16202                              ( at time 8.0996894E+00 )

 nodal point  x-rot      y-rot       z-rot       x-rot vel   y-rot vel   z-rot vel   x-rot acc   y-rot acc   z-rot acc
    22626  6.28382E-03 1.14485E-02-2.09327E-03 5.69465E-03 8.06232E-03-2.22963E-03 3.23630E-03 2.10644E-03-7.74920E-04



 n o d a l   p r i n t   o u t   f o r   t i m e  s t e p   16402                              ( at time 8.1996794E+00 )

 nodal point  x-disp     y-disp      z-disp      x-vel       y-vel       z-vel      x-accl      y-accl      z-accl      x-coor      y-coor      z-coor
    22626  1.91253E-01 1.44692E-01-2.42955E+01 1.78700E-01 1.33597E-01-1.83692E+00 8.67918E-02 7.46653E-03 6.90308E-01 4.81554E+01-2.18851E+01-1.69570E+01



 n o d a l   p r i n t   o u t   f o r   t i m e  s t e p   16402                              ( at time 8.1996794E+00 )

 nodal point  x-rot      y-rot       z-rot       x-rot vel   y-rot vel   z-rot vel   x-rot acc   y-rot acc   z-rot acc
    22626  6.86962E-03 1.22660E-02-2.31972E-03 6.03460E-03 8.27179E-03-2.29741E-03 3.39993E-03 2.09498E-03-6.77883E-04



 n o d a l   p r i n t   o u t   f o r   t i m e  s t e p   16602                              ( at time 8.2996694E+00 )

 nodal point  x-disp     y-disp      z-disp      x-vel       y-vel       z-vel      x-accl      y-accl      z-accl      x-coor      y-coor      z-coor
    22626  2.09518E-01 1.58087E-01-2.44758E+01 1.87118E-01 1.34903E-01-1.76816E+00 8.41856E-02 1.30605E-02 6.87666E-01 4.81737E+01-2.18717E+01-1.71373E+01



 n o d a l   p r i n t   o u t   f o r   t i m e  s t e p   16602                              ( at time 8.2996694E+00 )

 nodal point  x-rot      y-rot       z-rot       x-rot vel   y-rot vel   z-rot vel   x-rot acc   y-rot acc   z-rot acc
    22626  7.48983E-03 1.31023E-02-2.55324E-03 6.37902E-03 8.44818E-03-2.37214E-03 3.44450E-03 1.76401E-03-7.47369E-04



 n o d a l   p r i n t   o u t   f o r   t i m e  s t e p   16802                              ( at time 8.3996594E+00 )

 nodal point  x-disp     y-disp      z-disp      x-vel       y-vel       z-vel      x-accl      y-accl      z-accl      x-coor      y-coor      z-coor
    22626  2.28553E-01 1.71442E-01-2.46491E+01 1.94244E-01 1.32245E-01-1.69820E+00 7.12698E-02-2.65802E-02 6.99721E-01 4.81927E+01-2.18583E+01-1.73106E+01



 n o d a l   p r i n t   o u t   f o r   t i m e  s t e p   16802                              ( at time 8.3996594E+00 )

 nodal point  x-rot      y-rot       z-rot       x-rot vel   y-rot vel   z-rot vel   x-rot acc   y-rot acc   z-rot acc
    22626  8.14412E-03 1.39560E-02-2.79314E-03 6.72033E-03 8.62090E-03-2.41268E-03 3.41342E-03 1.72744E-03-4.05448E-04



 n o d a l   p r i n t   o u t   f o r   t i m e  s t e p   17002                              ( at time 8.4996494E+00 )

 nodal point  x-disp     y-disp      z-disp      x-vel       y-vel       z-vel      x-accl      y-accl      z-accl      x-coor      y-coor      z-coor
    22626  2.48342E-01 1.84582E-01-2.48152E+01 2.01834E-01 1.29584E-01-1.62609E+00 7.59002E-02-2.66157E-02 7.21117E-01 4.82125E+01-2.18452E+01-1.74767E+01



 n o d a l   p r i n t   o u t   f o r   t i m e  s t e p   17002                              ( at time 8.4996494E+00 )

 nodal point  x-rot      y-rot       z-rot       x-rot vel   y-rot vel   z-rot vel   x-rot acc   y-rot acc   z-rot acc
    22626  8.83409E-03 1.48253E-02-3.03950E-03 7.09122E-03 8.77400E-03-2.48996E-03 3.70933E-03 1.53113E-03-7.72915E-04



 n o d a l   p r i n t   o u t   f o r   t i m e  s t e p   17202                              ( at time 8.5996394E+00 )

 nodal point  x-disp     y-disp      z-disp      x-vel       y-vel       z-vel      x-accl      y-accl      z-accl      x-coor      y-coor      z-coor
    22626  2.68886E-01 1.97358E-01-2.49742E+01 2.09578E-01 1.25442E-01-1.55262E+00 7.74529E-02-4.14212E-02 7.34758E-01 4.82331E+01-2.18324E+01-1.76357E+01



 n o d a l   p r i n t   o u t   f o r   t i m e  s t e p   17202                              ( at time 8.5996394E+00 )

 nodal point  x-rot      y-rot       z-rot       x-rot vel   y-rot vel   z-rot vel   x-rot acc   y-rot acc   z-rot acc
    22626  9.56060E-03 1.57084E-02-3.29275E-03 7.44012E-03 8.88232E-03-2.55684E-03 3.48929E-03 1.08332E-03-6.68829E-04



 n o d a l   p r i n t   o u t   f o r   t i m e  s t e p   17402                              ( at time 8.6996293E+00 )

 nodal point  x-disp     y-disp      z-disp      x-vel       y-vel       z-vel      x-accl      y-accl      z-accl      x-coor      y-coor      z-coor
    22626  2.90173E-01 2.09678E-01-2.51256E+01 2.15659E-01 1.21120E-01-1.47675E+00 6.08121E-02-4.32260E-02 7.58838E-01 4.82544E+01-2.18201E+01-1.77871E+01



 n o d a l   p r i n t   o u t   f o r   t i m e  s t e p   17402                              ( at time 8.6996293E+00 )

 nodal point  x-rot      y-rot       z-rot       x-rot vel   y-rot vel   z-rot vel   x-rot acc   y-rot acc   z-rot acc
    22626  1.03241E-02 1.66019E-02-3.55191E-03 7.84483E-03 9.00202E-03-2.61241E-03 4.04747E-03 1.19706E-03-5.55745E-04



 n o d a l   p r i n t   o u t   f o r   t i m e  s t e p   17602                              ( at time 8.7996193E+00 )

 nodal point  x-disp     y-disp      z-disp      x-vel       y-vel       z-vel      x-accl      y-accl      z-accl      x-coor      y-coor      z-coor
    22626  3.12079E-01 2.21475E-01-2.52695E+01 2.21716E-01 1.14655E-01-1.39983E+00 6.05826E-02-6.46521E-02 7.69254E-01 4.82763E+01-2.18083E+01-1.79310E+01



 n o d a l   p r i n t   o u t   f o r   t i m e  s t e p   17602                              ( at time 8.7996193E+00 )

 nodal point  x-rot      y-rot       z-rot       x-rot vel   y-rot vel   z-rot vel   x-rot acc   y-rot acc   z-rot acc
    22626  1.11269E-02 1.75076E-02-3.81765E-03 8.20975E-03 9.11312E-03-2.67973E-03 3.64959E-03 1.11118E-03-6.73247E-04



 n o d a l   p r i n t   o u t   f o r   t i m e  s t e p   17802                              ( at time 8.8996093E+00 )

 nodal point  x-disp     y-disp      z-disp      x-vel       y-vel       z-vel      x-accl      y-accl      z-accl      x-coor      y-coor      z-coor
    22626  3.34755E-01 2.32602E-01-2.54055E+01 2.29793E-01 1.08172E-01-1.32124E+00 8.07737E-02-6.48344E-02 7.85926E-01 4.82989E+01-2.17972E+01-1.80670E+01



 n o d a l   p r i n t   o u t   f o r   t i m e  s t e p   17802                              ( at time 8.8996093E+00 )

 nodal point  x-rot      y-rot       z-rot       x-rot vel   y-rot vel   z-rot vel   x-rot acc   y-rot acc   z-rot acc
    22626  1.19686E-02 1.84225E-02-4.08950E-03 8.62421E-03 9.18955E-03-2.74700E-03 4.14501E-03 7.64386E-04-6.72762E-04



 n o d a l   p r i n t   o u t   f o r   t i m e  s t e p   18002                              ( at time 8.9995993E+00 )

 nodal point  x-disp     y-disp      z-disp      x-vel       y-vel       z-vel      x-accl      y-accl      z-accl      x-coor      y-coor      z-coor
    22626  3.58121E-01 2.43034E-01-2.55336E+01 2.37110E-01 1.01780E-01-1.24119E+00 7.31793E-02-6.39345E-02 8.00625E-01 4.83223E+01-2.17868E+01-1.81951E+01



 n o d a l   p r i n t   o u t   f o r   t i m e  s t e p   18002                              ( at time 8.9995993E+00 )

 nodal point  x-rot      y-rot       z-rot       x-rot vel   y-rot vel   z-rot vel   x-rot acc   y-rot acc   z-rot acc
    22626  1.28511E-02 1.93447E-02-4.36658E-03 9.01782E-03 9.26096E-03-2.80674E-03 3.93657E-03 7.14099E-04-5.97529E-04



 n o d a l   p r i n t   o u t   f o r   t i m e  s t e p   18202                              ( at time 9.0995893E+00 )

 nodal point  x-disp     y-disp      z-disp      x-vel       y-vel       z-vel      x-accl      y-accl      z-accl      x-coor      y-coor      z-coor
    22626  3.82224E-01 2.52901E-01-2.56538E+01 2.44120E-01 9.53154E-02-1.16446E+00 7.01097E-02-6.46491E-02 7.67340E-01 4.83464E+01-2.17769E+01-1.83153E+01



 n o d a l   p r i n t   o u t   f o r   t i m e  s t e p   18202                              ( at time 9.0995893E+00 )

 nodal point  x-rot      y-rot       z-rot       x-rot vel   y-rot vel   z-rot vel   x-rot acc   y-rot acc   z-rot acc
    22626  1.37742E-02 2.02756E-02-4.65006E-03 9.43681E-03 9.36234E-03-2.86253E-03 4.19026E-03 1.01393E-03-5.57886E-04



 n o d a l   p r i n t   o u t   f o r   t i m e  s t e p   18402                              ( at time 9.1995793E+00 )

 nodal point  x-disp     y-disp      z-disp      x-vel       y-vel       z-vel      x-accl      y-accl      z-accl      x-coor      y-coor      z-coor
    22626  4.06953E-01 2.62131E-01-2.57663E+01 2.50785E-01 8.81297E-02-1.08582E+00 6.66564E-02-7.18633E-02 7.86457E-01 4.83711E+01-2.17677E+01-1.84278E+01



 n o d a l   p r i n t   o u t   f o r   t i m e  s t e p   18402                              ( at time 9.1995793E+00 )

 nodal point  x-rot      y-rot       z-rot       x-rot vel   y-rot vel   z-rot vel   x-rot acc   y-rot acc   z-rot acc
    22626  1.47379E-02 2.12166E-02-4.93924E-03 9.81456E-03 9.45061E-03-2.89549E-03 3.77787E-03 8.82741E-04-3.29649E-04



 n o d a l   p r i n t   o u t   f o r   t i m e  s t e p   18602                              ( at time 9.2995693E+00 )

 nodal point  x-disp     y-disp      z-disp      x-vel       y-vel       z-vel      x-accl      y-accl      z-accl      x-coor      y-coor      z-coor
    22626  4.32405E-01 2.70708E-01-2.58710E+01 2.58497E-01 8.35255E-02-1.00931E+00 7.71261E-02-4.60468E-02 7.65273E-01 4.83966E+01-2.17591E+01-1.85325E+01



 n o d a l   p r i n t   o u t   f o r   t i m e  s t e p   18602                              ( at time 9.2995693E+00 )

 nodal point  x-rot      y-rot       z-rot       x-rot vel   y-rot vel   z-rot vel   x-rot acc   y-rot acc   z-rot acc
    22626  1.57406E-02 2.21638E-02-5.23334E-03 1.02302E-02 9.52982E-03-2.96455E-03 4.15643E-03 7.92207E-04-6.90659E-04



 n o d a l   p r i n t   o u t   f o r   t i m e  s t e p   18802                              ( at time 9.3995593E+00 )

 nodal point  x-disp     y-disp      z-disp      x-vel       y-vel       z-vel      x-accl      y-accl      z-accl      x-coor      y-coor      z-coor
    22626  4.58475E-01 2.78793E-01-2.59682E+01 2.63582E-01 7.74411E-02-9.34727E-01 5.08571E-02-6.08506E-02 7.45859E-01 4.84227E+01-2.17510E+01-1.86297E+01



 n o d a l   p r i n t   o u t   f o r   t i m e  s t e p   18802                              ( at time 9.3995593E+00 )

 nodal point  x-rot      y-rot       z-rot       x-rot vel   y-rot vel   z-rot vel   x-rot acc   y-rot acc   z-rot acc
    22626  1.67840E-02 2.31213E-02-5.53303E-03 1.06238E-02 9.63021E-03-3.01850E-03 3.93715E-03 1.00407E-03-5.39560E-04



 n o d a l   p r i n t   o u t   f o r   t i m e  s t e p   19002                              ( at time 9.4995493E+00 )

 nodal point  x-disp     y-disp      z-disp      x-vel       y-vel       z-vel      x-accl      y-accl      z-accl      x-coor      y-coor      z-coor
    22626  4.85152E-01 2.86246E-01-2.60579E+01 2.70584E-01 7.27233E-02-8.61379E-01 7.00202E-02-4.71822E-02 7.33551E-01 4.84493E+01-2.17435E+01-1.87194E+01



 n o d a l   p r i n t   o u t   f o r   t i m e  s t e p   19002                              ( at time 9.4995493E+00 )

 nodal point  x-rot      y-rot       z-rot       x-rot vel   y-rot vel   z-rot vel   x-rot acc   y-rot acc   z-rot acc
    22626  1.78661E-02 2.40873E-02-5.83683E-03 1.10294E-02 9.68075E-03-3.06438E-03 4.05652E-03 5.05452E-04-4.58904E-04



 n o d a l   p r i n t   o u t   f o r   t i m e  s t e p   19202                              ( at time 9.5995393E+00 )

 nodal point  x-disp     y-disp      z-disp      x-vel       y-vel       z-vel      x-accl      y-accl      z-accl      x-coor      y-coor      z-coor
    22626  5.12535E-01 2.93436E-01-2.61404E+01 2.76980E-01 6.95844E-02-7.88903E-01 6.39643E-02-3.13919E-02 7.24827E-01 4.84767E+01-2.17364E+01-1.88019E+01



 n o d a l   p r i n t   o u t   f o r   t i m e  s t e p   19202                              ( at time 9.5995393E+00 )

 nodal point  x-rot      y-rot       z-rot       x-rot vel   y-rot vel   z-rot vel   x-rot acc   y-rot acc   z-rot acc
    22626  1.89891E-02 2.50597E-02-6.14697E-03 1.14248E-02 9.79435E-03-3.12139E-03 3.95410E-03 1.13605E-03-5.70108E-04



 n o d a l   p r i n t   o u t   f o r   t i m e  s t e p   19402                              ( at time 9.6995293E+00 )

 nodal point  x-disp     y-disp      z-disp      x-vel       y-vel       z-vel      x-accl      y-accl      z-accl      x-coor      y-coor      z-coor
    22626  5.40569E-01 3.00139E-01-2.62157E+01 2.84146E-01 6.52040E-02-7.18797E-01 7.16720E-02-4.38086E-02 7.01132E-01 4.85047E+01-2.17297E+01-1.88772E+01



 n o d a l   p r i n t   o u t   f o r   t i m e  s t e p   19402                              ( at time 9.6995293E+00 )

 nodal point  x-rot      y-rot       z-rot       x-rot vel   y-rot vel   z-rot vel   x-rot acc   y-rot acc   z-rot acc
    22626  2.01506E-02 2.60412E-02-6.46114E-03 1.18113E-02 9.84002E-03-3.15138E-03 3.86524E-03 4.56729E-04-2.99895E-04



 n o d a l   p r i n t   o u t   f o r   t i m e  s t e p   19602                              ( at time 9.7995193E+00 )

 nodal point  x-disp     y-disp      z-disp      x-vel       y-vel       z-vel      x-accl      y-accl      z-accl      x-coor      y-coor      z-coor
    22626  5.69247E-01 3.06559E-01-2.62840E+01 2.88993E-01 6.29726E-02-6.48255E-01 4.84742E-02-2.23164E-02 7.05492E-01 4.85334E+01-2.17232E+01-1.89455E+01



 n o d a l   p r i n t   o u t   f o r   t i m e  s t e p   19602                              ( at time 9.7995193E+00 )

 nodal point  x-rot      y-rot       z-rot       x-rot vel   y-rot vel   z-rot vel   x-rot acc   y-rot acc   z-rot acc
    22626  2.13505E-02 2.70297E-02-6.77940E-03 1.22125E-02 9.93598E-03-3.21829E-03 4.01255E-03 9.59769E-04-6.69260E-04



 n o d a l   p r i n t   o u t   f o r   t i m e  s t e p   19802                              ( at time 9.8995093E+00 )

 nodal point  x-disp     y-disp      z-disp      x-vel       y-vel       z-vel      x-accl      y-accl      z-accl      x-coor      y-coor      z-coor
    22626  5.98625E-01 3.12812E-01-2.63456E+01 2.97892E-01 6.17571E-02-5.81029E-01 8.90008E-02-1.21568E-02 6.72332E-01 4.85628E+01-2.17170E+01-1.90071E+01



 n o d a l   p r i n t   o u t   f o r   t i m e  s t e p   19802                              ( at time 9.8995093E+00 )

 nodal point  x-rot      y-rot       z-rot       x-rot vel   y-rot vel   z-rot vel   x-rot acc   y-rot acc   z-rot acc
    22626  2.25919E-02 2.80251E-02-7.10510E-03 1.25874E-02 9.99898E-03-3.27369E-03 3.74921E-03 6.30020E-04-5.53972E-04



 n o d a l   p r i n t   o u t   f o r   t i m e  s t e p   20003                              ( at time 9.9999992E+00 )

 nodal point  x-disp     y-disp      z-disp      x-vel       y-vel       z-vel      x-accl      y-accl      z-accl      x-coor      y-coor      z-coor
[...]
    22626  2.51523E-01 1.51064E-01-6.96478E-02 1.78986E-02 7.98147E-03-6.03863E-03 6.92036E-05 1.38156E-04 3.42386E-04



 n o d a l   p r i n t   o u t   f o r   t i m e  s t e p   45205                              ( at time 2.2599738E+01 )

 nodal point  x-disp     y-disp      z-disp      x-vel       y-vel       z-vel      x-accl      y-accl      z-accl      x-coor      y-coor      z-coor
    22626  4.61795E+00 5.73109E-01-2.10186E+01 2.70609E-01-9.32967E-02 4.45061E-01 9.83567E-03-2.02379E-02 5.88352E-04 5.25821E+01-2.14567E+01-1.36801E+01



 n o d a l   p r i n t   o u t   f o r   t i m e  s t e p   45205                              ( at time 2.2599738E+01 )

 nodal point  x-rot      y-rot       z-rot       x-rot vel   y-rot vel   z-rot vel   x-rot acc   y-rot acc   z-rot acc
    22626  2.53312E-01 1.51862E-01-7.02496E-02 1.78974E-02 7.99553E-03-6.00410E-03-1.18848E-05 1.40661E-04 3.45333E-04



 n o d a l   p r i n t   o u t   f o r   t i m e  s t e p   45405                              ( at time 2.2699728E+01 )

 nodal point  x-disp     y-disp      z-disp      x-vel       y-vel       z-vel      x-accl      y-accl      z-accl      x-coor      y-coor      z-coor
    22626  4.64512E+00 5.63642E-01-2.09741E+01 2.72465E-01-9.59341E-02 4.44529E-01 1.85612E-02-2.63766E-02-5.31881E-03 5.26093E+01-2.14661E+01-1.36356E+01



 n o d a l   p r i n t   o u t   f o r   t i m e  s t e p   45405                              ( at time 2.2699728E+01 )

 nodal point  x-rot      y-rot       z-rot       x-rot vel   y-rot vel   z-rot vel   x-rot acc   y-rot acc   z-rot acc
    22626  2.55102E-01 1.52662E-01-7.08476E-02 1.78923E-02 8.00158E-03-5.96116E-03-5.13029E-05 6.04309E-05 4.29429E-04



 n o d a l   p r i n t   o u t   f o r   t i m e  s t e p   45605                              ( at time 2.2799718E+01 )

 nodal point  x-disp     y-disp      z-disp      x-vel       y-vel       z-vel      x-accl      y-accl      z-accl      x-coor      y-coor      z-coor
    22626  4.67245E+00 5.53924E-01-2.09296E+01 2.73916E-01-9.83902E-02 4.44545E-01 1.45076E-02-2.45636E-02 1.57669E-04 5.26366E+01-2.14759E+01-1.35911E+01



 n o d a l   p r i n t   o u t   f o r   t i m e  s t e p   45605                              ( at time 2.2799718E+01 )

 nodal point  x-rot      y-rot       z-rot       x-rot vel   y-rot vel   z-rot vel   x-rot acc   y-rot acc   z-rot acc
    22626  2.56890E-01 1.53463E-01-7.14419E-02 1.78908E-02 8.01970E-03-5.92870E-03-1.55545E-05 1.81280E-04 3.24647E-04



 n o d a l   p r i n t   o u t   f o r   t i m e  s t e p   45805                              ( at time 2.2899708E+01 )

 nodal point  x-disp     y-disp      z-disp      x-vel       y-vel       z-vel      x-accl      y-accl      z-accl      x-coor      y-coor      z-coor
    22626  4.69993E+00 5.43991E-01-2.08852E+01 2.75714E-01-1.00377E-01 4.44198E-01 1.79811E-02-1.98704E-02-3.46461E-03 5.26641E+01-2.14858E+01-1.35467E+01



 n o d a l   p r i n t   o u t   f o r   t i m e  s t e p   45805                              ( at time 2.2899708E+01 )

 nodal point  x-rot      y-rot       z-rot       x-rot vel   y-rot vel   z-rot vel   x-rot acc   y-rot acc   z-rot acc
    22626  2.58680E-01 1.54265E-01-7.20326E-02 1.78970E-02 8.02984E-03-5.88450E-03 6.24614E-05 1.01414E-04 4.42096E-04



 n o d a l   p r i n t   o u t   f o r   t i m e  s t e p   46005                              ( at time 2.2999698E+01 )

 nodal point  x-disp     y-disp      z-disp      x-vel       y-vel       z-vel      x-accl      y-accl      z-accl      x-coor      y-coor      z-coor
    22626  4.72756E+00 5.33818E-01-2.08408E+01 2.77292E-01-1.03110E-01 4.43835E-01 1.57856E-02-2.73359E-02-3.63443E-03 5.26917E+01-2.14960E+01-1.35023E+01



 n o d a l   p r i n t   o u t   f o r   t i m e  s t e p   46005                              ( at time 2.2999698E+01 )

 nodal point  x-rot      y-rot       z-rot       x-rot vel   y-rot vel   z-rot vel   x-rot acc   y-rot acc   z-rot acc
    22626  2.60469E-01 1.55069E-01-7.26187E-02 1.78938E-02 8.04039E-03-5.84474E-03-3.23385E-05 1.05510E-04 3.97590E-04



 n o d a l   p r i n t   o u t   f o r   t i m e  s t e p   46205                              ( at time 2.3099688E+01 )

 nodal point  x-disp     y-disp      z-disp      x-vel       y-vel       z-vel      x-accl      y-accl      z-accl      x-coor      y-coor      z-coor
    22626  4.75536E+00 5.23381E-01-2.07964E+01 2.78815E-01-1.05571E-01 4.43250E-01 1.52241E-02-2.46088E-02-5.84667E-03 5.27195E+01-2.15064E+01-1.34579E+01



 n o d a l   p r i n t   o u t   f o r   t i m e  s t e p   46205                              ( at time 2.3099688E+01 )

 nodal point  x-rot      y-rot       z-rot       x-rot vel   y-rot vel   z-rot vel   x-rot acc   y-rot acc   z-rot acc
    22626  2.62259E-01 1.55873E-01-7.32009E-02 1.79094E-02 8.04827E-03-5.80662E-03 1.56461E-04 7.87334E-05 3.81256E-04



 n o d a l   p r i n t   o u t   f o r   t i m e  s t e p   46405                              ( at time 2.3199678E+01 )

 nodal point  x-disp     y-disp      z-disp      x-vel       y-vel       z-vel      x-accl      y-accl      z-accl      x-coor      y-coor      z-coor
    22626  4.78333E+00 5.12698E-01-2.07521E+01 2.80420E-01-1.07923E-01 4.42995E-01 1.60596E-02-2.35248E-02-2.55191E-03 5.27475E+01-2.15171E+01-1.34136E+01



 n o d a l   p r i n t   o u t   f o r   t i m e  s t e p   46405                              ( at time 2.3199678E+01 )

 nodal point  x-rot      y-rot       z-rot       x-rot vel   y-rot vel   z-rot vel   x-rot acc   y-rot acc   z-rot acc
    22626  2.64050E-01 1.56679E-01-7.37793E-02 1.79112E-02 8.06020E-03-5.76602E-03 1.78085E-05 1.19360E-04 4.06033E-04



 n o d a l   p r i n t   o u t   f o r   t i m e  s t e p   46605                              ( at time 2.3299668E+01 )

 nodal point  x-disp     y-disp      z-disp      x-vel       y-vel       z-vel      x-accl      y-accl      z-accl      x-coor      y-coor      z-coor
    22626  4.81144E+00 5.01817E-01-2.07079E+01 2.81811E-01-1.09794E-01 4.41360E-01 1.39106E-02-1.87094E-02-1.63540E-02 5.27756E+01-2.15280E+01-1.33694E+01



 n o d a l   p r i n t   o u t   f o r   t i m e  s t e p   46605                              ( at time 2.3299668E+01 )

 nodal point  x-rot      y-rot       z-rot       x-rot vel   y-rot vel   z-rot vel   x-rot acc   y-rot acc   z-rot acc
    22626  2.65842E-01 1.57485E-01-7.43536E-02 1.79278E-02 8.06747E-03-5.71812E-03 1.65663E-04 7.26605E-05 4.79046E-04



 n o d a l   p r i n t   o u t   f o r   t i m e  s t e p   46805                              ( at time 2.3399658E+01 )

 nodal point  x-disp     y-disp      z-disp      x-vel       y-vel       z-vel      x-accl      y-accl      z-accl      x-coor      y-coor      z-coor
    22626  4.83969E+00 4.90744E-01-2.06638E+01 2.83342E-01-1.11727E-01 4.40960E-01 1.53112E-02-1.93370E-02-4.00371E-03 5.28039E+01-2.15390E+01-1.33253E+01



 n o d a l   p r i n t   o u t   f o r   t i m e  s t e p   46805                              ( at time 2.3399658E+01 )

 nodal point  x-rot      y-rot       z-rot       x-rot vel   y-rot vel   z-rot vel   x-rot acc   y-rot acc   z-rot acc
    22626  2.67636E-01 1.58292E-01-7.49237E-02 1.79481E-02 8.07814E-03-5.68399E-03 2.03941E-04 1.06795E-04 3.41347E-04



 n o d a l   p r i n t   o u t   f o r   t i m e  s t e p   47005                              ( at time 2.3499648E+01 )

 nodal point  x-disp     y-disp      z-disp      x-vel       y-vel       z-vel      x-accl      y-accl      z-accl      x-coor      y-coor      z-coor
    22626  4.86809E+00 4.79447E-01-2.06198E+01 2.84759E-01-1.13957E-01 4.39760E-01 1.41678E-02-2.22993E-02-1.20004E-02 5.28323E+01-2.15503E+01-1.32813E+01



 n o d a l   p r i n t   o u t   f o r   t i m e  s t e p   47005                              ( at time 2.3499648E+01 )

 nodal point  x-rot      y-rot       z-rot       x-rot vel   y-rot vel   z-rot vel   x-rot acc   y-rot acc   z-rot acc
    22626  2.69431E-01 1.59100E-01-7.54903E-02 1.79655E-02 8.07996E-03-5.64918E-03 1.73037E-04 1.81345E-05 3.48118E-04



 n o d a l   p r i n t   o u t   f o r   t i m e  s t e p   47205                              ( at time 2.3599638E+01 )

 nodal point  x-disp     y-disp      z-disp      x-vel       y-vel       z-vel      x-accl      y-accl      z-accl      x-coor      y-coor      z-coor
    22626  4.89665E+00 4.67983E-01-2.05759E+01 2.86158E-01-1.15159E-01 4.38145E-01 1.39890E-02-1.20216E-02-1.61454E-02 5.28608E+01-2.15618E+01-1.32374E+01



 n o d a l   p r i n t   o u t   f o r   t i m e  s t e p   47205                              ( at time 2.3599638E+01 )

 nodal point  x-rot      y-rot       z-rot       x-rot vel   y-rot vel   z-rot vel   x-rot acc   y-rot acc   z-rot acc
    22626  2.71228E-01 1.59908E-01-7.60528E-02 1.79821E-02 8.08958E-03-5.60760E-03 1.66297E-04 9.62349E-05 4.15821E-04



 n o d a l   p r i n t   o u t   f o r   t i m e  s t e p   47405                              ( at time 2.3699628E+01 )

 nodal point  x-disp     y-disp      z-disp      x-vel       y-vel       z-vel      x-accl      y-accl      z-accl      x-coor      y-coor      z-coor
    22626  4.92532E+00 4.56416E-01-2.05321E+01 2.87496E-01-1.16339E-01 4.36888E-01 1.33804E-02-1.18024E-02-1.25706E-02 5.28895E+01-2.15734E+01-1.31936E+01



 n o d a l   p r i n t   o u t   f o r   t i m e  s t e p   47405                              ( at time 2.3699628E+01 )

 nodal point  x-rot      y-rot       z-rot       x-rot vel   y-rot vel   z-rot vel   x-rot acc   y-rot acc   z-rot acc
    22626  2.73027E-01 1.60717E-01-7.66115E-02 1.79967E-02 8.09699E-03-5.56780E-03 1.46492E-04 7.40656E-05 3.98079E-04



 n o d a l   p r i n t   o u t   f o r   t i m e  s t e p   47605                              ( at time 2.3799618E+01 )

 nodal point  x-disp     y-disp      z-disp      x-vel       y-vel       z-vel      x-accl      y-accl      z-accl      x-coor      y-coor      z-coor
    22626  4.95414E+00 4.44740E-01-2.04885E+01 2.89011E-01-1.17362E-01 4.35529E-01 1.51544E-02-1.02256E-02-1.35961E-02 5.29183E+01-2.15851E+01-1.31500E+01



 n o d a l   p r i n t   o u t   f o r   t i m e  s t e p   47605                              ( at time 2.3799618E+01 )

 nodal point  x-rot      y-rot       z-rot       x-rot vel   y-rot vel   z-rot vel   x-rot acc   y-rot acc   z-rot acc
    22626  2.74828E-01 1.61527E-01-7.71669E-02 1.80181E-02 8.09938E-03-5.53625E-03 2.13576E-04 2.39842E-05 3.15553E-04



 n o d a l   p r i n t   o u t   f o r   t i m e  s t e p   47805                              ( at time 2.3899608E+01 )

 nodal point  x-disp     y-disp      z-disp      x-vel       y-vel       z-vel      x-accl      y-accl      z-accl      x-coor      y-coor      z-coor
    22626  4.98307E+00 4.33002E-01-2.04451E+01 2.90010E-01-1.17306E-01 4.33627E-01 9.98946E-03 5.63166E-04-1.90156E-02 5.29473E+01-2.15968E+01-1.31066E+01



 n o d a l   p r i n t   o u t   f o r   t i m e  s t e p   47805                              ( at time 2.3899608E+01 )

 nodal point  x-rot      y-rot       z-rot       x-rot vel   y-rot vel   z-rot vel   x-rot acc   y-rot acc   z-rot acc
    22626  2.76630E-01 1.62337E-01-7.77190E-02 1.80339E-02 8.10181E-03-5.50813E-03 1.58600E-04 2.42166E-05 2.81178E-04



 n o d a l   p r i n t   o u t   f o r   t i m e  s t e p   48005                              ( at time 2.3999598E+01 )

 nodal point  x-disp     y-disp      z-disp      x-vel       y-vel       z-vel      x-accl      y-accl      z-accl      x-coor      y-coor      z-coor
    22626  5.01209E+00 4.21246E-01-2.04018E+01 2.90435E-01-1.17405E-01 4.32098E-01 4.25594E-03-9.98488E-04-1.52989E-02 5.29763E+01-2.16085E+01-1.30633E+01



 n o d a l   p r i n t   o u t   f o r   t i m e  s t e p   48005                              ( at time 2.3999598E+01 )

 nodal point  x-rot      y-rot       z-rot       x-rot vel   y-rot vel   z-rot vel   x-rot acc   y-rot acc   z-rot acc
    22626  2.78435E-01 1.63148E-01-7.82679E-02 1.80609E-02 8.10680E-03-5.47679E-03 2.69629E-04 4.99710E-05 3.13457E-04



 n o d a l   p r i n t   o u t   f o r   t i m e  s t e p   48205                              ( at time 2.4099588E+01 )

 nodal point  x-disp     y-disp      z-disp      x-vel       y-vel       z-vel      x-accl      y-accl      z-accl      x-coor      y-coor      z-coor
    22626  5.04120E+00 4.09509E-01-2.03587E+01 2.91504E-01-1.17321E-01 4.29829E-01 1.06887E-02 8.42887E-04-2.26867E-02 5.30054E+01-2.16203E+01-1.30202E+01



 n o d a l   p r i n t   o u t   f o r   t i m e  s t e p   48205                              ( at time 2.4099588E+01 )

 nodal point  x-rot      y-rot       z-rot       x-rot vel   y-rot vel   z-rot vel   x-rot acc   y-rot acc   z-rot acc
    22626  2.80242E-01 1.63958E-01-7.88143E-02 1.80837E-02 8.10918E-03-5.45300E-03 2.27524E-04 2.37882E-05 2.37942E-04



 n o d a l   p r i n t   o u t   f o r   t i m e  s t e p   48405                              ( at time 2.4199578E+01 )

 nodal point  x-disp     y-disp      z-disp      x-vel       y-vel       z-vel      x-accl      y-accl      z-accl      x-coor      y-coor      z-coor
    22626  5.07040E+00 3.97810E-01-2.03158E+01 2.92313E-01-1.16477E-01 4.27785E-01 8.09431E-03 8.44080E-03-2.04467E-02 5.30346E+01-2.16320E+01-1.29773E+01



 n o d a l   p r i n t   o u t   f o r   t i m e  s t e p   48405                              ( at time 2.4199578E+01 )

 nodal point  x-rot      y-rot       z-rot       x-rot vel   y-rot vel   z-rot vel   x-rot acc   y-rot acc   z-rot acc
    22626  2.82051E-01 1.64769E-01-7.93587E-02 1.81048E-02 8.10383E-03-5.42736E-03 2.11415E-04-5.35477E-05 2.56361E-04



 n o d a l   p r i n t   o u t   f o r   t i m e  s t e p   48605                              ( at time 2.4299568E+01 )

 nodal point  x-disp     y-disp      z-disp      x-vel       y-vel       z-vel      x-accl      y-accl      z-accl      x-coor      y-coor      z-coor
    22626  5.09962E+00 3.86239E-01-2.02732E+01 2.92534E-01-1.15217E-01 4.25393E-01 2.20259E-03 1.26004E-02-2.39221E-02 5.30638E+01-2.16436E+01-1.29347E+01



 n o d a l   p r i n t   o u t   f o r   t i m e  s t e p   48605                              ( at time 2.4299568E+01 )

 nodal point  x-rot      y-rot       z-rot       x-rot vel   y-rot vel   z-rot vel   x-rot acc   y-rot acc   z-rot acc
    22626  2.83863E-01 1.65579E-01-7.99007E-02 1.81396E-02 8.10328E-03-5.40897E-03 3.48496E-04-5.50462E-06 1.83972E-04



 n o d a l   p r i n t   o u t   f o r   t i m e  s t e p   48805                              ( at time 2.4399558E+01 )

 nodal point  x-disp     y-disp      z-disp      x-vel       y-vel       z-vel      x-accl      y-accl      z-accl      x-coor      y-coor      z-coor
    22626  5.12888E+00 3.74765E-01-2.02307E+01 2.92671E-01-1.14313E-01 4.23001E-01 1.36924E-03 9.04419E-03-2.39221E-02 5.30931E+01-2.16550E+01-1.28922E+01



 n o d a l   p r i n t   o u t   f o r   t i m e  s t e p   48805                              ( at time 2.4399558E+01 )

 nodal point  x-rot      y-rot       z-rot       x-rot vel   y-rot vel   z-rot vel   x-rot acc   y-rot acc   z-rot acc
    22626  2.85678E-01 1.66390E-01-8.04412E-02 1.81597E-02 8.10575E-03-5.39537E-03 2.00998E-04 2.47661E-05 1.36018E-04



 n o d a l   p r i n t   o u t   f o r   t i m e  s t e p   49006                              ( at time 2.4500048E+01 )

 nodal point  x-disp     y-disp      z-disp      x-vel       y-vel       z-vel      x-accl      y-accl      z-accl      x-coor      y-coor      z-coor
    22626  5.15834E+00 3.63370E-01-2.01883E+01 2.93126E-01-1.12440E-01 4.20477E-01 4.53195E-03 1.86407E-02-2.51168E-02 5.31225E+01-2.16664E+01-1.28498E+01



 n o d a l   p r i n t   o u t   f o r   t i m e  s t e p   49006                              ( at time 2.4500048E+01 )

 nodal point  x-rot      y-rot       z-rot       x-rot vel   y-rot vel   z-rot vel   x-rot acc   y-rot acc   z-rot acc
    22626  2.87503E-01 1.67203E-01-8.09828E-02 1.81822E-02 8.09465E-03-5.38661E-03 2.23468E-04-1.10502E-04 8.71603E-05



 n o d a l   p r i n t   o u t   f o r   t i m e  s t e p   49206                              ( at time 2.4600038E+01 )

 nodal point  x-disp     y-disp      z-disp      x-vel       y-vel       z-vel      x-accl      y-accl      z-accl      x-coor      y-coor      z-coor
    22626  5.18762E+00 3.52221E-01-2.01464E+01 2.92721E-01-1.10451E-01 4.18367E-01-4.04902E-03 1.98851E-02-2.10996E-02 5.31518E+01-2.16776E+01-1.28079E+01



 n o d a l   p r i n t   o u t   f o r   t i m e  s t e p   49206                              ( at time 2.4600038E+01 )

 nodal point  x-rot      y-rot       z-rot       x-rot vel   y-rot vel   z-rot vel   x-rot acc   y-rot acc   z-rot acc
    22626  2.89323E-01 1.68013E-01-8.15210E-02 1.82082E-02 8.09588E-03-5.37961E-03 2.59881E-04 1.23412E-05 7.00465E-05



 n o d a l   p r i n t   o u t   f o r   t i m e  s t e p   49406                              ( at time 2.4700028E+01 )

 nodal point  x-disp     y-disp      z-disp      x-vel       y-vel       z-vel      x-accl      y-accl      z-accl      x-coor      y-coor      z-coor
    22626  5.21689E+00 3.41294E-01-2.01047E+01 2.92844E-01-1.08272E-01 4.16157E-01 1.23276E-03 2.17936E-02-2.21027E-02 5.31811E+01-2.16885E+01-1.27662E+01



 n o d a l   p r i n t   o u t   f o r   t i m e  s t e p   49406                              ( at time 2.4700028E+01 )

 nodal point  x-rot      y-rot       z-rot       x-rot vel   y-rot vel   z-rot vel   x-rot acc   y-rot acc   z-rot acc
    22626  2.91144E-01 1.68822E-01-8.20581E-02 1.82255E-02 8.09326E-03-5.36653E-03 1.73059E-04-2.62662E-05 1.30716E-04



 n o d a l   p r i n t   o u t   f o r   t i m e  s t e p   49606                              ( at time 2.4800018E+01 )

 nodal point  x-disp     y-disp      z-disp      x-vel       y-vel       z-vel      x-accl      y-accl      z-accl      x-coor      y-coor      z-coor
    22626  5.24615E+00 3.30554E-01-2.00632E+01 2.92550E-01-1.06482E-01 4.13977E-01-2.94206E-03 1.79026E-02-2.18072E-02 5.32103E+01-2.16992E+01-1.27247E+01



 n o d a l   p r i n t   o u t   f o r   t i m e  s t e p   49606                              ( at time 2.4800018E+01 )

 nodal point  x-rot      y-rot       z-rot       x-rot vel   y-rot vel   z-rot vel   x-rot acc   y-rot acc   z-rot acc
    22626  2.92968E-01 1.69631E-01-8.25946E-02 1.82427E-02 8.08151E-03-5.36955E-03 1.71863E-04-1.17516E-04-3.01124E-05



 n o d a l   p r i n t   o u t   f o r   t i m e  s t e p   49806                              ( at time 2.4900008E+01 )

 nodal point  x-disp     y-disp      z-disp      x-vel       y-vel       z-vel      x-accl      y-accl      z-accl      x-coor      y-coor      z-coor
    22626  5.27539E+00 3.20022E-01-2.00219E+01 2.92010E-01-1.04013E-01 4.11152E-01-5.40257E-03 2.46949E-02-2.82468E-02 5.32396E+01-2.17098E+01-1.26834E+01



 n o d a l   p r i n t   o u t   f o r   t i m e  s t e p   49806                              ( at time 2.4900008E+01 )

 nodal point  x-rot      y-rot       z-rot       x-rot vel   y-rot vel   z-rot vel   x-rot acc   y-rot acc   z-rot acc
    22626  2.94793E-01 1.70439E-01-8.31315E-02 1.82656E-02 8.07834E-03-5.36646E-03 2.29876E-04-3.16778E-05 3.09047E-05



 n o d a l   p r i n t   o u t   f o r   t i m e  s t e p   50006                              ( at time 2.4999998E+01 )

 nodal point  x-disp     y-disp      z-disp      x-vel       y-vel       z-vel      x-accl      y-accl      z-accl      x-coor      y-coor      z-coor
    22626  5.30456E+00 3.09728E-01-1.99809E+01 2.91439E-01-1.01940E-01 4.09198E-01-5.70558E-03 2.07347E-02-1.95456E-02 5.32687E+01-2.17201E+01-1.26424E+01



 n o d a l   p r i n t   o u t   f o r   t i m e  s t e p   50006                              ( at time 2.4999998E+01 )

 nodal point  x-rot      y-rot       z-rot       x-rot vel   y-rot vel   z-rot vel   x-rot acc   y-rot acc   z-rot acc
    22626  2.96621E-01 1.71246E-01-8.36676E-02 1.82924E-02 8.07198E-03-5.36093E-03 2.67612E-04-6.36245E-05 5.52418E-05
