 LSTC 50th% Full_FE H-III Dummy (Beta Version, February 17, 2019)        
                    ls-dyna smp s R16 R16.0_619_d222963 date 03/18/2025

{BEGIN LEGEND}
 Entity #        Title
    22626                                                                                     
{END LEGEND}




 n o d a l   p r i n t   o u t   f o r   t i m e  s t e p       1                              ( at time 0.0000000E+00 )

 nodal point  x-disp     y-disp      z-disp      x-vel       y-vel       z-vel      x-accl      y-accl      z-accl      x-coor      y-coor      z-coor
    22626  0.00000E+00 0.00000E+00 0.00000E+00 0.00000E+00 0.00000E+00-3.12000E+00 0.00000E+00 0.00000E+00 0.00000E+00 4.79642E+01-2.20298E+01 7.33850E+00



 n o d a l   p r i n t   o u t   f o r   t i m e  s t e p       1                              ( at time 0.0000000E+00 )

 nodal point  x-rot      y-rot       z-rot       x-rot vel   y-rot vel   z-rot vel   x-rot acc   y-rot acc   z-rot acc
    22626  0.00000E+00 0.00000E+00 0.00000E+00 0.00000E+00 0.00000E+00 0.00000E+00 0.00000E+00 0.00000E+00 0.00000E+00



 n o d a l   p r i n t   o u t   f o r   t i m e  s t e p     201                              ( at time 9.9989993E-02 )

 nodal point  x-disp     y-disp      z-disp      x-vel       y-vel       z-vel      x-accl      y-accl      z-accl      x-coor      y-coor      z-coor
    22626  8.34175E-07-4.04481E-06-3.12016E-01 4.76730E-05-4.96470E-04-3.12074E+00 4.76777E-04-4.96520E-03-7.42748E-03 4.79642E+01-2.20298E+01 7.02648E+00



 n o d a l   p r i n t   o u t   f o r   t i m e  s t e p     201                              ( at time 9.9989993E-02 )

 nodal point  x-rot      y-rot       z-rot       x-rot vel   y-rot vel   z-rot vel   x-rot acc   y-rot acc   z-rot acc
    22626  9.61074E-09 3.03998E-08 5.26972E-08 1.30705E-06 2.72176E-06 5.21212E-06 1.30718E-05 2.72204E-05 5.21264E-05



 n o d a l   p r i n t   o u t   f o r   t i m e  s t e p     401                              ( at time 1.9997999E-01 )

 nodal point  x-disp     y-disp      z-disp      x-vel       y-vel       z-vel      x-accl      y-accl      z-accl      x-coor      y-coor      z-coor
    22626 -5.12786E-05-5.21579E-04-6.23853E-01-1.09705E-03-1.11140E-02-3.11558E+00-1.14484E-02-1.06186E-01 5.16299E-02 4.79641E+01-2.20303E+01 6.71465E+00



 n o d a l   p r i n t   o u t   f o r   t i m e  s t e p     401                              ( at time 1.9997999E-01 )

 nodal point  x-rot      y-rot       z-rot       x-rot vel   y-rot vel   z-rot vel   x-rot acc   y-rot acc   z-rot acc
    22626  4.60421E-07 1.32995E-06 2.50256E-06 2.62237E-06 1.90493E-05 3.49533E-05 1.31545E-05 1.63292E-04 2.97442E-04



 n o d a l   p r i n t   o u t   f o r   t i m e  s t e p     601                              ( at time 2.9996998E-01 )

 nodal point  x-disp     y-disp      z-disp      x-vel       y-vel       z-vel      x-accl      y-accl      z-accl      x-coor      y-coor      z-coor
    22626 -2.43077E-05-1.97616E-03-9.35238E-01 1.66949E-03-1.60398E-02-3.11415E+00 2.76682E-02-4.92624E-02 1.42827E-02 4.79642E+01-2.20318E+01 6.40326E+00



 n o d a l   p r i n t   o u t   f o r   t i m e  s t e p     601                              ( at time 2.9996998E-01 )

 nodal point  x-rot      y-rot       z-rot       x-rot vel   y-rot vel   z-rot vel   x-rot acc   y-rot acc   z-rot acc
    22626  6.75137E-07 2.41010E-06 4.82561E-06 8.27626E-06 5.32399E-06 1.46402E-05 5.65446E-05-1.37267E-04-2.03152E-04



 n o d a l   p r i n t   o u t   f o r   t i m e  s t e p     801                              ( at time 3.9995997E-01 )

 nodal point  x-disp     y-disp      z-disp      x-vel       y-vel       z-vel      x-accl      y-accl      z-accl      x-coor      y-coor      z-coor
    22626  6.34414E-05-3.57153E-03-1.24663E+00 2.63346E-04-1.73423E-02-3.11356E+00-1.40628E-02-1.30259E-02 5.95152E-03 4.79642E+01-2.20334E+01 6.09187E+00



 n o d a l   p r i n t   o u t   f o r   t i m e  s t e p     801                              ( at time 3.9995997E-01 )

 nodal point  x-rot      y-rot       z-rot       x-rot vel   y-rot vel   z-rot vel   x-rot acc   y-rot acc   z-rot acc
    22626  1.58057E-06 3.65163E-06 6.63011E-06 6.18609E-06 2.36098E-05 3.70457E-05-2.09039E-05 1.82876E-04 2.24078E-04



 n o d a l   p r i n t   o u t   f o r   t i m e  s t e p    1001                              ( at time 4.9994997E-01 )

 nodal point  x-disp     y-disp      z-disp      x-vel       y-vel       z-vel      x-accl      y-accl      z-accl      x-coor      y-coor      z-coor
    22626  8.54545E-05-5.62230E-03-1.55783E+00 9.75929E-04-2.37547E-02-3.11089E+00 7.12654E-03-6.41310E-02 2.66388E-02 4.79643E+01-2.20354E+01 5.78067E+00



 n o d a l   p r i n t   o u t   f o r   t i m e  s t e p    1001                              ( at time 4.9994997E-01 )

 nodal point  x-rot      y-rot       z-rot       x-rot vel   y-rot vel   z-rot vel   x-rot acc   y-rot acc   z-rot acc
    22626  1.48608E-06 6.51609E-06 1.15926E-05-4.86609E-06 4.23568E-05 6.92326E-05-1.10533E-04 1.87489E-04 3.21900E-04



 n o d a l   p r i n t   o u t   f o r   t i m e  s t e p    1201                              ( at time 5.9993996E-01 )

 nodal point  x-disp     y-disp      z-disp      x-vel       y-vel       z-vel      x-accl      y-accl      z-accl      x-coor      y-coor      z-coor
    22626  7.93987E-05-8.11457E-03-1.86889E+00-3.37158E-04-2.59431E-02-3.11093E+00-1.31322E-02-2.18860E-02-3.64817E-04 4.79643E+01-2.20379E+01 5.46961E+00



 n o d a l   p r i n t   o u t   f o r   t i m e  s t e p    1201                              ( at time 5.9993996E-01 )

 nodal point  x-rot      y-rot       z-rot       x-rot vel   y-rot vel   z-rot vel   x-rot acc   y-rot acc   z-rot acc
    22626  1.23998E-06 9.55075E-06 1.71312E-05-2.38004E-06 2.38566E-05 4.84294E-05 2.48630E-05-1.85021E-04-2.08052E-04



 n o d a l   p r i n t   o u t   f o r   t i m e  s t e p    1401                              ( at time 6.9992995E-01 )

 nodal point  x-disp     y-disp      z-disp      x-vel       y-vel       z-vel      x-accl      y-accl      z-accl      x-coor      y-coor      z-coor
    22626  7.16652E-05-1.09806E-02-2.17978E+00 9.72698E-04-3.20551E-02-3.10780E+00 1.30999E-02-6.11263E-02 3.13194E-02 4.79643E+01-2.20408E+01 5.15872E+00



 n o d a l   p r i n t   o u t   f o r   t i m e  s t e p    1401                              ( at time 6.9992995E-01 )

 nodal point  x-rot      y-rot       z-rot       x-rot vel   y-rot vel   z-rot vel   x-rot acc   y-rot acc   z-rot acc
    22626  1.04921E-06 1.24263E-05 2.15639E-05-2.91755E-06 3.38139E-05 5.29586E-05-5.37564E-06 9.95825E-05 4.52958E-05



 n o d a l   p r i n t   o u t   f o r   t i m e  s t e p    1601                              ( at time 7.9991994E-01 )

 nodal point  x-disp     y-disp      z-disp      x-vel       y-vel       z-vel      x-accl      y-accl      z-accl      x-coor      y-coor      z-coor
    22626  2.17730E-04-1.45019E-02-2.49042E+00 1.78491E-03-3.64254E-02-3.10621E+00 8.12292E-03-4.37067E-02 1.58850E-02 4.79644E+01-2.20443E+01 4.84808E+00



 n o d a l   p r i n t   o u t   f o r   t i m e  s t e p    1601                              ( at time 7.9991994E-01 )

 nodal point  x-rot      y-rot       z-rot       x-rot vel   y-rot vel   z-rot vel   x-rot acc   y-rot acc   z-rot acc
    22626  8.91425E-07 1.60774E-05 2.76906E-05 2.25030E-06 4.25946E-05 6.54976E-05 5.16836E-05 8.78166E-05 1.25403E-04



 n o d a l   p r i n t   o u t   f o r   t i m e  s t e p    1801                              ( at time 8.9990994E-01 )

 nodal point  x-disp     y-disp      z-disp      x-vel       y-vel       z-vel      x-accl      y-accl      z-accl      x-coor      y-coor      z-coor
    22626  3.41159E-04-1.81014E-02-2.80110E+00 6.02498E-05-3.59448E-02-3.10768E+00-1.72483E-02 4.80626E-03-1.46714E-02 4.79645E+01-2.20479E+01 4.53740E+00



 n o d a l   p r i n t   o u t   f o r   t i m e  s t e p    1801                              ( at time 8.9990994E-01 )

 nodal point  x-rot      y-rot       z-rot       x-rot vel   y-rot vel   z-rot vel   x-rot acc   y-rot acc   z-rot acc
    22626  8.22045E-07 1.94642E-05 3.34214E-05-3.05173E-06 2.96099E-05 5.39210E-05-5.30256E-05-1.29860E-04-1.15777E-04



 n o d a l   p r i n t   o u t   f o r   t i m e  s t e p    2001                              ( at time 9.9989993E-01 )

 nodal point  x-disp     y-disp      z-disp      x-vel       y-vel       z-vel      x-accl      y-accl      z-accl      x-coor      y-coor      z-coor
    22626  3.09698E-04-2.17586E-02-3.11184E+00-9.79109E-05-3.77718E-02-3.10790E+00-1.58177E-03-1.82724E-02-2.22705E-03 4.79645E+01-2.20515E+01 4.22666E+00



 n o d a l   p r i n t   o u t   f o r   t i m e  s t e p    2001                              ( at time 9.9989993E-01 )

 nodal point  x-rot      y-rot       z-rot       x-rot vel   y-rot vel   z-rot vel   x-rot acc   y-rot acc   z-rot acc
    22626  5.33785E-07 2.27041E-05 3.89608E-05-2.11160E-06 3.48310E-05 6.68547E-05 9.40232E-06 5.22162E-05 1.29350E-04



 n o d a l   p r i n t   o u t   f o r   t i m e  s t e p    2201                              ( at time 1.0998899E+00 )

 nodal point  x-disp     y-disp      z-disp      x-vel       y-vel       z-vel      x-accl      y-accl      z-accl      x-coor      y-coor      z-coor
    22626  3.70724E-04-2.56399E-02-3.42258E+00 6.80277E-04-3.95033E-02-3.10753E+00 7.78266E-03-1.73160E-02 3.66725E-03 4.79646E+01-2.20554E+01 3.91592E+00



 n o d a l   p r i n t   o u t   f o r   t i m e  s t e p    2201                              ( at time 1.0998899E+00 )

 nodal point  x-rot      y-rot       z-rot       x-rot vel   y-rot vel   z-rot vel   x-rot acc   y-rot acc   z-rot acc
    22626  4.58317E-07 2.62335E-05 4.54612E-05 3.48587E-06 3.22256E-05 5.10910E-05 5.59803E-05-2.60566E-05-1.57653E-04



 n o d a l   p r i n t   o u t   f o r   t i m e  s t e p    2401                              ( at time 1.1998799E+00 )

 nodal point  x-disp     y-disp      z-disp      x-vel       y-vel       z-vel      x-accl      y-accl      z-accl      x-coor      y-coor      z-coor
    22626  5.11650E-04-2.95677E-02-3.73337E+00 1.76395E-03-3.88651E-02-3.10900E+00 1.08378E-02 6.38236E-03-1.47071E-02 4.79647E+01-2.20594E+01 3.60513E+00



 n o d a l   p r i n t   o u t   f o r   t i m e  s t e p    2401                              ( at time 1.1998799E+00 )

 nodal point  x-rot      y-rot       z-rot       x-rot vel   y-rot vel   z-rot vel   x-rot acc   y-rot acc   z-rot acc
    22626  6.41919E-07 2.88027E-05 4.96707E-05 2.73440E-06 2.27608E-05 3.67481E-05-7.51548E-06-9.46580E-05-1.43444E-04



 n o d a l   p r i n t   o u t   f o r   t i m e  s t e p    2601                              ( at time 1.2998699E+00 )

 nodal point  x-disp     y-disp      z-disp      x-vel       y-vel       z-vel      x-accl      y-accl      z-accl      x-coor      y-coor      z-coor
    22626  6.33408E-04-3.33051E-02-4.04436E+00 7.69224E-04-3.54495E-02-3.11195E+00-9.94823E-03 3.41598E-02-2.94333E-02 4.79648E+01-2.20631E+01 3.29414E+00



 n o d a l   p r i n t   o u t   f o r   t i m e  s t e p    2601                              ( at time 1.2998699E+00 )

 nodal point  x-rot      y-rot       z-rot       x-rot vel   y-rot vel   z-rot vel   x-rot acc   y-rot acc   z-rot acc
    22626  6.69346E-07 3.09554E-05 5.32732E-05-5.62874E-06 2.43964E-05 4.48408E-05-8.36397E-05 1.63582E-05 8.09351E-05



 n o d a l   p r i n t   o u t   f o r   t i m e  s t e p    2801                              ( at time 1.3998599E+00 )

 nodal point  x-disp     y-disp      z-disp      x-vel       y-vel       z-vel      x-accl      y-accl      z-accl      x-coor      y-coor      z-coor
    22626  6.46698E-04-3.65782E-02-4.35573E+00 2.25572E-05-3.02051E-02-3.11580E+00-7.46742E-03 5.24491E-02-3.85228E-02 4.79648E+01-2.20664E+01 2.98277E+00



 n o d a l   p r i n t   o u t   f o r   t i m e  s t e p    2801                              ( at time 1.3998599E+00 )

 nodal point  x-rot      y-rot       z-rot       x-rot vel   y-rot vel   z-rot vel   x-rot acc   y-rot acc   z-rot acc
    22626 -1.01869E-07 3.31358E-05 5.74056E-05-8.07264E-06 2.02676E-05 3.36227E-05-2.44414E-05-4.12926E-05-1.12191E-04



 n o d a l   p r i n t   o u t   f o r   t i m e  s t e p    3001                              ( at time 1.4998499E+00 )

 nodal point  x-disp     y-disp      z-disp      x-vel       y-vel       z-vel      x-accl      y-accl      z-accl      x-coor      y-coor      z-coor
    22626  6.77325E-04-3.94968E-02-4.66739E+00 9.60316E-04-2.84562E-02-3.11783E+00 9.37852E-03 1.74904E-02-2.03439E-02 4.79649E+01-2.20693E+01 2.67112E+00



 n o d a l   p r i n t   o u t   f o r   t i m e  s t e p    3001                              ( at time 1.4998499E+00 )

 nodal point  x-rot      y-rot       z-rot       x-rot vel   y-rot vel   z-rot vel   x-rot acc   y-rot acc   z-rot acc
    22626 -8.65419E-07 3.44528E-05 5.97072E-05-5.99745E-06 4.95114E-06 1.24609E-05 2.07540E-05-1.53180E-04-2.11640E-04



 n o d a l   p r i n t   o u t   f o r   t i m e  s t e p    3201                              ( at time 1.5998399E+00 )

 nodal point  x-disp     y-disp      z-disp      x-vel       y-vel       z-vel      x-accl      y-accl      z-accl      x-coor      y-coor      z-coor
    22626  7.74198E-04-4.22487E-02-4.97923E+00 7.41907E-04-2.60449E-02-3.12022E+00-2.18430E-03 2.41159E-02-2.39205E-02 4.79650E+01-2.20720E+01 2.35927E+00



 n o d a l   p r i n t   o u t   f o r   t i m e  s t e p    3201                              ( at time 1.5998399E+00 )

 nodal point  x-rot      y-rot       z-rot       x-rot vel   y-rot vel   z-rot vel   x-rot acc   y-rot acc   z-rot acc
    22626 -1.61570E-06 3.46871E-05 6.00116E-05-6.20798E-06 2.96823E-06 7.97446E-07-2.10556E-06-1.98310E-05-1.16646E-04



 n o d a l   p r i n t   o u t   f o r   t i m e  s t e p    3401                              ( at time 1.6998299E+00 )

 nodal point  x-disp     y-disp      z-disp      x-vel       y-vel       z-vel      x-accl      y-accl      z-accl      x-coor      y-coor      z-coor
    22626  8.35650E-04-4.46139E-02-5.29141E+00 4.08703E-04-2.09351E-02-3.12411E+00-3.33237E-03 5.11024E-02-3.88613E-02 4.79650E+01-2.20744E+01 2.04709E+00



 n o d a l   p r i n t   o u t   f o r   t i m e  s t e p    3401                              ( at time 1.6998299E+00 )

 nodal point  x-rot      y-rot       z-rot       x-rot vel   y-rot vel   z-rot vel   x-rot acc   y-rot acc   z-rot acc
    22626 -2.33785E-06 3.46678E-05 6.01311E-05-9.05382E-06-2.42717E-06-3.21875E-06-2.84612E-05-5.39595E-05-4.01659E-05



 n o d a l   p r i n t   o u t   f o r   t i m e  s t e p    3601                              ( at time 1.7998199E+00 )

 nodal point  x-disp     y-disp      z-disp      x-vel       y-vel       z-vel      x-accl      y-accl      z-accl      x-coor      y-coor      z-coor
    22626  8.87541E-04-4.64525E-02-5.60400E+00 2.04147E-04-1.61774E-02-3.12820E+00-2.04577E-03 4.75820E-02-4.08572E-02 4.79651E+01-2.20762E+01 1.73450E+00



 n o d a l   p r i n t   o u t   f o r   t i m e  s t e p    3601                              ( at time 1.7998199E+00 )

 nodal point  x-rot      y-rot       z-rot       x-rot vel   y-rot vel   z-rot vel   x-rot acc   y-rot acc   z-rot acc
    22626 -3.02235E-06 3.41678E-05 5.96961E-05-5.67893E-06-1.21836E-05-1.08008E-05 3.37523E-05-9.75741E-05-7.58277E-05



 n o d a l   p r i n t   o u t   f o r   t i m e  s t e p    3801                              ( at time 1.8998099E+00 )

 nodal point  x-disp     y-disp      z-disp      x-vel       y-vel       z-vel      x-accl      y-accl      z-accl      x-coor      y-coor      z-coor
    22626  8.55481E-04-4.79387E-02-5.91691E+00-6.29601E-04-1.37043E-02-3.13064E+00-8.33831E-03 2.47332E-02-2.44785E-02 4.79650E+01-2.20777E+01 1.42159E+00



 n o d a l   p r i n t   o u t   f o r   t i m e  s t e p    3801                              ( at time 1.8998099E+00 )

 nodal point  x-rot      y-rot       z-rot       x-rot vel   y-rot vel   z-rot vel   x-rot acc   y-rot acc   z-rot acc
    22626 -3.81402E-06 3.26430E-05 5.77838E-05-4.35324E-06-1.91199E-05-2.58928E-05 1.32582E-05-6.93697E-05-1.50936E-04



 n o d a l   p r i n t   o u t   f o r   t i m e  s t e p    4001                              ( at time 1.9997999E+00 )

 nodal point  x-disp     y-disp      z-disp      x-vel       y-vel       z-vel      x-accl      y-accl      z-accl      x-coor      y-coor      z-coor
    22626  8.31485E-04-4.91792E-02-6.23007E+00-1.32337E-04-1.12600E-02-3.13299E+00 4.97313E-03 2.44454E-02-2.34508E-02 4.79650E+01-2.20790E+01 1.10843E+00



 n o d a l   p r i n t   o u t   f o r   t i m e  s t e p    4001                              ( at time 1.9997999E+00 )

 nodal point  x-rot      y-rot       z-rot       x-rot vel   y-rot vel   z-rot vel   x-rot acc   y-rot acc   z-rot acc
    22626 -4.19932E-06 3.04600E-05 5.46543E-05-2.96346E-06-2.24562E-05-3.52294E-05 1.38992E-05-3.33663E-05-9.33749E-05



 n o d a l   p r i n t   o u t   f o r   t i m e  s t e p    4201                              ( at time 2.0997899E+00 )

 nodal point  x-disp     y-disp      z-disp      x-vel       y-vel       z-vel      x-accl      y-accl      z-accl      x-coor      y-coor      z-coor
    22626  8.16299E-04-5.01175E-02-6.54349E+00-3.11638E-04-7.65807E-03-3.13599E+00-1.79319E-03 3.60232E-02-3.00175E-02 4.79650E+01-2.20799E+01 7.95009E-01



 n o d a l   p r i n t   o u t   f o r   t i m e  s t e p    4201                              ( at time 2.0997899E+00 )

 nodal point  x-rot      y-rot       z-rot       x-rot vel   y-rot vel   z-rot vel   x-rot acc   y-rot acc   z-rot acc
    22626 -4.55364E-06 2.75290E-05 5.02009E-05-7.58281E-06-3.19304E-05-5.39812E-05-4.61981E-05-9.47518E-05-1.87536E-04



 n o d a l   p r i n t   o u t   f o r   t i m e  s t e p    4401                              ( at time 2.1997798E+00 )

 nodal point  x-disp     y-disp      z-disp      x-vel       y-vel       z-vel      x-accl      y-accl      z-accl      x-coor      y-coor      z-coor
    22626  7.26050E-04-5.06574E-02-6.85724E+00-1.29683E-03-2.93303E-03-3.13978E+00-9.85287E-03 4.72552E-02-3.78862E-02 4.79649E+01-2.20804E+01 4.81263E-01



 n o d a l   p r i n t   o u t   f o r   t i m e  s t e p    4401                              ( at time 2.1997798E+00 )

 nodal point  x-rot      y-rot       z-rot       x-rot vel   y-rot vel   z-rot vel   x-rot acc   y-rot acc   z-rot acc
    22626 -5.34063E-06 2.39300E-05 4.46122E-05-7.27321E-06-3.86738E-05-5.89251E-05 3.09633E-06-6.74406E-05-4.94448E-05



 n o d a l   p r i n t   o u t   f o r   t i m e  s t e p    4601                              ( at time 2.2997698E+00 )

 nodal point  x-disp     y-disp      z-disp      x-vel       y-vel       z-vel      x-accl      y-accl      z-accl      x-coor      y-coor      z-coor
    22626  5.66028E-04-5.07085E-02-7.17137E+00-2.01224E-03 1.29148E-03-3.14306E+00-7.15483E-03 4.22492E-02-3.27977E-02 4.79647E+01-2.20805E+01 1.67133E-01



 n o d a l   p r i n t   o u t   f o r   t i m e  s t e p    4601                              ( at time 2.2997698E+00 )

 nodal point  x-rot      y-rot       z-rot       x-rot vel   y-rot vel   z-rot vel   x-rot acc   y-rot acc   z-rot acc
    22626 -6.37894E-06 2.00165E-05 3.86848E-05-1.11242E-05-4.56129E-05-6.83492E-05-3.85141E-05-6.93985E-05-9.42500E-05



 n o d a l   p r i n t   o u t   f o r   t i m e  s t e p    4801                              ( at time 2.3997598E+00 )

 nodal point  x-disp     y-disp      z-disp      x-vel       y-vel       z-vel      x-accl      y-accl      z-accl      x-coor      y-coor      z-coor
    22626  3.49198E-04-5.04883E-02-7.48574E+00-2.10393E-03 3.17977E-03-3.14509E+00-9.16989E-04 1.88848E-02-2.03582E-02 4.79645E+01-2.20803E+01-1.47239E-01



 n o d a l   p r i n t   o u t   f o r   t i m e  s t e p    4801                              ( at time 2.3997598E+00 )

 nodal point  x-rot      y-rot       z-rot       x-rot vel   y-rot vel   z-rot vel   x-rot acc   y-rot acc   z-rot acc
    22626 -7.55512E-06 1.51791E-05 3.07497E-05-1.22277E-05-5.12281E-05-8.73734E-05-1.10354E-05-5.61577E-05-1.90262E-04



 n o d a l   p r i n t   o u t   f o r   t i m e  s t e p    5001                              ( at time 2.4997498E+00 )

 nodal point  x-disp     y-disp      z-disp      x-vel       y-vel       z-vel      x-accl      y-accl      z-accl      x-coor      y-coor      z-coor
    22626  1.06713E-04-5.00476E-02-7.80034E+00-2.74809E-03 6.27349E-03-3.14785E+00-6.44221E-03 3.09402E-02-2.75734E-02 4.79643E+01-2.20798E+01-4.61839E-01



 n o d a l   p r i n t   o u t   f o r   t i m e  s t e p    5001                              ( at time 2.4997498E+00 )

 nodal point  x-rot      y-rot       z-rot       x-rot vel   y-rot vel   z-rot vel   x-rot acc   y-rot acc   z-rot acc
    22626 -8.61523E-06 9.41427E-06 2.13732E-05-1.01764E-05-6.18608E-05-1.02724E-04 2.05152E-05-1.06337E-04-1.53522E-04



 n o d a l   p r i n t   o u t   f o r   t i m e  s t e p    5201                              ( at time 2.5997398E+00 )

 nodal point  x-disp     y-disp      z-disp      x-vel       y-vel       z-vel      x-accl      y-accl      z-accl      x-coor      y-coor      z-coor
    22626 -2.15991E-04-4.92025E-02-8.11528E+00-3.72803E-03 1.05338E-02-3.15141E+00-9.80042E-03 4.26077E-02-3.56210E-02 4.79640E+01-2.20790E+01-7.76776E-01



 n o d a l   p r i n t   o u t   f o r   t i m e  s t e p    5201                              ( at time 2.5997398E+00 )

 nodal point  x-rot      y-rot       z-rot       x-rot vel   y-rot vel   z-rot vel   x-rot acc   y-rot acc   z-rot acc
    22626 -9.62214E-06 2.78742E-06 1.05142E-05-1.10464E-05-7.03662E-05-1.15372E-04-8.70135E-06-8.50623E-05-1.26495E-04



 n o d a l   p r i n t   o u t   f o r   t i m e  s t e p    5401                              ( at time 2.6997298E+00 )

 nodal point  x-disp     y-disp      z-disp      x-vel       y-vel       z-vel      x-accl      y-accl      z-accl      x-coor      y-coor      z-coor
    22626 -6.30968E-04-4.79464E-02-8.43056E+00-4.87128E-03 1.41366E-02-3.15483E+00-1.14337E-02 3.60311E-02-3.42236E-02 4.79636E+01-2.20777E+01-1.09206E+00



 n o d a l   p r i n t   o u t   f o r   t i m e  s t e p    5401                              ( at time 2.6997298E+00 )

 nodal point  x-rot      y-rot       z-rot       x-rot vel   y-rot vel   z-rot vel   x-rot acc   y-rot acc   z-rot acc
    22626 -1.05337E-05-4.38437E-06-1.22463E-06-8.00297E-06-7.53088E-05-1.18685E-04 3.04373E-05-4.94308E-05-3.31269E-05



 n o d a l   p r i n t   o u t   f o r   t i m e  s t e p    5601                              ( at time 2.7997198E+00 )

 nodal point  x-disp     y-disp      z-disp      x-vel       y-vel       z-vel      x-accl      y-accl      z-accl      x-coor      y-coor      z-coor
    22626 -1.18578E-03-4.64087E-02-8.74613E+00-6.09488E-03 1.62744E-02-3.15697E+00-1.22373E-02 2.13806E-02-2.13359E-02 4.79630E+01-2.20762E+01-1.40763E+00



 n o d a l   p r i n t   o u t   f o r   t i m e  s t e p    5601                              ( at time 2.7997198E+00 )

 nodal point  x-rot      y-rot       z-rot       x-rot vel   y-rot vel   z-rot vel   x-rot acc   y-rot acc   z-rot acc
    22626 -1.12490E-05-1.26649E-05-1.44864E-05-5.65622E-06-9.06609E-05-1.49287E-04 2.34698E-05-1.53537E-04-3.06050E-04



 n o d a l   p r i n t   o u t   f o r   t i m e  s t e p    5801                              ( at time 2.8997098E+00 )

 nodal point  x-disp     y-disp      z-disp      x-vel       y-vel       z-vel      x-accl      y-accl      z-accl      x-coor      y-coor      z-coor
    22626 -1.79775E-03-4.47260E-02-9.06189E+00-6.19647E-03 1.72496E-02-3.15865E+00-1.01597E-03 9.75268E-03-1.68770E-02 4.79624E+01-2.20745E+01-1.72339E+00



 n o d a l   p r i n t   o u t   f o r   t i m e  s t e p    5801                              ( at time 2.8997098E+00 )

 nodal point  x-rot      y-rot       z-rot       x-rot vel   y-rot vel   z-rot vel   x-rot acc   y-rot acc   z-rot acc
    22626 -1.16430E-05-2.24071E-05-3.04935E-05-3.58420E-06-9.86927E-05-1.65415E-04 2.07224E-05-8.03269E-05-1.61306E-04



 n o d a l   p r i n t   o u t   f o r   t i m e  s t e p    6001                              ( at time 2.9996998E+00 )

 nodal point  x-disp     y-disp      z-disp      x-vel       y-vel       z-vel      x-accl      y-accl      z-accl      x-coor      y-coor      z-coor
    22626 -2.45548E-03-4.28848E-02-9.37782E+00-7.20116E-03 1.96983E-02-3.16099E+00-1.00479E-02 2.44898E-02-2.33292E-02 4.79617E+01-2.20727E+01-2.03932E+00



 n o d a l   p r i n t   o u t   f o r   t i m e  s t e p    6001                              ( at time 2.9996998E+00 )

 nodal point  x-rot      y-rot       z-rot       x-rot vel   y-rot vel   z-rot vel   x-rot acc   y-rot acc   z-rot acc
    22626 -1.20061E-05-3.25163E-05-4.70570E-05-4.83157E-06-1.02905E-04-1.70111E-04-1.24750E-05-4.21234E-05-4.69647E-05



 n o d a l   p r i n t   o u t   f o r   t i m e  s t e p    6201                              ( at time 3.0996898E+00 )

 nodal point  x-disp     y-disp      z-disp      x-vel       y-vel       z-vel      x-accl      y-accl      z-accl      x-coor      y-coor      z-coor
    22626 -3.25826E-03-4.07974E-02-9.69401E+00-8.76020E-03 2.16070E-02-3.16298E+00-1.55920E-02 1.90883E-02-1.99123E-02 4.79609E+01-2.20706E+01-2.35550E+00



 n o d a l   p r i n t   o u t   f o r   t i m e  s t e p    6201                              ( at time 3.0996898E+00 )

 nodal point  x-rot      y-rot       z-rot       x-rot vel   y-rot vel   z-rot vel   x-rot acc   y-rot acc   z-rot acc
    22626 -1.26067E-05-4.30460E-05-6.45835E-05-7.30056E-06-1.07190E-04-1.82117E-04-2.46924E-05-4.28543E-05-1.20069E-04



 n o d a l   p r i n t   o u t   f o r   t i m e  s t e p    6401                              ( at time 3.1996798E+00 )

 nodal point  x-disp     y-disp      z-disp      x-vel       y-vel       z-vel      x-accl      y-accl      z-accl      x-coor      y-coor      z-coor
    22626 -4.16169E-03-3.86647E-02-1.00103E+01-9.23807E-03 2.07598E-02-3.16351E+00-4.77915E-03-8.47215E-03-5.34349E-03 4.79600E+01-2.20685E+01-2.67181E+00



 n o d a l   p r i n t   o u t   f o r   t i m e  s t e p    6401                              ( at time 3.1996798E+00 )

 nodal point  x-rot      y-rot       z-rot       x-rot vel   y-rot vel   z-rot vel   x-rot acc   y-rot acc   z-rot acc
    22626 -1.33058E-05-5.41983E-05-8.29764E-05-7.31751E-06-1.15499E-04-1.91429E-04-1.69515E-07-8.31054E-05-9.31278E-05



 n o d a l   p r i n t   o u t   f o r   t i m e  s t e p    6601                              ( at time 3.2996698E+00 )

 nodal point  x-disp     y-disp      z-disp      x-vel       y-vel       z-vel      x-accl      y-accl      z-accl      x-coor      y-coor      z-coor
    22626 -5.09873E-03-3.66851E-02-1.03266E+01-9.49418E-03 1.88442E-02-3.16324E+00-2.56137E-03-1.91583E-02 2.68486E-03 4.79591E+01-2.20665E+01-2.98812E+00



 n o d a l   p r i n t   o u t   f o r   t i m e  s t e p    6601                              ( at time 3.2996698E+00 )

 nodal point  x-rot      y-rot       z-rot       x-rot vel   y-rot vel   z-rot vel   x-rot acc   y-rot acc   z-rot acc
    22626 -1.40919E-05-6.58539E-05-1.02408E-04-7.64279E-06-1.18692E-04-1.97689E-04-3.25314E-06-3.19290E-05-6.26065E-05



 n o d a l   p r i n t   o u t   f o r   t i m e  s t e p    6801                              ( at time 3.3996598E+00 )

 nodal point  x-disp     y-disp      z-disp      x-vel       y-vel       z-vel      x-accl      y-accl      z-accl      x-coor      y-coor      z-coor
    22626 -6.07924E-03-3.48905E-02-1.06429E+01-9.99426E-03 1.70649E-02-3.16317E+00-5.00130E-03-1.77944E-02 7.72552E-04 4.79581E+01-2.20647E+01-3.30441E+00



 n o d a l   p r i n t   o u t   f o r   t i m e  s t e p    6801                              ( at time 3.3996598E+00 )

 nodal point  x-rot      y-rot       z-rot       x-rot vel   y-rot vel   z-rot vel   x-rot acc   y-rot acc   z-rot acc
    22626 -1.46575E-05-7.76522E-05-1.22302E-04-7.85833E-06-1.16767E-04-1.98513E-04-2.15559E-06 1.92507E-05-8.24506E-06



 n o d a l   p r i n t   o u t   f o r   t i m e  s t e p    7001                              ( at time 3.4996498E+00 )

 nodal point  x-disp     y-disp      z-disp      x-vel       y-vel       z-vel      x-accl      y-accl      z-accl      x-coor      y-coor      z-coor
    22626 -7.10672E-03-3.32578E-02-1.09592E+01-1.06220E-02 1.55286E-02-3.16334E+00-6.27754E-03-1.53650E-02-1.77878E-03 4.79571E+01-2.20630E+01-3.62071E+00



 n o d a l   p r i n t   o u t   f o r   t i m e  s t e p    7001                              ( at time 3.4996498E+00 )

 nodal point  x-rot      y-rot       z-rot       x-rot vel   y-rot vel   z-rot vel   x-rot acc   y-rot acc   z-rot acc
    22626 -1.51795E-05-8.91346E-05-1.41629E-04-4.58375E-06-1.14554E-04-1.91937E-04 3.27490E-05 2.21368E-05 6.57707E-05



 n o d a l   p r i n t   o u t   f o r   t i m e  s t e p    7201                              ( at time 3.5996397E+00 )

 nodal point  x-disp     y-disp      z-disp      x-vel       y-vel       z-vel      x-accl      y-accl      z-accl      x-coor      y-coor      z-coor
    22626 -8.19067E-03-3.18129E-02-1.12755E+01-1.06916E-02 1.31078E-02-3.16316E+00-6.96914E-04-2.42100E-02 1.89085E-03 4.79560E+01-2.20616E+01-3.93701E+00



 n o d a l   p r i n t   o u t   f o r   t i m e  s t e p    7201                              ( at time 3.5996397E+00 )

 nodal point  x-rot      y-rot       z-rot       x-rot vel   y-rot vel   z-rot vel   x-rot acc   y-rot acc   z-rot acc
    22626 -1.56754E-05-1.00462E-04-1.60506E-04-2.41113E-06-1.11386E-04-1.82233E-04 2.17284E-05 3.16765E-05 9.70541E-05



 n o d a l   p r i n t   o u t   f o r   t i m e  s t e p    7401                              ( at time 3.6996297E+00 )

 nodal point  x-disp     y-disp      z-disp      x-vel       y-vel       z-vel      x-accl      y-accl      z-accl      x-coor      y-coor      z-coor
    22626 -9.24851E-03-3.06640E-02-1.15917E+01-1.04250E-02 9.79977E-03-3.16216E+00 2.66615E-03-3.30839E-02 9.94065E-03 4.79549E+01-2.20605E+01-4.25324E+00



 n o d a l   p r i n t   o u t   f o r   t i m e  s t e p    7401                              ( at time 3.6996297E+00 )

 nodal point  x-rot      y-rot       z-rot       x-rot vel   y-rot vel   z-rot vel   x-rot acc   y-rot acc   z-rot acc
    22626 -1.58964E-05-1.11346E-04-1.78615E-04-1.28861E-06-1.06750E-04-1.79446E-04 1.12263E-05 4.63644E-05 2.78730E-05



 n o d a l   p r i n t   o u t   f o r   t i m e  s t e p    7601                              ( at time 3.7996197E+00 )

 nodal point  x-disp     y-disp      z-disp      x-vel       y-vel       z-vel      x-accl      y-accl      z-accl      x-coor      y-coor      z-coor
    22626 -1.02599E-02-2.98227E-02-1.19079E+01-9.86961E-03 7.07598E-03-3.16144E+00 5.55496E-03-2.72407E-02 7.19382E-03 4.79539E+01-2.20596E+01-4.56938E+00



 n o d a l   p r i n t   o u t   f o r   t i m e  s t e p    7601                              ( at time 3.7996197E+00 )

 nodal point  x-rot      y-rot       z-rot       x-rot vel   y-rot vel   z-rot vel   x-rot acc   y-rot acc   z-rot acc
    22626 -1.59290E-05-1.21672E-04-1.96100E-04 5.65859E-07-9.66038E-05-1.63172E-04 1.85466E-05 1.01475E-04 1.62753E-04



 n o d a l   p r i n t   o u t   f o r   t i m e  s t e p    7801                              ( at time 3.8996097E+00 )

 nodal point  x-disp     y-disp      z-disp      x-vel       y-vel       z-vel      x-accl      y-accl      z-accl      x-coor      y-coor      z-coor
    22626 -1.12175E-02-2.92091E-02-1.22240E+01-9.22320E-03 5.39631E-03-3.16142E+00 6.46470E-03-1.67984E-02 2.21751E-04 4.79530E+01-2.20590E+01-4.88549E+00



 n o d a l   p r i n t   o u t   f o r   t i m e  s t e p    7801                              ( at time 3.8996097E+00 )

 nodal point  x-rot      y-rot       z-rot       x-rot vel   y-rot vel   z-rot vel   x-rot acc   y-rot acc   z-rot acc
    22626 -1.60222E-05-1.30659E-04-2.11323E-04-4.04200E-06-8.15118E-05-1.37060E-04-4.60832E-05 1.50935E-04 2.61141E-04



 n o d a l   p r i n t   o u t   f o r   t i m e  s t e p    8001                              ( at time 3.9995997E+00 )

 nodal point  x-disp     y-disp      z-disp      x-vel       y-vel       z-vel      x-accl      y-accl      z-accl      x-coor      y-coor      z-coor
    22626 -1.21127E-02-2.87198E-02-1.25401E+01-8.66054E-03 4.32033E-03-3.16172E+00 5.62720E-03-1.07609E-02-2.99722E-03 4.79521E+01-2.20585E+01-5.20162E+00



 n o d a l   p r i n t   o u t   f o r   t i m e  s t e p    8001                              ( at time 3.9995997E+00 )

 nodal point  x-rot      y-rot       z-rot       x-rot vel   y-rot vel   z-rot vel   x-rot acc   y-rot acc   z-rot acc
    22626 -1.63499E-05-1.38204E-04-2.24058E-04-4.44431E-06-6.92789E-05-1.20190E-04-4.02347E-06 1.22341E-04 1.68721E-04



 n o d a l   p r i n t   o u t   f o r   t i m e  s t e p    8201                              ( at time 4.0995897E+00 )

 nodal point  x-disp     y-disp      z-disp      x-vel       y-vel       z-vel      x-accl      y-accl      z-accl      x-coor      y-coor      z-coor
    22626 -1.28959E-02-2.84018E-02-1.28562E+01-6.87732E-03 1.84934E-03-3.16123E+00 1.78339E-02-2.47123E-02 4.92860E-03 4.79513E+01-2.20582E+01-5.51774E+00



 n o d a l   p r i n t   o u t   f o r   t i m e  s t e p    8201                              ( at time 4.0995897E+00 )

 nodal point  x-rot      y-rot       z-rot       x-rot vel   y-rot vel   z-rot vel   x-rot acc   y-rot acc   z-rot acc
    22626 -1.67863E-05-1.44532E-04-2.34962E-04-4.29638E-06-5.33958E-05-9.48342E-05 1.47947E-06 1.58847E-04 2.53584E-04



 n o d a l   p r i n t   o u t   f o r   t i m e  s t e p    8401                              ( at time 4.1995797E+00 )

 nodal point  x-disp     y-disp      z-disp      x-vel       y-vel       z-vel      x-accl      y-accl      z-accl      x-coor      y-coor      z-coor
    22626 -1.35079E-02-2.83399E-02-1.31723E+01-5.27054E-03-5.26873E-04-3.16069E+00 1.60695E-02-2.37646E-02 5.37211E-03 4.79507E+01-2.20581E+01-5.83380E+00



 n o d a l   p r i n t   o u t   f o r   t i m e  s t e p    8401                              ( at time 4.1995797E+00 )

 nodal point  x-rot      y-rot       z-rot       x-rot vel   y-rot vel   z-rot vel   x-rot acc   y-rot acc   z-rot acc
    22626 -1.72009E-05-1.48962E-04-2.42739E-04-4.59914E-06-3.47359E-05-6.07778E-05-3.02793E-06 1.86618E-04 3.40598E-04



 n o d a l   p r i n t   o u t   f o r   t i m e  s t e p    8601                              ( at time 4.2995697E+00 )

 nodal point  x-disp     y-disp      z-disp      x-vel       y-vel       z-vel      x-accl      y-accl      z-accl      x-coor      y-coor      z-coor
    22626 -1.39694E-02-2.85081E-02-1.34883E+01-3.81282E-03-2.56450E-03-3.16053E+00 1.45786E-02-2.03784E-02 1.55703E-03 4.79502E+01-2.20583E+01-6.14982E+00



 n o d a l   p r i n t   o u t   f o r   t i m e  s t e p    8601                              ( at time 4.2995697E+00 )

 nodal point  x-rot      y-rot       z-rot       x-rot vel   y-rot vel   z-rot vel   x-rot acc   y-rot acc   z-rot acc
    22626 -1.76249E-05-1.51412E-04-2.47369E-04-4.16737E-06-1.67220E-05-3.25810E-05 4.31813E-06 1.80157E-04 2.81996E-04



 n o d a l   p r i n t   o u t   f o r   t i m e  s t e p    8801                              ( at time 4.3995597E+00 )

 nodal point  x-disp     y-disp      z-disp      x-vel       y-vel       z-vel      x-accl      y-accl      z-accl      x-coor      y-coor      z-coor
    22626 -1.42654E-02-2.88038E-02-1.38044E+01-2.10800E-03-3.38906E-03-3.16113E+00 1.70500E-02-8.24642E-03-5.98014E-03 4.79499E+01-2.20586E+01-6.46586E+00



 n o d a l   p r i n t   o u t   f o r   t i m e  s t e p    8801                              ( at time 4.3995597E+00 )

 nodal point  x-rot      y-rot       z-rot       x-rot vel   y-rot vel   z-rot vel   x-rot acc   y-rot acc   z-rot acc
    22626 -1.79891E-05-1.52002E-04-2.48692E-04-3.16933E-06 3.77234E-06 3.50939E-06 9.98143E-06 2.04964E-04 3.60941E-04



 n o d a l   p r i n t   o u t   f o r   t i m e  s t e p    9001                              ( at time 4.4995497E+00 )

 nodal point  x-disp     y-disp      z-disp      x-vel       y-vel       z-vel      x-accl      y-accl      z-accl      x-coor      y-coor      z-coor
    22626 -1.43915E-02-2.92367E-02-1.41204E+01-3.35686E-04-5.64367E-03-3.16077E+00 1.77248E-02-2.25483E-02 3.57662E-03 4.79498E+01-2.20590E+01-6.78194E+00



 n o d a l   p r i n t   o u t   f o r   t i m e  s t e p    9001                              ( at time 4.4995497E+00 )

 nodal point  x-rot      y-rot       z-rot       x-rot vel   y-rot vel   z-rot vel   x-rot acc   y-rot acc   z-rot acc
    22626 -1.82333E-05-1.50320E-04-2.46157E-04-4.52262E-08 2.64362E-05 4.19289E-05 3.12440E-05 2.26660E-04 3.84232E-04



 n o d a l   p r i n t   o u t   f o r   t i m e  s t e p    9201                              ( at time 4.5995397E+00 )

 nodal point  x-disp     y-disp      z-disp      x-vel       y-vel       z-vel      x-accl      y-accl      z-accl      x-coor      y-coor      z-coor
    22626 -1.43316E-02-2.99532E-02-1.44365E+01 1.56130E-03-8.48913E-03-3.16018E+00 1.89717E-02-2.84574E-02 5.94199E-03 4.79498E+01-2.20597E+01-7.09795E+00



 n o d a l   p r i n t   o u t   f o r   t i m e  s t e p    9201                              ( at time 4.5995397E+00 )

 nodal point  x-rot      y-rot       z-rot       x-rot vel   y-rot vel   z-rot vel   x-rot acc   y-rot acc   z-rot acc
    22626 -1.82893E-05-1.46788E-04-2.40489E-04 4.93759E-07 4.36357E-05 6.86956E-05 5.39039E-06 1.72012E-04 2.67694E-04



 n o d a l   p r i n t   o u t   f o r   t i m e  s t e p    9401                              ( at time 4.6995297E+00 )

 nodal point  x-disp     y-disp      z-disp      x-vel       y-vel       z-vel      x-accl      y-accl      z-accl      x-coor      y-coor      z-coor
    22626 -1.40592E-02-3.08796E-02-1.47524E+01 3.80141E-03-1.00326E-02-3.16008E+00 2.24034E-02-1.54362E-02 9.65693E-04 4.79501E+01-2.20607E+01-7.41393E+00



 n o d a l   p r i n t   o u t   f o r   t i m e  s t e p    9401                              ( at time 4.6995297E+00 )

 nodal point  x-rot      y-rot       z-rot       x-rot vel   y-rot vel   z-rot vel   x-rot acc   y-rot acc   z-rot acc
    22626 -1.82888E-05-1.41241E-04-2.31486E-04-8.93069E-07 6.87906E-05 1.11733E-04-1.38697E-05 2.51574E-04 4.30420E-04



 n o d a l   p r i n t   o u t   f o r   t i m e  s t e p    9601                              ( at time 4.7995197E+00 )

 nodal point  x-disp     y-disp      z-disp      x-vel       y-vel       z-vel      x-accl      y-accl      z-accl      x-coor      y-coor      z-coor
    22626 -1.35823E-02-3.19526E-02-1.50684E+01 5.64521E-03-1.12148E-02-3.16035E+00 1.84399E-02-1.18233E-02-2.66817E-03 4.79506E+01-2.20617E+01-7.72992E+00



 n o d a l   p r i n t   o u t   f o r   t i m e  s t e p    9601                              ( at time 4.7995197E+00 )

 nodal point  x-rot      y-rot       z-rot       x-rot vel   y-rot vel   z-rot vel   x-rot acc   y-rot acc   z-rot acc
    22626 -1.83380E-05-1.33094E-04-2.18177E-04-3.94297E-06 9.36055E-05 1.54006E-04-3.05021E-05 2.48175E-04 4.22768E-04



 n o d a l   p r i n t   o u t   f o r   t i m e  s t e p    9801                              ( at time 4.8995097E+00 )

 nodal point  x-disp     y-disp      z-disp      x-vel       y-vel       z-vel      x-accl      y-accl      z-accl      x-coor      y-coor      z-coor
    22626 -1.29291E-02-3.31266E-02-1.53844E+01 7.39193E-03-1.23200E-02-3.16060E+00 1.74690E-02-1.10536E-02-2.53226E-03 4.79513E+01-2.20629E+01-8.04594E+00



 n o d a l   p r i n t   o u t   f o r   t i m e  s t e p    9801                              ( at time 4.8995097E+00 )

 nodal point  x-rot      y-rot       z-rot       x-rot vel   y-rot vel   z-rot vel   x-rot acc   y-rot acc   z-rot acc
    22626 -1.86594E-05-1.22741E-04-2.01141E-04-4.23708E-06 1.12195E-04 1.83574E-04-2.94140E-06 1.85913E-04 2.95713E-04



 n o d a l   p r i n t   o u t   f o r   t i m e  s t e p   10001                              ( at time 4.9994997E+00 )

 nodal point  x-disp     y-disp      z-disp      x-vel       y-vel       z-vel      x-accl      y-accl      z-accl      x-coor      y-coor      z-coor
    22626 -1.20736E-02-3.44490E-02-1.57005E+01 9.63452E-03-1.42011E-02-3.16046E+00 2.24280E-02-1.88120E-02 1.40204E-03 4.79521E+01-2.20642E+01-8.36197E+00



 n o d a l   p r i n t   o u t   f o r   t i m e  s t e p   10001                              ( at time 4.9994997E+00 )

 nodal point  x-rot      y-rot       z-rot       x-rot vel   y-rot vel   z-rot vel   x-rot acc   y-rot acc   z-rot acc
    22626 -1.90706E-05-1.10635E-04-1.81142E-04-3.55761E-06 1.30106E-04 2.16290E-04 6.79530E-06 1.79125E-04 3.27190E-04



 n o d a l   p r i n t   o u t   f o r   t i m e  s t e p   10202                              ( at time 5.0999896E+00 )

 nodal point  x-disp     y-disp      z-disp      x-vel       y-vel       z-vel      x-accl      y-accl      z-accl      x-coor      y-coor      z-coor
    22626 -1.10023E-02-3.59440E-02-1.60181E+01 1.16541E-02-1.53739E-02-3.16066E+00 2.00973E-02-1.16713E-02-1.91704E-03 4.79532E+01-2.20657E+01-8.67956E+00



 n o d a l   p r i n t   o u t   f o r   t i m e  s t e p   10202                              ( at time 5.0999896E+00 )

 nodal point  x-rot      y-rot       z-rot       x-rot vel   y-rot vel   z-rot vel   x-rot acc   y-rot acc   z-rot acc
    22626 -1.95233E-05-9.63488E-05-1.57577E-04-5.91695E-06 1.51342E-04 2.50929E-04-2.34784E-05 2.11327E-04 3.44699E-04



 n o d a l   p r i n t   o u t   f o r   t i m e  s t e p   10402                              ( at time 5.1999796E+00 )

 nodal point  x-disp     y-disp      z-disp      x-vel       y-vel       z-vel      x-accl      y-accl      z-accl      x-coor      y-coor      z-coor
    22626 -9.75731E-03-3.74823E-02-1.63341E+01 1.31994E-02-1.50989E-02-3.16161E+00 1.54546E-02 2.75009E-03-9.58058E-03 4.79544E+01-2.20673E+01-8.99564E+00



 n o d a l   p r i n t   o u t   f o r   t i m e  s t e p   10402                              ( at time 5.1999796E+00 )

 nodal point  x-rot      y-rot       z-rot       x-rot vel   y-rot vel   z-rot vel   x-rot acc   y-rot acc   z-rot acc
    22626 -2.00395E-05-8.02162E-05-1.30958E-04-5.93146E-06 1.68479E-04 2.79956E-04-1.45065E-07 1.71392E-04 2.90300E-04



 n o d a l   p r i n t   o u t   f o r   t i m e  s t e p   10602                              ( at time 5.2999696E+00 )

 nodal point  x-disp     y-disp      z-disp      x-vel       y-vel       z-vel      x-accl      y-accl      z-accl      x-coor      y-coor      z-coor
    22626 -8.37614E-03-3.89405E-02-1.66503E+01 1.44060E-02-1.41432E-02-3.16249E+00 1.20678E-02 9.55829E-03-8.78423E-03 4.79558E+01-2.20687E+01-9.31182E+00



 n o d a l   p r i n t   o u t   f o r   t i m e  s t e p   10602                              ( at time 5.2999696E+00 )

 nodal point  x-rot      y-rot       z-rot       x-rot vel   y-rot vel   z-rot vel   x-rot acc   y-rot acc   z-rot acc
    22626 -2.04792E-05-6.22830E-05-1.02064E-04-4.57049E-06 1.90404E-04 2.96811E-04 1.36110E-05 2.19265E-04 1.68572E-04



 n o d a l   p r i n t   o u t   f o r   t i m e  s t e p   10802                              ( at time 5.3999596E+00 )

 nodal point  x-disp     y-disp      z-disp      x-vel       y-vel       z-vel      x-accl      y-accl      z-accl      x-coor      y-coor      z-coor
    22626 -6.86500E-03-4.03063E-02-1.69665E+01 1.59475E-02-1.31954E-02-3.16250E+00 1.54159E-02 9.47881E-03-1.02530E-04 4.79573E+01-2.20701E+01-9.62805E+00



 n o d a l   p r i n t   o u t   f o r   t i m e  s t e p   10802                              ( at time 5.3999596E+00 )

 nodal point  x-rot      y-rot       z-rot       x-rot vel   y-rot vel   z-rot vel   x-rot acc   y-rot acc   z-rot acc
    22626 -2.07108E-05-4.17233E-05-7.17045E-05-3.42384E-07 2.20634E-04 3.07720E-04 4.22854E-05 3.02332E-04 1.09095E-04



 n o d a l   p r i n t   o u t   f o r   t i m e  s t e p   11002                              ( at time 5.4999496E+00 )

 nodal point  x-disp     y-disp      z-disp      x-vel       y-vel       z-vel      x-accl      y-accl      z-accl      x-coor      y-coor      z-coor
    22626 -5.17389E-03-4.15391E-02-1.72828E+01 1.78685E-02-1.14272E-02-3.16223E+00 1.92117E-02 1.76840E-02 2.73732E-03 4.79590E+01-2.20713E+01-9.94426E+00



 n o d a l   p r i n t   o u t   f o r   t i m e  s t e p   11002                              ( at time 5.4999496E+00 )

 nodal point  x-rot      y-rot       z-rot       x-rot vel   y-rot vel   z-rot vel   x-rot acc   y-rot acc   z-rot acc
    22626 -2.06631E-05-1.79963E-05-4.06054E-05 3.34856E-06 2.56984E-04 3.14315E-04 3.69131E-05 3.63533E-04 6.59606E-05



 n o d a l   p r i n t   o u t   f o r   t i m e  s t e p   11202                              ( at time 5.5999396E+00 )

 nodal point  x-disp     y-disp      z-disp      x-vel       y-vel       z-vel      x-accl      y-accl      z-accl      x-coor      y-coor      z-coor
    22626 -3.32820E-03-4.25553E-02-1.75989E+01 1.88918E-02-8.73683E-03-3.16052E+00 1.02343E-02 2.69063E-02 1.70463E-02 4.79609E+01-2.20723E+01-1.02604E+01



 n o d a l   p r i n t   o u t   f o r   t i m e  s t e p   11202                              ( at time 5.5999396E+00 )

 nodal point  x-rot      y-rot       z-rot       x-rot vel   y-rot vel   z-rot vel   x-rot acc   y-rot acc   z-rot acc
    22626 -2.00623E-05 1.06859E-05-9.16044E-06 9.14326E-06 3.19795E-04 3.12453E-04 5.79529E-05 6.28181E-04-1.86231E-05



 n o d a l   p r i n t   o u t   f o r   t i m e  s t e p   11402                              ( at time 5.6999296E+00 )

 nodal point  x-disp     y-disp      z-disp      x-vel       y-vel       z-vel      x-accl      y-accl      z-accl      x-coor      y-coor      z-coor
    22626 -1.36945E-03-4.32494E-02-1.79148E+01 2.00176E-02-4.92877E-03-3.15727E+00 1.12594E-02 3.80842E-02 3.25830E-02 4.79628E+01-2.20730E+01-1.05763E+01



 n o d a l   p r i n t   o u t   f o r   t i m e  s t e p   11402                              ( at time 5.6999296E+00 )

 nodal point  x-rot      y-rot       z-rot       x-rot vel   y-rot vel   z-rot vel   x-rot acc   y-rot acc   z-rot acc
    22626 -1.86120E-05 4.70426E-05 2.16996E-05 1.94989E-05 4.13868E-04 2.98041E-04 1.03566E-04 9.40818E-04-1.44134E-04



 n o d a l   p r i n t   o u t   f o r   t i m e  s t e p   11602                              ( at time 5.7999195E+00 )

 nodal point  x-disp     y-disp      z-disp      x-vel       y-vel       z-vel      x-accl      y-accl      z-accl      x-coor      y-coor      z-coor
    22626  6.87194E-04-4.35329E-02-1.82302E+01 2.12096E-02-1.27695E-03-3.15100E+00 1.19206E-02 3.65219E-02 6.26627E-02 4.79649E+01-2.20733E+01-1.08917E+01



 n o d a l   p r i n t   o u t   f o r   t i m e  s t e p   11602                              ( at time 5.7999195E+00 )

 nodal point  x-rot      y-rot       z-rot       x-rot vel   y-rot vel   z-rot vel   x-rot acc   y-rot acc   z-rot acc
    22626 -1.55504E-05 9.44515E-05 4.99109E-05 4.00867E-05 5.41064E-04 2.69541E-04 2.05899E-04 1.27209E-03-2.85026E-04



 n o d a l   p r i n t   o u t   f o r   t i m e  s t e p   11802                              ( at time 5.8999095E+00 )

 nodal point  x-disp     y-disp      z-disp      x-vel       y-vel       z-vel      x-accl      y-accl      z-accl      x-coor      y-coor      z-coor
    22626  2.86297E-03-4.35375E-02-1.85447E+01 2.22629E-02 1.50821E-03-3.14001E+00 1.05341E-02 2.78545E-02 1.09879E-01 4.79670E+01-2.20733E+01-1.12062E+01



 n o d a l   p r i n t   o u t   f o r   t i m e  s t e p   11802                              ( at time 5.8999095E+00 )

 nodal point  x-rot      y-rot       z-rot       x-rot vel   y-rot vel   z-rot vel   x-rot acc   y-rot acc   z-rot acc
    22626 -1.05863E-05 1.57069E-04 7.49824E-05 6.54152E-05 7.19765E-04 2.27739E-04 2.53311E-04 1.78720E-03-4.18071E-04



 n o d a l   p r i n t   o u t   f o r   t i m e  s t e p   12002                              ( at time 5.9998995E+00 )

 nodal point  x-disp     y-disp      z-disp      x-vel       y-vel       z-vel      x-accl      y-accl      z-accl      x-coor      y-coor      z-coor
    22626  5.10563E-03-4.32018E-02-1.88580E+01 2.21823E-02 5.72705E-03-3.12547E+00-8.05862E-04 4.21926E-02 1.45431E-01 4.79693E+01-2.20730E+01-1.15195E+01



 n o d a l   p r i n t   o u t   f o r   t i m e  s t e p   12002                              ( at time 5.9998995E+00 )

 nodal point  x-rot      y-rot       z-rot       x-rot vel   y-rot vel   z-rot vel   x-rot acc   y-rot acc   z-rot acc
    22626 -1.77526E-06 2.41311E-04 9.47418E-05 1.18505E-04 9.68441E-04 1.59118E-04 5.30948E-04 2.48701E-03-6.86278E-04



 n o d a l   p r i n t   o u t   f o r   t i m e  s t e p   12202                              ( at time 6.0998895E+00 )

 nodal point  x-disp     y-disp      z-disp      x-vel       y-vel       z-vel      x-accl      y-accl      z-accl      x-coor      y-coor      z-coor
    22626  7.31719E-03-4.23857E-02-1.91696E+01 2.18256E-02 1.10747E-02-3.10668E+00-3.56710E-03 5.34821E-02 1.87935E-01 4.79715E+01-2.20722E+01-1.18311E+01



 n o d a l   p r i n t   o u t   f o r   t i m e  s t e p   12202                              ( at time 6.0998895E+00 )

 nodal point  x-rot      y-rot       z-rot       x-rot vel   y-rot vel   z-rot vel   x-rot acc   y-rot acc   z-rot acc
    22626  1.29298E-05 3.52297E-04 1.07186E-04 1.82047E-04 1.25937E-03 8.39850E-05 6.35488E-04 2.90958E-03-7.51399E-04



 n o d a l   p r i n t   o u t   f o r   t i m e  s t e p   12402                              ( at time 6.1998795E+00 )

 nodal point  x-disp     y-disp      z-disp      x-vel       y-vel       z-vel      x-accl      y-accl      z-accl      x-coor      y-coor      z-coor
    22626  9.45861E-03-4.10673E-02-1.94791E+01 2.07847E-02 1.56700E-02-3.08329E+00-1.04098E-02 4.59572E-02 2.33946E-01 4.79736E+01-2.20709E+01-1.21406E+01



 n o d a l   p r i n t   o u t   f o r   t i m e  s t e p   12402                              ( at time 6.1998795E+00 )

 nodal point  x-rot      y-rot       z-rot       x-rot vel   y-rot vel   z-rot vel   x-rot acc   y-rot acc   z-rot acc
    22626  3.48712E-05 4.95809E-04 1.11754E-04 2.65038E-04 1.61583E-03-3.18243E-06 8.29993E-04 3.56491E-03-8.71762E-04



 n o d a l   p r i n t   o u t   f o r   t i m e  s t e p   12602                              ( at time 6.2998695E+00 )

 nodal point  x-disp     y-disp      z-disp      x-vel       y-vel       z-vel      x-accl      y-accl      z-accl      x-coor      y-coor      z-coor
    22626  1.14726E-02-3.92631E-02-1.97861E+01 1.94037E-02 2.01834E-02-3.05602E+00-1.38118E-02 4.51385E-02 2.72745E-01 4.79757E+01-2.20691E+01-1.24476E+01



 n o d a l   p r i n t   o u t   f o r   t i m e  s t e p   12602                              ( at time 6.2998695E+00 )

 nodal point  x-rot      y-rot       z-rot       x-rot vel   y-rot vel   z-rot vel   x-rot acc   y-rot acc   z-rot acc
    22626  6.60816E-05 6.77380E-04 1.06621E-04 3.60171E-04 2.02111E-03-9.97285E-05 9.51421E-04 4.05322E-03-9.65558E-04



 n o d a l   p r i n t   o u t   f o r   t i m e  s t e p   12802                              ( at time 6.3998595E+00 )

 nodal point  x-disp     y-disp      z-disp      x-vel       y-vel       z-vel      x-accl      y-accl      z-accl      x-coor      y-coor      z-coor
    22626  1.32813E-02-3.69715E-02-2.00901E+01 1.73788E-02 2.54479E-02-3.02573E+00-2.02505E-02 5.26503E-02 3.02882E-01 4.79775E+01-2.20668E+01-1.27516E+01



 n o d a l   p r i n t   o u t   f o r   t i m e  s t e p   12802                              ( at time 6.3998595E+00 )

 nodal point  x-rot      y-rot       z-rot       x-rot vel   y-rot vel   z-rot vel   x-rot acc   y-rot acc   z-rot acc
    22626  1.07676E-04 9.00796E-04 9.13290E-05 4.66552E-04 2.45101E-03-1.93690E-04 1.06392E-03 4.29943E-03-9.39713E-04



 n o d a l   p r i n t   o u t   f o r   t i m e  s t e p   13002                              ( at time 6.4998495E+00 )

 nodal point  x-disp     y-disp      z-disp      x-vel       y-vel       z-vel      x-accl      y-accl      z-accl      x-coor      y-coor      z-coor
    22626  1.48943E-02-3.40999E-02-2.03910E+01 1.49458E-02 3.14881E-02-2.99268E+00-2.43330E-02 6.04084E-02 3.30517E-01 4.79791E+01-2.20639E+01-1.30525E+01



 n o d a l   p r i n t   o u t   f o r   t i m e  s t e p   13002                              ( at time 6.4998495E+00 )

 nodal point  x-rot      y-rot       z-rot       x-rot vel   y-rot vel   z-rot vel   x-rot acc   y-rot acc   z-rot acc
    22626  1.60416E-04 1.16897E-03 6.58482E-05 5.77704E-04 2.91088E-03-3.04298E-04 1.11164E-03 4.59925E-03-1.10619E-03



 n o d a l   p r i n t   o u t   f o r   t i m e  s t e p   13202                              ( at time 6.5998395E+00 )

 nodal point  x-disp     y-disp      z-disp      x-vel       y-vel       z-vel      x-accl      y-accl      z-accl      x-coor      y-coor      z-coor
    22626  1.62413E-02-3.06644E-02-2.06886E+01 1.21339E-02 3.75006E-02-2.95780E+00-2.81219E-02 6.01304E-02 3.48900E-01 4.79804E+01-2.20605E+01-1.33501E+01



 n o d a l   p r i n t   o u t   f o r   t i m e  s t e p   13202                              ( at time 6.5998395E+00 )

 nodal point  x-rot      y-rot       z-rot       x-rot vel   y-rot vel   z-rot vel   x-rot acc   y-rot acc   z-rot acc
    22626  2.25077E-04 1.48229E-03 2.98175E-05 7.06463E-04 3.35948E-03-4.20942E-04 1.28771E-03 4.48636E-03-1.16655E-03



 n o d a l   p r i n t   o u t   f o r   t i m e  s t e p   13402                              ( at time 6.6998295E+00 )

 nodal point  x-disp     y-disp      z-disp      x-vel       y-vel       z-vel      x-accl      y-accl      z-accl      x-coor      y-coor      z-coor
    22626  1.72922E-02-2.67209E-02-2.09825E+01 9.29204E-03 4.15441E-02-2.92201E+00-2.84211E-02 4.04394E-02 3.57895E-01 4.79815E+01-2.20565E+01-1.36440E+01



 n o d a l   p r i n t   o u t   f o r   t i m e  s t e p   13402                              ( at time 6.6998295E+00 )

 nodal point  x-rot      y-rot       z-rot       x-rot vel   y-rot vel   z-rot vel   x-rot acc   y-rot acc   z-rot acc
    22626  3.01747E-04 1.84127E-03-1.65011E-05 8.34051E-04 3.81516E-03-5.02580E-04 1.27601E-03 4.55730E-03-8.16462E-04



 n o d a l   p r i n t   o u t   f o r   t i m e  s t e p   13602                              ( at time 6.7998195E+00 )

 nodal point  x-disp     y-disp      z-disp      x-vel       y-vel       z-vel      x-accl      y-accl      z-accl      x-coor      y-coor      z-coor
    22626  1.80741E-02-2.23477E-02-2.12729E+01 6.39769E-03 4.57021E-02-2.88469E+00-2.89464E-02 4.15845E-02 3.73277E-01 4.79823E+01-2.20521E+01-1.39344E+01



 n o d a l   p r i n t   o u t   f o r   t i m e  s t e p   13602                              ( at time 6.7998195E+00 )

 nodal point  x-rot      y-rot       z-rot       x-rot vel   y-rot vel   z-rot vel   x-rot acc   y-rot acc   z-rot acc
    22626  3.90826E-04 2.24334E-03-7.24495E-05 9.61538E-04 4.23126E-03-5.97598E-04 1.27500E-03 4.16143E-03-9.50271E-04



 n o d a l   p r i n t   o u t   f o r   t i m e  s t e p   13802                              ( at time 6.8998095E+00 )

 nodal point  x-disp     y-disp      z-disp      x-vel       y-vel       z-vel      x-accl      y-accl      z-accl      x-coor      y-coor      z-coor
    22626  1.86249E-02-1.76380E-02-2.15593E+01 3.80245E-03 4.86149E-02-2.84452E+00-2.59550E-02 2.91303E-02 4.01723E-01 4.79828E+01-2.20474E+01-1.42208E+01



 n o d a l   p r i n t   o u t   f o r   t i m e  s t e p   13802                              ( at time 6.8998095E+00 )

 nodal point  x-rot      y-rot       z-rot       x-rot vel   y-rot vel   z-rot vel   x-rot acc   y-rot acc   z-rot acc
    22626  4.93418E-04 2.68592E-03-1.36067E-04 1.10424E-03 4.61182E-03-6.68105E-04 1.42716E-03 3.80597E-03-7.05148E-04



 n o d a l   p r i n t   o u t   f o r   t i m e  s t e p   14002                              ( at time 6.9997995E+00 )

 nodal point  x-disp     y-disp      z-disp      x-vel       y-vel       z-vel      x-accl      y-accl      z-accl      x-coor      y-coor      z-coor
    22626  1.89500E-02-1.25495E-02-2.18417E+01 2.62355E-03 5.28096E-02-2.80416E+00-1.17903E-02 4.19515E-02 4.03593E-01 4.79831E+01-2.20423E+01-1.45032E+01



 n o d a l   p r i n t   o u t   f o r   t i m e  s t e p   14002                              ( at time 6.9997995E+00 )

 nodal point  x-rot      y-rot       z-rot       x-rot vel   y-rot vel   z-rot vel   x-rot acc   y-rot acc   z-rot acc
    22626  6.10580E-04 3.16392E-03-2.07293E-04 1.24774E-03 4.94393E-03-7.52787E-04 1.43510E-03 3.32147E-03-8.46906E-04



 n o d a l   p r i n t   o u t   f o r   t i m e  s t e p   14202                              ( at time 7.0997895E+00 )

 nodal point  x-disp     y-disp      z-disp      x-vel       y-vel       z-vel      x-accl      y-accl      z-accl      x-coor      y-coor      z-coor
    22626  1.91256E-02-7.20549E-03-2.21200E+01 9.06274E-04 5.36964E-02-2.76232E+00-1.71744E-02 8.86939E-03 4.18501E-01 4.79833E+01-2.20370E+01-1.47815E+01



 n o d a l   p r i n t   o u t   f o r   t i m e  s t e p   14202                              ( at time 7.0997895E+00 )

 nodal point  x-rot      y-rot       z-rot       x-rot vel   y-rot vel   z-rot vel   x-rot acc   y-rot acc   z-rot acc
    22626  7.43476E-04 3.67429E-03-2.85971E-04 1.40444E-03 5.26890E-03-8.07012E-04 1.56722E-03 3.24995E-03-5.42297E-04



 n o d a l   p r i n t   o u t   f o r   t i m e  s t e p   14402                              ( at time 7.1997794E+00 )

 nodal point  x-disp     y-disp      z-disp      x-vel       y-vel       z-vel      x-accl      y-accl      z-accl      x-coor      y-coor      z-coor
    22626  1.92601E-02-1.65465E-03-2.23939E+01 2.10296E-03 5.47520E-02-2.71722E+00 1.19681E-02 1.05562E-02 4.51010E-01 4.79834E+01-2.20314E+01-1.50554E+01



 n o d a l   p r i n t   o u t   f o r   t i m e  s t e p   14402                              ( at time 7.1997794E+00 )

 nodal point  x-rot      y-rot       z-rot       x-rot vel   y-rot vel   z-rot vel   x-rot acc   y-rot acc   z-rot acc
    22626  8.94208E-04 4.21379E-03-3.70405E-04 1.58855E-03 5.53601E-03-8.54777E-04 1.84129E-03 2.67135E-03-4.77703E-04



 n o d a l   p r i n t   o u t   f o r   t i m e  s t e p   14602                              ( at time 7.2997694E+00 )

 nodal point  x-disp     y-disp      z-disp      x-vel       y-vel       z-vel      x-accl      y-accl      z-accl      x-coor      y-coor      z-coor
    22626  1.94224E-02 3.92647E-03-2.26633E+01 3.90107E-03 5.59553E-02-2.67137E+00 1.79828E-02 1.20350E-02 4.58523E-01 4.79836E+01-2.20259E+01-1.53248E+01



 n o d a l   p r i n t   o u t   f o r   t i m e  s t e p   14602                              ( at time 7.2997694E+00 )

 nodal point  x-rot      y-rot       z-rot       x-rot vel   y-rot vel   z-rot vel   x-rot acc   y-rot acc   z-rot acc
    22626  1.06267E-03 4.77931E-03-4.60090E-04 1.77017E-03 5.80657E-03-8.74223E-04 1.81631E-03 2.70591E-03-1.94475E-04



 n o d a l   p r i n t   o u t   f o r   t i m e  s t e p   14802                              ( at time 7.3997594E+00 )

 nodal point  x-disp     y-disp      z-disp      x-vel       y-vel       z-vel      x-accl      y-accl      z-accl      x-coor      y-coor      z-coor
    22626  1.97169E-02 9.65849E-03-2.29282E+01 3.07314E-03 5.64758E-02-2.62638E+00-8.28006E-03 5.20502E-03 4.49975E-01 4.79839E+01-2.20201E+01-1.55897E+01



 n o d a l   p r i n t   o u t   f o r   t i m e  s t e p   14802                              ( at time 7.3997594E+00 )

 nodal point  x-rot      y-rot       z-rot       x-rot vel   y-rot vel   z-rot vel   x-rot acc   y-rot acc   z-rot acc
    22626  1.25030E-03 5.36999E-03-5.54875E-04 1.95924E-03 6.01877E-03-9.56970E-04 1.89091E-03 2.12220E-03-8.27559E-04



 n o d a l   p r i n t   o u t   f o r   t i m e  s t e p   15002                              ( at time 7.4997494E+00 )

 nodal point  x-disp     y-disp      z-disp      x-vel       y-vel       z-vel      x-accl      y-accl      z-accl      x-coor      y-coor      z-coor
    22626  2.02132E-02 1.53904E-02-2.31884E+01 6.12083E-03 5.83613E-02-2.57837E+00 3.04797E-02 1.88564E-02 4.80135E-01 4.79844E+01-2.20144E+01-1.58499E+01



 n o d a l   p r i n t   o u t   f o r   t i m e  s t e p   15002                              ( at time 7.4997494E+00 )

 nodal point  x-rot      y-rot       z-rot       x-rot vel   y-rot vel   z-rot vel   x-rot acc   y-rot acc   z-rot acc
    22626  1.45781E-03 5.98153E-03-6.53837E-04 2.18029E-03 6.18263E-03-1.03562E-03 2.21073E-03 1.63882E-03-7.86558E-04



 n o d a l   p r i n t   o u t   f o r   t i m e  s t e p   15202                              ( at time 7.5997394E+00 )

 nodal point  x-disp     y-disp      z-disp      x-vel       y-vel       z-vel      x-accl      y-accl      z-accl      x-coor      y-coor      z-coor
    22626  2.09447E-02 2.10859E-02-2.34436E+01 9.62899E-03 5.74715E-02-2.52588E+00 3.50852E-02-8.89879E-03 5.24996E-01 4.79851E+01-2.20087E+01-1.61051E+01



 n o d a l   p r i n t   o u t   f o r   t i m e  s t e p   15202                              ( at time 7.5997394E+00 )

 nodal point  x-rot      y-rot       z-rot       x-rot vel   y-rot vel   z-rot vel   x-rot acc   y-rot acc   z-rot acc
    22626  1.68755E-03 6.61163E-03-7.55909E-04 2.42519E-03 6.40158E-03-1.03916E-03 2.44930E-03 2.18966E-03-3.54334E-05



 n o d a l   p r i n t   o u t   f o r   t i m e  s t e p   15402                              ( at time 7.6997294E+00 )

 nodal point  x-disp     y-disp      z-disp      x-vel       y-vel       z-vel      x-accl      y-accl      z-accl      x-coor      y-coor      z-coor
    22626  2.20908E-02 2.68536E-02-2.36935E+01 1.32062E-02 5.67466E-02-2.47230E+00 3.57757E-02-7.24933E-03 5.35852E-01 4.79863E+01-2.20029E+01-1.63550E+01



 n o d a l   p r i n t   o u t   f o r   t i m e  s t e p   15402                              ( at time 7.6997294E+00 )

 nodal point  x-rot      y-rot       z-rot       x-rot vel   y-rot vel   z-rot vel   x-rot acc   y-rot acc   z-rot acc
    22626  1.94310E-03 7.26034E-03-8.62498E-04 2.70079E-03 6.57858E-03-1.05436E-03 2.75621E-03 1.77022E-03-1.52022E-04



 n o d a l   p r i n t   o u t   f o r   t i m e  s t e p   15602                              ( at time 7.7997194E+00 )

 nodal point  x-disp     y-disp      z-disp      x-vel       y-vel       z-vel      x-accl      y-accl      z-accl      x-coor      y-coor      z-coor
    22626  2.36822E-02 3.26542E-02-2.39378E+01 1.78539E-02 5.99122E-02-2.41351E+00 4.64817E-02 3.16590E-02 5.87938E-01 4.79879E+01-2.19971E+01-1.65993E+01



 n o d a l   p r i n t   o u t   f o r   t i m e  s t e p   15602                              ( at time 7.7997194E+00 )

 nodal point  x-rot      y-rot       z-rot       x-rot vel   y-rot vel   z-rot vel   x-rot acc   y-rot acc   z-rot acc
    22626  2.22634E-03 7.92413E-03-9.70008E-04 2.97826E-03 6.74778E-03-1.09833E-03 2.77506E-03 1.69218E-03-4.39756E-04



 n o d a l   p r i n t   o u t   f o r   t i m e  s t e p   15802                              ( at time 7.8997094E+00 )

 nodal point  x-disp     y-disp      z-disp      x-vel       y-vel       z-vel      x-accl      y-accl      z-accl      x-coor      y-coor      z-coor
    22626  2.57780E-02 3.86096E-02-2.41762E+01 2.41047E-02 6.06116E-02-2.35352E+00 6.25144E-02 6.99475E-03 5.99912E-01 4.79900E+01-2.19912E+01-1.68377E+01



 n o d a l   p r i n t   o u t   f o r   t i m e  s t e p   15802                              ( at time 7.8997094E+00 )

 nodal point  x-rot      y-rot       z-rot       x-rot vel   y-rot vel   z-rot vel   x-rot acc   y-rot acc   z-rot acc
    22626  2.53903E-03 8.60649E-03-1.08101E-03 3.30212E-03 6.89550E-03-1.14015E-03 3.23886E-03 1.47727E-03-4.18259E-04



 n o d a l   p r i n t   o u t   f o r   t i m e  s t e p   16002                              ( at time 7.9996994E+00 )

 nodal point  x-disp     y-disp      z-disp      x-vel       y-vel       z-vel      x-accl      y-accl      z-accl      x-coor      y-coor      z-coor
    22626  2.85179E-02 4.47373E-02-2.44082E+01 2.94371E-02 6.26360E-02-2.28890E+00 5.33289E-02 2.02456E-02 6.46334E-01 4.79927E+01-2.19851E+01-1.70697E+01



 n o d a l   p r i n t   o u t   f o r   t i m e  s t e p   16002                              ( at time 7.9996994E+00 )

 nodal point  x-rot      y-rot       z-rot       x-rot vel   y-rot vel   z-rot vel   x-rot acc   y-rot acc   z-rot acc
    22626  2.88322E-03 9.30469E-03-1.19390E-03 3.63246E-03 7.05421E-03-1.12750E-03 3.30370E-03 1.58727E-03 1.26587E-04



 n o d a l   p r i n t   o u t   f o r   t i m e  s t e p   16202                              ( at time 8.0996894E+00 )

 nodal point  x-disp     y-disp      z-disp      x-vel       y-vel       z-vel      x-accl      y-accl      z-accl      x-coor      y-coor      z-coor
    22626  3.19685E-02 5.11436E-02-2.46338E+01 3.81904E-02 6.35122E-02-2.22392E+00 8.75425E-02 8.76307E-03 6.49792E-01 4.79961E+01-2.19786E+01-1.72953E+01



 n o d a l   p r i n t   o u t   f o r   t i m e  s t e p   16202                              ( at time 8.0996894E+00 )

 nodal point  x-rot      y-rot       z-rot       x-rot vel   y-rot vel   z-rot vel   x-rot acc   y-rot acc   z-rot acc
    22626  3.26351E-03 1.00181E-02-1.30844E-03 3.97205E-03 7.21329E-03-1.10642E-03 3.39628E-03 1.59100E-03 2.10796E-04



 n o d a l   p r i n t   o u t   f o r   t i m e  s t e p   16402                              ( at time 8.1996794E+00 )

 nodal point  x-disp     y-disp      z-disp      x-vel       y-vel       z-vel      x-accl      y-accl      z-accl      x-coor      y-coor      z-coor
    22626  3.61320E-02 5.77322E-02-2.48528E+01 4.58174E-02 6.88222E-02-2.15436E+00 7.62775E-02 5.31058E-02 6.95711E-01 4.80003E+01-2.19721E+01-1.75143E+01



 n o d a l   p r i n t   o u t   f o r   t i m e  s t e p   16402                              ( at time 8.1996794E+00 )

 nodal point  x-rot      y-rot       z-rot       x-rot vel   y-rot vel   z-rot vel   x-rot acc   y-rot acc   z-rot acc
    22626  3.67574E-03 1.07456E-02-1.42439E-03 4.30298E-03 7.39726E-03-1.16813E-03 3.30964E-03 1.83985E-03-6.17166E-04



 n o d a l   p r i n t   o u t   f o r   t i m e  s t e p   16602                              ( at time 8.2996694E+00 )

 nodal point  x-disp     y-disp      z-disp      x-vel       y-vel       z-vel      x-accl      y-accl      z-accl      x-coor      y-coor      z-coor
    22626  4.11416E-02 6.46370E-02-2.50649E+01 5.46882E-02 6.90834E-02-2.08470E+00 8.87168E-02 2.61192E-03 6.96694E-01 4.80053E+01-2.19652E+01-1.77264E+01



 n o d a l   p r i n t   o u t   f o r   t i m e  s t e p   16602                              ( at time 8.2996694E+00 )

 nodal point  x-rot      y-rot       z-rot       x-rot vel   y-rot vel   z-rot vel   x-rot acc   y-rot acc   z-rot acc
    22626  4.12832E-03 1.14874E-02-1.54225E-03 4.69400E-03 7.46731E-03-1.17674E-03 3.91062E-03 7.00560E-04-8.60897E-05



 n o d a l   p r i n t   o u t   f o r   t i m e  s t e p   16802                              ( at time 8.3996594E+00 )

 nodal point  x-disp     y-disp      z-disp      x-vel       y-vel       z-vel      x-accl      y-accl      z-accl      x-coor      y-coor      z-coor
    22626  4.71357E-02 7.18724E-02-2.52696E+01 6.38856E-02 7.16793E-02-2.01348E+00 9.19828E-02 2.59622E-02 7.12224E-01 4.80113E+01-2.19579E+01-1.79311E+01



 n o d a l   p r i n t   o u t   f o r   t i m e  s t e p   16802                              ( at time 8.3996594E+00 )

 nodal point  x-rot      y-rot       z-rot       x-rot vel   y-rot vel   z-rot vel   x-rot acc   y-rot acc   z-rot acc
    22626  4.61833E-03 1.22416E-02-1.66140E-03 5.06096E-03 7.62472E-03-1.15327E-03 3.66994E-03 1.57425E-03 2.34693E-04



 n o d a l   p r i n t   o u t   f o r   t i m e  s t e p   17002                              ( at time 8.4996494E+00 )

 nodal point  x-disp     y-disp      z-disp      x-vel       y-vel       z-vel      x-accl      y-accl      z-accl      x-coor      y-coor      z-coor
    22626  5.42463E-02 7.92963E-02-2.54672E+01 7.66293E-02 7.55473E-02-1.93635E+00 1.27450E-01 3.86840E-02 7.71417E-01 4.80184E+01-2.19505E+01-1.81287E+01



 n o d a l   p r i n t   o u t   f o r   t i m e  s t e p   17002                              ( at time 8.4996494E+00 )

 nodal point  x-rot      y-rot       z-rot       x-rot vel   y-rot vel   z-rot vel   x-rot acc   y-rot acc   z-rot acc
    22626  5.14914E-03 1.30074E-02-1.78020E-03 5.48328E-03 7.74946E-03-1.19309E-03 4.22359E-03 1.24762E-03-3.98241E-04



 n o d a l   p r i n t   o u t   f o r   t i m e  s t e p   17202                              ( at time 8.5996394E+00 )

 nodal point  x-disp     y-disp      z-disp      x-vel       y-vel       z-vel      x-accl      y-accl      z-accl      x-coor      y-coor      z-coor
    22626  6.25339E-02 8.68744E-02-2.56573E+01 9.03689E-02 7.75069E-02-1.86306E+00 1.37410E-01 1.95972E-02 7.32941E-01 4.80267E+01-2.19429E+01-1.83188E+01



 n o d a l   p r i n t   o u t   f o r   t i m e  s t e p   17202                              ( at time 8.5996394E+00 )

 nodal point  x-rot      y-rot       z-rot       x-rot vel   y-rot vel   z-rot vel   x-rot acc   y-rot acc   z-rot acc
    22626  5.71876E-03 1.37811E-02-1.90030E-03 5.91606E-03 7.79194E-03-1.19668E-03 4.32831E-03 4.24824E-04-3.59131E-05



 n o d a l   p r i n t   o u t   f o r   t i m e  s t e p   17402                              ( at time 8.6996293E+00 )

 nodal point  x-disp     y-disp      z-disp      x-vel       y-vel       z-vel      x-accl      y-accl      z-accl      x-coor      y-coor      z-coor
    22626  7.21823E-02 9.48167E-02-2.58395E+01 1.01918E-01 7.85397E-02-1.78715E+00 1.15506E-01 1.03294E-02 7.59157E-01 4.80364E+01-2.19350E+01-1.85010E+01



 n o d a l   p r i n t   o u t   f o r   t i m e  s t e p   17402                              ( at time 8.6996293E+00 )

 nodal point  x-rot      y-rot       z-rot       x-rot vel   y-rot vel   z-rot vel   x-rot acc   y-rot acc   z-rot acc
    22626  6.33013E-03 1.45670E-02-2.02337E-03 6.32969E-03 7.90590E-03-1.21190E-03 4.13661E-03 1.13967E-03-1.52207E-04



 n o d a l   p r i n t   o u t   f o r   t i m e  s t e p   17602                              ( at time 8.7996193E+00 )

 nodal point  x-disp     y-disp      z-disp      x-vel       y-vel       z-vel      x-accl      y-accl      z-accl      x-coor      y-coor      z-coor
    22626  8.30742E-02 1.02950E-01-2.60142E+01 1.16228E-01 8.26452E-02-1.70869E+00 1.43107E-01 4.10595E-02 7.84752E-01 4.80473E+01-2.19268E+01-1.86757E+01



 n o d a l   p r i n t   o u t   f o r   t i m e  s t e p   17602                              ( at time 8.7996193E+00 )

 nodal point  x-rot      y-rot       z-rot       x-rot vel   y-rot vel   z-rot vel   x-rot acc   y-rot acc   z-rot acc
    22626  6.98121E-03 1.53642E-02-2.14658E-03 6.70348E-03 8.04973E-03-1.26176E-03 3.73834E-03 1.43849E-03-4.98599E-04



 n o d a l   p r i n t   o u t   f o r   t i m e  s t e p   17802                              ( at time 8.8996093E+00 )

 nodal point  x-disp     y-disp      z-disp      x-vel       y-vel       z-vel      x-accl      y-accl      z-accl      x-coor      y-coor      z-coor
    22626  9.52354E-02 1.10970E-01-2.61813E+01 1.29918E-01 8.34819E-02-1.63054E+00 1.36921E-01 8.36785E-03 7.81501E-01 4.80594E+01-2.19188E+01-1.88428E+01



 n o d a l   p r i n t   o u t   f o r   t i m e  s t e p   17802                              ( at time 8.8996093E+00 )

 nodal point  x-rot      y-rot       z-rot       x-rot vel   y-rot vel   z-rot vel   x-rot acc   y-rot acc   z-rot acc
    22626  7.67114E-03 1.61705E-02-2.26962E-03 7.11161E-03 8.08215E-03-1.25467E-03 4.08167E-03 3.24217E-04 7.09181E-05



 n o d a l   p r i n t   o u t   f o r   t i m e  s t e p   18002                              ( at time 8.9995993E+00 )

 nodal point  x-disp     y-disp      z-disp      x-vel       y-vel       z-vel      x-accl      y-accl      z-accl      x-coor      y-coor      z-coor
    22626  1.08770E-01 1.19260E-01-2.63402E+01 1.41636E-01 7.98622E-02-1.55289E+00 1.17191E-01-3.62011E-02 7.76633E-01 4.80729E+01-2.19105E+01-1.90017E+01



 n o d a l   p r i n t   o u t   f o r   t i m e  s t e p   18002                              ( at time 8.9995993E+00 )

 nodal point  x-rot      y-rot       z-rot       x-rot vel   y-rot vel   z-rot vel   x-rot acc   y-rot acc   z-rot acc
    22626  8.40056E-03 1.69913E-02-2.39601E-03 7.53693E-03 8.24313E-03-1.23492E-03 4.25369E-03 1.60997E-03 1.97514E-04



 n o d a l   p r i n t   o u t   f o r   t i m e  s t e p   18202                              ( at time 9.0995893E+00 )

 nodal point  x-disp     y-disp      z-disp      x-vel       y-vel       z-vel      x-accl      y-accl      z-accl      x-coor      y-coor      z-coor
    22626  1.23774E-01 1.27465E-01-2.64912E+01 1.56486E-01 8.23728E-02-1.47026E+00 1.48512E-01 2.51087E-02 8.26366E-01 4.80880E+01-2.19023E+01-1.91527E+01



 n o d a l   p r i n t   o u t   f o r   t i m e  s t e p   18202                              ( at time 9.0995893E+00 )

 nodal point  x-rot      y-rot       z-rot       x-rot vel   y-rot vel   z-rot vel   x-rot acc   y-rot acc   z-rot acc
    22626  9.17238E-03 1.78195E-02-2.52267E-03 7.89756E-03 8.35995E-03-1.28811E-03 3.60663E-03 1.16829E-03-5.32040E-04



 n o d a l   p r i n t   o u t   f o r   t i m e  s t e p   18402                              ( at time 9.1995793E+00 )

 nodal point  x-disp     y-disp      z-disp      x-vel       y-vel       z-vel      x-accl      y-accl      z-accl      x-coor      y-coor      z-coor
    22626  1.39979E-01 1.35672E-01-2.66344E+01 1.68223E-01 8.16939E-02-1.39222E+00 1.17379E-01-6.78951E-03 7.80462E-01 4.81042E+01-2.18941E+01-1.92959E+01



 n o d a l   p r i n t   o u t   f o r   t i m e  s t e p   18402                              ( at time 9.1995793E+00 )

 nodal point  x-rot      y-rot       z-rot       x-rot vel   y-rot vel   z-rot vel   x-rot acc   y-rot acc   z-rot acc
    22626  9.98435E-03 1.86587E-02-2.65127E-03 8.32118E-03 8.44525E-03-1.26735E-03 4.23664E-03 8.53057E-04 2.07699E-04



 n o d a l   p r i n t   o u t   f o r   t i m e  s t e p   18602                              ( at time 9.2995693E+00 )

 nodal point  x-disp     y-disp      z-disp      x-vel       y-vel       z-vel      x-accl      y-accl      z-accl      x-coor      y-coor      z-coor
    22626  1.57567E-01 1.43781E-01-2.67695E+01 1.82686E-01 7.87761E-02-1.31037E+00 1.44649E-01-2.91813E-02 8.18652E-01 4.81217E+01-2.18860E+01-1.94310E+01



 n o d a l   p r i n t   o u t   f o r   t i m e  s t e p   18602                              ( at time 9.2995693E+00 )

 nodal point  x-rot      y-rot       z-rot       x-rot vel   y-rot vel   z-rot vel   x-rot acc   y-rot acc   z-rot acc
    22626  1.08372E-02 1.95065E-02-2.77972E-03 8.70894E-03 8.54093E-03-1.27913E-03 3.87794E-03 9.56928E-04-1.17832E-04



 n o d a l   p r i n t   o u t   f o r   t i m e  s t e p   18802                              ( at time 9.3995593E+00 )

 nodal point  x-disp     y-disp      z-disp      x-vel       y-vel       z-vel      x-accl      y-accl      z-accl      x-coor      y-coor      z-coor
    22626  1.76557E-01 1.51766E-01-2.68965E+01 1.96853E-01 8.02165E-02-1.23369E+00 1.41686E-01 1.44054E-02 7.66864E-01 4.81407E+01-2.18780E+01-1.95580E+01



 n o d a l   p r i n t   o u t   f o r   t i m e  s t e p   18802                              ( at time 9.3995593E+00 )

 nodal point  x-rot      y-rot       z-rot       x-rot vel   y-rot vel   z-rot vel   x-rot acc   y-rot acc   z-rot acc
    22626  1.17313E-02 2.03661E-02-2.91158E-03 9.11244E-03 8.64389E-03-1.36696E-03 4.03547E-03 1.02964E-03-8.78368E-04



 n o d a l   p r i n t   o u t   f o r   t i m e  s t e p   19002                              ( at time 9.4995493E+00 )

 nodal point  x-disp     y-disp      z-disp      x-vel       y-vel       z-vel      x-accl      y-accl      z-accl      x-coor      y-coor      z-coor
    22626  1.97052E-01 1.59603E-01-2.70156E+01 2.08696E-01 7.65578E-02-1.14528E+00 1.18441E-01-3.65907E-02 8.84179E-01 4.81612E+01-2.18702E+01-1.96771E+01



 n o d a l   p r i n t   o u t   f o r   t i m e  s t e p   19002                              ( at time 9.4995493E+00 )

 nodal point  x-rot      y-rot       z-rot       x-rot vel   y-rot vel   z-rot vel   x-rot acc   y-rot acc   z-rot acc
    22626  1.26606E-02 2.12400E-02-3.04852E-03 9.50690E-03 8.84005E-03-1.36142E-03 3.94499E-03 1.96185E-03 5.53669E-05



 n o d a l   p r i n t   o u t   f o r   t i m e  s t e p   19202                              ( at time 9.5995393E+00 )

 nodal point  x-disp     y-disp      z-disp      x-vel       y-vel       z-vel      x-accl      y-accl      z-accl      x-coor      y-coor      z-coor
    22626  2.18792E-01 1.67193E-01-2.71265E+01 2.26839E-01 7.76488E-02-1.06922E+00 1.81450E-01 1.09115E-02 7.60661E-01 4.81830E+01-2.18626E+01-1.97880E+01



 n o d a l   p r i n t   o u t   f o r   t i m e  s t e p   19202                              ( at time 9.5995393E+00 )

 nodal point  x-rot      y-rot       z-rot       x-rot vel   y-rot vel   z-rot vel   x-rot acc   y-rot acc   z-rot acc
    22626  1.36312E-02 2.21247E-02-3.18787E-03 9.90854E-03 8.88427E-03-1.41816E-03 4.01671E-03 4.42195E-04-5.67412E-04



 n o d a l   p r i n t   o u t   f o r   t i m e  s t e p   19402                              ( at time 9.6995293E+00 )

 nodal point  x-disp     y-disp      z-disp      x-vel       y-vel       z-vel      x-accl      y-accl      z-accl      x-coor      y-coor      z-coor
    22626  2.41888E-01 1.74570E-01-2.72294E+01 2.36177E-01 6.99074E-02-9.90321E-01 9.33873E-02-7.74220E-02 7.89056E-01 4.82061E+01-2.18552E+01-1.98909E+01



 n o d a l   p r i n t   o u t   f o r   t i m e  s t e p   19402                              ( at time 9.6995293E+00 )

 nodal point  x-rot      y-rot       z-rot       x-rot vel   y-rot vel   z-rot vel   x-rot acc   y-rot acc   z-rot acc
    22626  1.46359E-02 2.30206E-02-3.33175E-03 1.02436E-02 9.03682E-03-1.43811E-03 3.35086E-03 1.52565E-03-1.99501E-04



 n o d a l   p r i n t   o u t   f o r   t i m e  s t e p   19602                              ( at time 9.7995193E+00 )

 nodal point  x-disp     y-disp      z-disp      x-vel       y-vel       z-vel      x-accl      y-accl      z-accl      x-coor      y-coor      z-coor
    22626  2.66228E-01 1.81716E-01-2.73241E+01 2.48618E-01 7.08486E-02-9.07763E-01 1.24418E-01 9.41327E-03 8.25659E-01 4.82304E+01-2.18481E+01-1.99856E+01



 n o d a l   p r i n t   o u t   f o r   t i m e  s t e p   19602                              ( at time 9.7995193E+00 )

 nodal point  x-rot      y-rot       z-rot       x-rot vel   y-rot vel   z-rot vel   x-rot acc   y-rot acc   z-rot acc
    22626  1.56796E-02 2.39349E-02-3.48227E-03 1.06386E-02 9.17258E-03-1.54107E-03 3.95042E-03 1.35781E-03-1.02975E-03



 n o d a l   p r i n t   o u t   f o r   t i m e  s t e p   19802                              ( at time 9.8995093E+00 )

 nodal point  x-disp     y-disp      z-disp      x-vel       y-vel       z-vel      x-accl      y-accl      z-accl      x-coor      y-coor      z-coor
    22626  2.91783E-01 1.88382E-01-2.74109E+01 2.61982E-01 6.51094E-02-8.27123E-01 1.33655E-01-5.73985E-02 8.06481E-01 4.82560E+01-2.18414E+01-2.00724E+01



 n o d a l   p r i n t   o u t   f o r   t i m e  s t e p   19802                              ( at time 9.8995093E+00 )

 nodal point  x-rot      y-rot       z-rot       x-rot vel   y-rot vel   z-rot vel   x-rot acc   y-rot acc   z-rot acc
    22626  1.67592E-02 2.48554E-02-3.63563E-03 1.09611E-02 9.30654E-03-1.56831E-03 3.22559E-03 1.33967E-03-2.72390E-04



 n o d a l   p r i n t   o u t   f o r   t i m e  s t e p   20003                              ( at time 9.9999992E+00 )

 nodal point  x-disp     y-disp      z-disp      x-vel       y-vel       z-vel      x-accl      y-accl      z-accl      x-coor      y-coor      z-coor
[...]
    22626  2.28850E-01 1.48249E-01-3.67461E-02 1.83822E-02 7.81779E-03-5.68448E-03-3.71073E-04-3.57940E-05 6.89847E-05



 n o d a l   p r i n t   o u t   f o r   t i m e  s t e p   45205                              ( at time 2.2599738E+01 )

 nodal point  x-disp     y-disp      z-disp      x-vel       y-vel       z-vel      x-accl      y-accl      z-accl      x-coor      y-coor      z-coor
    22626  4.57910E+00-1.52355E+00-2.22320E+01 2.99585E-01-2.00809E-01 5.40227E-01 9.30365E-03-3.02924E-03 2.08039E-04 5.25433E+01-2.35533E+01-1.48935E+01



 n o d a l   p r i n t   o u t   f o r   t i m e  s t e p   45205                              ( at time 2.2599738E+01 )

 nodal point  x-rot      y-rot       z-rot       x-rot vel   y-rot vel   z-rot vel   x-rot acc   y-rot acc   z-rot acc
    22626  2.30687E-01 1.49031E-01-3.73144E-02 1.83503E-02 7.82223E-03-5.67282E-03-3.18746E-04 4.43909E-05 1.16677E-04



 n o d a l   p r i n t   o u t   f o r   t i m e  s t e p   45405                              ( at time 2.2699728E+01 )

 nodal point  x-disp     y-disp      z-disp      x-vel       y-vel       z-vel      x-accl      y-accl      z-accl      x-coor      y-coor      z-coor
    22626  4.60909E+00-1.54364E+00-2.21779E+01 3.00620E-01-2.01341E-01 5.41297E-01 1.03545E-02-5.32358E-03 1.07056E-02 5.25733E+01-2.35734E+01-1.48394E+01



 n o d a l   p r i n t   o u t   f o r   t i m e  s t e p   45405                              ( at time 2.2699728E+01 )

 nodal point  x-rot      y-rot       z-rot       x-rot vel   y-rot vel   z-rot vel   x-rot acc   y-rot acc   z-rot acc
    22626  2.32520E-01 1.49813E-01-3.78818E-02 1.83152E-02 7.82238E-03-5.66469E-03-3.51222E-04 1.50891E-06 8.12762E-05



 n o d a l   p r i n t   o u t   f o r   t i m e  s t e p   45605                              ( at time 2.2799718E+01 )

 nodal point  x-disp     y-disp      z-disp      x-vel       y-vel       z-vel      x-accl      y-accl      z-accl      x-coor      y-coor      z-coor
    22626  4.63921E+00-1.56381E+00-2.21237E+01 3.01827E-01-2.02266E-01 5.42761E-01 1.20669E-02-9.25417E-03 1.46367E-02 5.26034E+01-2.35936E+01-1.47852E+01



 n o d a l   p r i n t   o u t   f o r   t i m e  s t e p   45605                              ( at time 2.2799718E+01 )

 nodal point  x-rot      y-rot       z-rot       x-rot vel   y-rot vel   z-rot vel   x-rot acc   y-rot acc   z-rot acc
    22626  2.34350E-01 1.50595E-01-3.84479E-02 1.82917E-02 7.83755E-03-5.65315E-03-2.35404E-04 1.51764E-04 1.15392E-04



 n o d a l   p r i n t   o u t   f o r   t i m e  s t e p   45805                              ( at time 2.2899708E+01 )

 nodal point  x-disp     y-disp      z-disp      x-vel       y-vel       z-vel      x-accl      y-accl      z-accl      x-coor      y-coor      z-coor
    22626  4.66948E+00-1.58411E+00-2.20695E+01 3.03286E-01-2.03715E-01 5.42874E-01 1.45943E-02-1.44872E-02 1.12546E-03 5.26337E+01-2.36139E+01-1.47310E+01



 n o d a l   p r i n t   o u t   f o r   t i m e  s t e p   45805                              ( at time 2.2899708E+01 )

 nodal point  x-rot      y-rot       z-rot       x-rot vel   y-rot vel   z-rot vel   x-rot acc   y-rot acc   z-rot acc
    22626  2.36177E-01 1.51379E-01-3.90122E-02 1.82534E-02 7.83771E-03-5.62986E-03-3.82704E-04 1.61137E-06 2.32954E-04



 n o d a l   p r i n t   o u t   f o r   t i m e  s t e p   46005                              ( at time 2.2999698E+01 )

 nodal point  x-disp     y-disp      z-disp      x-vel       y-vel       z-vel      x-accl      y-accl      z-accl      x-coor      y-coor      z-coor
    22626  4.69989E+00-1.60454E+00-2.20151E+01 3.04800E-01-2.05154E-01 5.43797E-01 1.51383E-02-1.43896E-02 9.23420E-03 5.26641E+01-2.36343E+01-1.46766E+01



 n o d a l   p r i n t   o u t   f o r   t i m e  s t e p   46005                              ( at time 2.2999698E+01 )

 nodal point  x-rot      y-rot       z-rot       x-rot vel   y-rot vel   z-rot vel   x-rot acc   y-rot acc   z-rot acc
    22626  2.38002E-01 1.52163E-01-3.95744E-02 1.82375E-02 7.84308E-03-5.61222E-03-1.59513E-04 5.37050E-05 1.76371E-04



 n o d a l   p r i n t   o u t   f o r   t i m e  s t e p   46205                              ( at time 2.3099688E+01 )

 nodal point  x-disp     y-disp      z-disp      x-vel       y-vel       z-vel      x-accl      y-accl      z-accl      x-coor      y-coor      z-coor
    22626  4.73047E+00-1.62515E+00-2.19607E+01 3.07038E-01-2.07125E-01 5.45190E-01 2.23855E-02-1.97119E-02 1.39300E-02 5.26946E+01-2.36549E+01-1.46222E+01



 n o d a l   p r i n t   o u t   f o r   t i m e  s t e p   46205                              ( at time 2.3099688E+01 )

 nodal point  x-rot      y-rot       z-rot       x-rot vel   y-rot vel   z-rot vel   x-rot acc   y-rot acc   z-rot acc
    22626  2.39824E-01 1.52948E-01-4.01343E-02 1.82052E-02 7.86066E-03-5.58245E-03-3.22534E-04 1.75779E-04 2.97814E-04



 n o d a l   p r i n t   o u t   f o r   t i m e  s t e p   46405                              ( at time 2.3199678E+01 )

 nodal point  x-disp     y-disp      z-disp      x-vel       y-vel       z-vel      x-accl      y-accl      z-accl      x-coor      y-coor      z-coor
    22626  4.76124E+00-1.64596E+00-2.19062E+01 3.08597E-01-2.09106E-01 5.44977E-01 1.55907E-02-1.98153E-02-2.12868E-03 5.27254E+01-2.36757E+01-1.45677E+01



 n o d a l   p r i n t   o u t   f o r   t i m e  s t e p   46405                              ( at time 2.3199678E+01 )

 nodal point  x-rot      y-rot       z-rot       x-rot vel   y-rot vel   z-rot vel   x-rot acc   y-rot acc   z-rot acc
    22626  2.41643E-01 1.53734E-01-4.06914E-02 1.81756E-02 7.86087E-03-5.55515E-03-2.96542E-04 2.09567E-06 2.72972E-04



 n o d a l   p r i n t   o u t   f o r   t i m e  s t e p   46605                              ( at time 2.3299668E+01 )

 nodal point  x-disp     y-disp      z-disp      x-vel       y-vel       z-vel      x-accl      y-accl      z-accl      x-coor      y-coor      z-coor
    22626  4.79218E+00-1.66693E+00-2.18516E+01 3.10215E-01-2.10448E-01 5.46791E-01 1.61830E-02-1.34207E-02 1.81391E-02 5.27564E+01-2.36967E+01-1.45131E+01



 n o d a l   p r i n t   o u t   f o r   t i m e  s t e p   46605                              ( at time 2.3299668E+01 )

 nodal point  x-rot      y-rot       z-rot       x-rot vel   y-rot vel   z-rot vel   x-rot acc   y-rot acc   z-rot acc
    22626  2.43459E-01 1.54521E-01-4.12455E-02 1.81486E-02 7.87056E-03-5.52884E-03-2.69331E-04 9.69335E-05 2.63137E-04



 n o d a l   p r i n t   o u t   f o r   t i m e  s t e p   46805                              ( at time 2.3399658E+01 )

 nodal point  x-disp     y-disp      z-disp      x-vel       y-vel       z-vel      x-accl      y-accl      z-accl      x-coor      y-coor      z-coor
    22626  4.82332E+00-1.68813E+00-2.17969E+01 3.12611E-01-2.13191E-01 5.47468E-01 2.39549E-02-2.74305E-02 6.77230E-03 5.27875E+01-2.37179E+01-1.44584E+01



 n o d a l   p r i n t   o u t   f o r   t i m e  s t e p   46805                              ( at time 2.3399658E+01 )

 nodal point  x-rot      y-rot       z-rot       x-rot vel   y-rot vel   z-rot vel   x-rot acc   y-rot acc   z-rot acc
    22626  2.45272E-01 1.55309E-01-4.17964E-02 1.81237E-02 7.89343E-03-5.49292E-03-2.49338E-04 2.28754E-04 3.59207E-04



 n o d a l   p r i n t   o u t   f o r   t i m e  s t e p   47005                              ( at time 2.3499648E+01 )

 nodal point  x-disp     y-disp      z-disp      x-vel       y-vel       z-vel      x-accl      y-accl      z-accl      x-coor      y-coor      z-coor
    22626  4.85468E+00-1.70955E+00-2.17421E+01 3.14448E-01-2.15135E-01 5.47988E-01 1.83793E-02-1.94421E-02 5.20635E-03 5.28189E+01-2.37393E+01-1.44036E+01



 n o d a l   p r i n t   o u t   f o r   t i m e  s t e p   47005                              ( at time 2.3499648E+01 )

 nodal point  x-rot      y-rot       z-rot       x-rot vel   y-rot vel   z-rot vel   x-rot acc   y-rot acc   z-rot acc
    22626  2.47082E-01 1.56098E-01-4.23438E-02 1.80889E-02 7.88926E-03-5.45876E-03-3.48309E-04-4.17736E-05 3.41668E-04



 n o d a l   p r i n t   o u t   f o r   t i m e  s t e p   47205                              ( at time 2.3599638E+01 )

 nodal point  x-disp     y-disp      z-disp      x-vel       y-vel       z-vel      x-accl      y-accl      z-accl      x-coor      y-coor      z-coor
    22626  4.88623E+00-1.73118E+00-2.16873E+01 3.16528E-01-2.17338E-01 5.48366E-01 2.08034E-02-2.20360E-02 3.77697E-03 5.28504E+01-2.37610E+01-1.43488E+01



 n o d a l   p r i n t   o u t   f o r   t i m e  s t e p   47205                              ( at time 2.3599638E+01 )

 nodal point  x-rot      y-rot       z-rot       x-rot vel   y-rot vel   z-rot vel   x-rot acc   y-rot acc   z-rot acc
    22626  2.48890E-01 1.56888E-01-4.28880E-02 1.80745E-02 7.90875E-03-5.42413E-03-1.43533E-04 1.94929E-04 3.46388E-04



 n o d a l   p r i n t   o u t   f o r   t i m e  s t e p   47405                              ( at time 2.3699628E+01 )

 nodal point  x-disp     y-disp      z-disp      x-vel       y-vel       z-vel      x-accl      y-accl      z-accl      x-coor      y-coor      z-coor
    22626  4.91798E+00-1.75302E+00-2.16324E+01 3.18448E-01-2.19653E-01 5.49306E-01 1.92010E-02-2.31475E-02 9.39753E-03 5.28822E+01-2.37828E+01-1.42939E+01



 n o d a l   p r i n t   o u t   f o r   t i m e  s t e p   47405                              ( at time 2.3699628E+01 )

 nodal point  x-rot      y-rot       z-rot       x-rot vel   y-rot vel   z-rot vel   x-rot acc   y-rot acc   z-rot acc
    22626  2.50696E-01 1.57679E-01-4.34286E-02 1.80423E-02 7.91787E-03-5.38643E-03-3.22435E-04 9.12780E-05 3.77001E-04



 n o d a l   p r i n t   o u t   f o r   t i m e  s t e p   47605                              ( at time 2.3799618E+01 )

 nodal point  x-disp     y-disp      z-disp      x-vel       y-vel       z-vel      x-accl      y-accl      z-accl      x-coor      y-coor      z-coor
    22626  4.94993E+00-1.77506E+00-2.15775E+01 3.20482E-01-2.21512E-01 5.49159E-01 2.03370E-02-1.85960E-02-1.47061E-03 5.29141E+01-2.38049E+01-1.42390E+01



 n o d a l   p r i n t   o u t   f o r   t i m e  s t e p   47605                              ( at time 2.3799618E+01 )

 nodal point  x-rot      y-rot       z-rot       x-rot vel   y-rot vel   z-rot vel   x-rot acc   y-rot acc   z-rot acc
    22626  2.52500E-01 1.58472E-01-4.39659E-02 1.80353E-02 7.92694E-03-5.35927E-03-6.95961E-05 9.07022E-05 2.71618E-04



 n o d a l   p r i n t   o u t   f o r   t i m e  s t e p   47805                              ( at time 2.3899608E+01 )

 nodal point  x-disp     y-disp      z-disp      x-vel       y-vel       z-vel      x-accl      y-accl      z-accl      x-coor      y-coor      z-coor
    22626  4.98206E+00-1.79730E+00-2.15226E+01 3.22195E-01-2.23191E-01 5.48901E-01 1.71313E-02-1.67898E-02-2.57337E-03 5.29462E+01-2.38271E+01-1.41841E+01



 n o d a l   p r i n t   o u t   f o r   t i m e  s t e p   47805                              ( at time 2.3899608E+01 )

 nodal point  x-rot      y-rot       z-rot       x-rot vel   y-rot vel   z-rot vel   x-rot acc   y-rot acc   z-rot acc
    22626  2.54302E-01 1.59265E-01-4.44997E-02 1.80204E-02 7.93666E-03-5.32715E-03-1.49100E-04 9.71738E-05 3.21219E-04



 n o d a l   p r i n t   o u t   f o r   t i m e  s t e p   48005                              ( at time 2.3999598E+01 )

 nodal point  x-disp     y-disp      z-disp      x-vel       y-vel       z-vel      x-accl      y-accl      z-accl      x-coor      y-coor      z-coor
    22626  5.01437E+00-1.81971E+00-2.14677E+01 3.24181E-01-2.25013E-01 5.48612E-01 1.98672E-02-1.82261E-02-2.89532E-03 5.29786E+01-2.38495E+01-1.41292E+01



 n o d a l   p r i n t   o u t   f o r   t i m e  s t e p   48005                              ( at time 2.3999598E+01 )

 nodal point  x-rot      y-rot       z-rot       x-rot vel   y-rot vel   z-rot vel   x-rot acc   y-rot acc   z-rot acc
    22626  2.56103E-01 1.60059E-01-4.50304E-02 1.80049E-02 7.94377E-03-5.28773E-03-1.55194E-04 7.10957E-05 3.94258E-04



 n o d a l   p r i n t   o u t   f o r   t i m e  s t e p   48205                              ( at time 2.4099588E+01 )

 nodal point  x-disp     y-disp      z-disp      x-vel       y-vel       z-vel      x-accl      y-accl      z-accl      x-coor      y-coor      z-coor
    22626  5.04686E+00-1.84227E+00-2.14129E+01 3.25795E-01-2.26284E-01 5.48427E-01 1.61403E-02-1.27105E-02-1.84493E-03 5.30110E+01-2.38721E+01-1.40744E+01



 n o d a l   p r i n t   o u t   f o r   t i m e  s t e p   48205                              ( at time 2.4099588E+01 )

 nodal point  x-rot      y-rot       z-rot       x-rot vel   y-rot vel   z-rot vel   x-rot acc   y-rot acc   z-rot acc
    22626  2.57904E-01 1.60853E-01-4.55580E-02 1.80028E-02 7.94954E-03-5.26284E-03-2.13479E-05 5.76821E-05 2.48947E-04



 n o d a l   p r i n t   o u t   f o r   t i m e  s t e p   48405                              ( at time 2.4199578E+01 )

 nodal point  x-disp     y-disp      z-disp      x-vel       y-vel       z-vel      x-accl      y-accl      z-accl      x-coor      y-coor      z-coor
    22626  5.07950E+00-1.86496E+00-2.13581E+01 3.27036E-01-2.27306E-01 5.47812E-01 1.24096E-02-1.02227E-02-6.15605E-03 5.30437E+01-2.38947E+01-1.40196E+01



 n o d a l   p r i n t   o u t   f o r   t i m e  s t e p   48405                              ( at time 2.4199578E+01 )

 nodal point  x-rot      y-rot       z-rot       x-rot vel   y-rot vel   z-rot vel   x-rot acc   y-rot acc   z-rot acc
    22626  2.59703E-01 1.61648E-01-4.60828E-02 1.79866E-02 7.95799E-03-5.23890E-03-1.61714E-04 8.45176E-05 2.39442E-04



 n o d a l   p r i n t   o u t   f o r   t i m e  s t e p   48605                              ( at time 2.4299568E+01 )

 nodal point  x-disp     y-disp      z-disp      x-vel       y-vel       z-vel      x-accl      y-accl      z-accl      x-coor      y-coor      z-coor
    22626  5.11226E+00-1.88775E+00-2.13033E+01 3.28474E-01-2.28282E-01 5.47144E-01 1.43815E-02-9.75475E-03-6.67514E-03 5.30764E+01-2.39175E+01-1.39648E+01



 n o d a l   p r i n t   o u t   f o r   t i m e  s t e p   48605                              ( at time 2.4299568E+01 )

 nodal point  x-rot      y-rot       z-rot       x-rot vel   y-rot vel   z-rot vel   x-rot acc   y-rot acc   z-rot acc
    22626  2.61501E-01 1.62444E-01-4.66048E-02 1.79795E-02 7.95280E-03-5.21015E-03-7.07684E-05-5.19167E-05 2.87516E-04



 n o d a l   p r i n t   o u t   f o r   t i m e  s t e p   48805                              ( at time 2.4399558E+01 )

 nodal point  x-disp     y-disp      z-disp      x-vel       y-vel       z-vel      x-accl      y-accl      z-accl      x-coor      y-coor      z-coor
    22626  5.14517E+00-1.91059E+00-2.12486E+01 3.29420E-01-2.28752E-01 5.46780E-01 9.45714E-03-4.69877E-03-3.64039E-03 5.31093E+01-2.39404E+01-1.39101E+01



 n o d a l   p r i n t   o u t   f o r   t i m e  s t e p   48805                              ( at time 2.4399558E+01 )

 nodal point  x-rot      y-rot       z-rot       x-rot vel   y-rot vel   z-rot vel   x-rot acc   y-rot acc   z-rot acc
    22626  2.63298E-01 1.63240E-01-4.71245E-02 1.79652E-02 7.96443E-03-5.18616E-03-1.43306E-04 1.16314E-04 2.39898E-04



 n o d a l   p r i n t   o u t   f o r   t i m e  s t e p   49006                              ( at time 2.4500048E+01 )

 nodal point  x-disp     y-disp      z-disp      x-vel       y-vel       z-vel      x-accl      y-accl      z-accl      x-coor      y-coor      z-coor
    22626  5.17834E+00-1.93360E+00-2.11938E+01 3.30522E-01-2.29068E-01 5.45291E-01 1.09703E-02-3.15154E-03-1.48251E-02 5.31425E+01-2.39634E+01-1.38553E+01



 n o d a l   p r i n t   o u t   f o r   t i m e  s t e p   49006                              ( at time 2.4500048E+01 )

 nodal point  x-rot      y-rot       z-rot       x-rot vel   y-rot vel   z-rot vel   x-rot acc   y-rot acc   z-rot acc
    22626  2.65103E-01 1.64040E-01-4.76449E-02 1.79685E-02 7.96619E-03-5.16837E-03 3.35129E-05 1.75627E-05 1.77018E-04



 n o d a l   p r i n t   o u t   f o r   t i m e  s t e p   49206                              ( at time 2.4600038E+01 )

 nodal point  x-disp     y-disp      z-disp      x-vel       y-vel       z-vel      x-accl      y-accl      z-accl      x-coor      y-coor      z-coor
    22626  5.21142E+00-1.95648E+00-2.11393E+01 3.30928E-01-2.28814E-01 5.44182E-01 4.06034E-03 2.54103E-03-1.10833E-02 5.31756E+01-2.39863E+01-1.38008E+01



 n o d a l   p r i n t   o u t   f o r   t i m e  s t e p   49206                              ( at time 2.4600038E+01 )

 nodal point  x-rot      y-rot       z-rot       x-rot vel   y-rot vel   z-rot vel   x-rot acc   y-rot acc   z-rot acc
    22626  2.66900E-01 1.64837E-01-4.81612E-02 1.79637E-02 7.95912E-03-5.15062E-03-4.88989E-05-7.07311E-05 1.77517E-04



 n o d a l   p r i n t   o u t   f o r   t i m e  s t e p   49406                              ( at time 2.4700028E+01 )

 nodal point  x-disp     y-disp      z-disp      x-vel       y-vel       z-vel      x-accl      y-accl      z-accl      x-coor      y-coor      z-coor
    22626  5.24455E+00-1.97931E+00-2.10850E+01 3.31714E-01-2.28019E-01 5.42999E-01 7.86362E-03 7.94975E-03-1.18304E-02 5.32087E+01-2.40091E+01-1.37465E+01



 n o d a l   p r i n t   o u t   f o r   t i m e  s t e p   49406                              ( at time 2.4700028E+01 )

 nodal point  x-rot      y-rot       z-rot       x-rot vel   y-rot vel   z-rot vel   x-rot acc   y-rot acc   z-rot acc
    22626  2.68696E-01 1.65633E-01-4.86760E-02 1.79705E-02 7.96016E-03-5.14688E-03 6.81431E-05 1.04227E-05 3.74526E-05



 n o d a l   p r i n t   o u t   f o r   t i m e  s t e p   49606                              ( at time 2.4800018E+01 )

 nodal point  x-disp     y-disp      z-disp      x-vel       y-vel       z-vel      x-accl      y-accl      z-accl      x-coor      y-coor      z-coor
    22626  5.27774E+00-2.00210E+00-2.10307E+01 3.31788E-01-2.27265E-01 5.41382E-01 7.34098E-04 7.53859E-03-1.61764E-02 5.32419E+01-2.40319E+01-1.36922E+01



 n o d a l   p r i n t   o u t   f o r   t i m e  s t e p   49606                              ( at time 2.4800018E+01 )

 nodal point  x-rot      y-rot       z-rot       x-rot vel   y-rot vel   z-rot vel   x-rot acc   y-rot acc   z-rot acc
    22626  2.70493E-01 1.66428E-01-4.91900E-02 1.79771E-02 7.95086E-03-5.14250E-03 6.66143E-05-9.30663E-05 4.37343E-05



 n o d a l   p r i n t   o u t   f o r   t i m e  s t e p   49806                              ( at time 2.4900008E+01 )

 nodal point  x-disp     y-disp      z-disp      x-vel       y-vel       z-vel      x-accl      y-accl      z-accl      x-coor      y-coor      z-coor
    22626  5.31094E+00-2.02475E+00-2.09767E+01 3.32155E-01-2.25578E-01 5.39596E-01 3.67146E-03 1.68730E-02-1.78613E-02 5.32751E+01-2.40545E+01-1.36382E+01



 n o d a l   p r i n t   o u t   f o r   t i m e  s t e p   49806                              ( at time 2.4900008E+01 )

 nodal point  x-rot      y-rot       z-rot       x-rot vel   y-rot vel   z-rot vel   x-rot acc   y-rot acc   z-rot acc
    22626  2.72291E-01 1.67223E-01-4.97033E-02 1.79787E-02 7.94341E-03-5.13001E-03 1.52568E-05-7.44302E-05 1.24955E-04



 n o d a l   p r i n t   o u t   f o r   t i m e  s t e p   50006                              ( at time 2.4999998E+01 )

 nodal point  x-disp     y-disp      z-disp      x-vel       y-vel       z-vel      x-accl      y-accl      z-accl      x-coor      y-coor      z-coor
    22626  5.34415E+00-2.04724E+00-2.09228E+01 3.32133E-01-2.24030E-01 5.38062E-01-2.17279E-04 1.54870E-02-1.53424E-02 5.33083E+01-2.40770E+01-1.35843E+01



 n o d a l   p r i n t   o u t   f o r   t i m e  s t e p   50006                              ( at time 2.4999998E+01 )

 nodal point  x-rot      y-rot       z-rot       x-rot vel   y-rot vel   z-rot vel   x-rot acc   y-rot acc   z-rot acc
    22626  2.74089E-01 1.68016E-01-5.02162E-02 1.79909E-02 7.93188E-03-5.13428E-03 1.22443E-04-1.15383E-04-4.27609E-05
