 LSTC 50th% Full_FE H-III Dummy (Beta Version, February 17, 2019)        
                    ls-dyna smp s R16 R16.0_619_d222963 date 03/18/2025

{BEGIN LEGEND}
 Entity #        Title
    22626                                                                                     
{END LEGEND}




 n o d a l   p r i n t   o u t   f o r   t i m e  s t e p       1                              ( at time 0.0000000E+00 )

 nodal point  x-disp     y-disp      z-disp      x-vel       y-vel       z-vel      x-accl      y-accl      z-accl      x-coor      y-coor      z-coor
    22626  0.00000E+00 0.00000E+00 0.00000E+00 0.00000E+00 0.00000E+00-3.12000E+00 0.00000E+00 0.00000E+00 0.00000E+00 4.79642E+01-2.20298E+01 7.33850E+00



 n o d a l   p r i n t   o u t   f o r   t i m e  s t e p       1                              ( at time 0.0000000E+00 )

 nodal point  x-rot      y-rot       z-rot       x-rot vel   y-rot vel   z-rot vel   x-rot acc   y-rot acc   z-rot acc
    22626  0.00000E+00 0.00000E+00 0.00000E+00 0.00000E+00 0.00000E+00 0.00000E+00 0.00000E+00 0.00000E+00 0.00000E+00



 n o d a l   p r i n t   o u t   f o r   t i m e  s t e p     201                              ( at time 9.9989993E-02 )

 nodal point  x-disp     y-disp      z-disp      x-vel       y-vel       z-vel      x-accl      y-accl      z-accl      x-coor      y-coor      z-coor
    22626  8.34282E-07-4.04557E-06-3.12016E-01 4.76539E-05-4.96478E-04-3.12074E+00 4.76587E-04-4.96528E-03-7.42748E-03 4.79642E+01-2.20298E+01 7.02648E+00



 n o d a l   p r i n t   o u t   f o r   t i m e  s t e p     201                              ( at time 9.9989993E-02 )

 nodal point  x-rot      y-rot       z-rot       x-rot vel   y-rot vel   z-rot vel   x-rot acc   y-rot acc   z-rot acc
    22626  9.61139E-09 3.04073E-08 5.27143E-08 1.30680E-06 2.72148E-06 5.21168E-06 1.30693E-05 2.72176E-05 5.21220E-05



 n o d a l   p r i n t   o u t   f o r   t i m e  s t e p     401                              ( at time 1.9997999E-01 )

 nodal point  x-disp     y-disp      z-disp      x-vel       y-vel       z-vel      x-accl      y-accl      z-accl      x-coor      y-coor      z-coor
    22626 -5.12735E-05-5.21565E-04-6.23853E-01-1.09609E-03-1.11141E-02-3.11558E+00-1.14386E-02-1.06187E-01 5.16276E-02 4.79641E+01-2.20303E+01 6.71465E+00



 n o d a l   p r i n t   o u t   f o r   t i m e  s t e p     401                              ( at time 1.9997999E-01 )

 nodal point  x-rot      y-rot       z-rot       x-rot vel   y-rot vel   z-rot vel   x-rot acc   y-rot acc   z-rot acc
    22626  4.60454E-07 1.32991E-06 2.50246E-06 2.64395E-06 1.90543E-05 3.49658E-05 1.33728E-05 1.63345E-04 2.97571E-04



 n o d a l   p r i n t   o u t   f o r   t i m e  s t e p     601                              ( at time 2.9996998E-01 )

 nodal point  x-disp     y-disp      z-disp      x-vel       y-vel       z-vel      x-accl      y-accl      z-accl      x-coor      y-coor      z-coor
    22626 -2.45636E-05-1.97636E-03-9.35238E-01 1.66106E-03-1.60465E-02-3.11415E+00 2.75742E-02-4.93288E-02 1.43232E-02 4.79642E+01-2.20318E+01 6.40326E+00



 n o d a l   p r i n t   o u t   f o r   t i m e  s t e p     601                              ( at time 2.9996998E-01 )

 nodal point  x-rot      y-rot       z-rot       x-rot vel   y-rot vel   z-rot vel   x-rot acc   y-rot acc   z-rot acc
    22626  6.75347E-07 2.41139E-06 4.82802E-06 8.28755E-06 5.34954E-06 1.46743E-05 5.64416E-05-1.37062E-04-2.02935E-04



 n o d a l   p r i n t   o u t   f o r   t i m e  s t e p     801                              ( at time 3.9995997E-01 )

 nodal point  x-disp     y-disp      z-disp      x-vel       y-vel       z-vel      x-accl      y-accl      z-accl      x-coor      y-coor      z-coor
    22626  5.94244E-05-3.57405E-03-1.24663E+00 1.95010E-04-1.73904E-02-3.11353E+00-1.46619E-02-1.34408E-02 6.15658E-03 4.79642E+01-2.20334E+01 6.09187E+00



 n o d a l   p r i n t   o u t   f o r   t i m e  s t e p     801                              ( at time 3.9995997E-01 )

 nodal point  x-rot      y-rot       z-rot       x-rot vel   y-rot vel   z-rot vel   x-rot acc   y-rot acc   z-rot acc
    22626  1.58197E-06 3.68076E-06 6.68010E-06 6.23485E-06 2.43688E-05 3.83737E-05-2.05290E-05 1.90212E-04 2.37018E-04



 n o d a l   p r i n t   o u t   f o r   t i m e  s t e p    1001                              ( at time 4.9994997E-01 )

 nodal point  x-disp     y-disp      z-disp      x-vel       y-vel       z-vel      x-accl      y-accl      z-accl      x-coor      y-coor      z-coor
    22626  7.27595E-05-5.63143E-03-1.55782E+00 8.90817E-04-2.38470E-02-3.11085E+00 6.95877E-03-6.45723E-02 2.67962E-02 4.79643E+01-2.20354E+01 5.78068E+00



 n o d a l   p r i n t   o u t   f o r   t i m e  s t e p    1001                              ( at time 4.9994997E-01 )

 nodal point  x-rot      y-rot       z-rot       x-rot vel   y-rot vel   z-rot vel   x-rot acc   y-rot acc   z-rot acc
    22626  1.49409E-06 6.64875E-06 1.18376E-05-4.86387E-06 4.38130E-05 7.20661E-05-1.10998E-04 1.94462E-04 3.36958E-04



 n o d a l   p r i n t   o u t   f o r   t i m e  s t e p    1201                              ( at time 5.9993996E-01 )

 nodal point  x-disp     y-disp      z-disp      x-vel       y-vel       z-vel      x-accl      y-accl      z-accl      x-coor      y-coor      z-coor
    22626  5.29848E-05-8.13744E-03-1.86888E+00-5.68251E-04-2.61250E-02-3.11084E+00-1.45921E-02-2.27820E-02 1.38297E-04 4.79642E+01-2.20379E+01 5.46962E+00



 n o d a l   p r i n t   o u t   f o r   t i m e  s t e p    1201                              ( at time 5.9993996E-01 )

 nodal point  x-rot      y-rot       z-rot       x-rot vel   y-rot vel   z-rot vel   x-rot acc   y-rot acc   z-rot acc
    22626  1.26544E-06 9.87481E-06 1.77367E-05-2.14754E-06 2.62668E-05 5.28409E-05 2.71660E-05-1.75480E-04-1.92271E-04



 n o d a l   p r i n t   o u t   f o r   t i m e  s t e p    1401                              ( at time 6.9992995E-01 )

 nodal point  x-disp     y-disp      z-disp      x-vel       y-vel       z-vel      x-accl      y-accl      z-accl      x-coor      y-coor      z-coor
    22626  1.96795E-05-1.10207E-02-2.17976E+00 7.17198E-04-3.22390E-02-3.10770E+00 1.28558E-02-6.11469E-02 3.14386E-02 4.79642E+01-2.20408E+01 5.15874E+00



 n o d a l   p r i n t   o u t   f o r   t i m e  s t e p    1401                              ( at time 6.9992995E-01 )

 nodal point  x-rot      y-rot       z-rot       x-rot vel   y-rot vel   z-rot vel   x-rot acc   y-rot acc   z-rot acc
    22626  1.10177E-06 1.30695E-05 2.27046E-05-2.43286E-06 3.78924E-05 5.94612E-05-2.85347E-06 1.16267E-04 6.62096E-05



 n o d a l   p r i n t   o u t   f o r   t i m e  s t e p    1601                              ( at time 7.9991994E-01 )

 nodal point  x-disp     y-disp      z-disp      x-vel       y-vel       z-vel      x-accl      y-accl      z-accl      x-coor      y-coor      z-coor
    22626  1.33049E-04-1.45710E-02-2.49038E+00 1.36975E-03-3.68161E-02-3.10600E+00 6.52617E-03-4.57748E-02 1.69604E-02 4.79643E+01-2.20444E+01 4.84812E+00



 n o d a l   p r i n t   o u t   f o r   t i m e  s t e p    1601                              ( at time 7.9991994E-01 )

 nodal point  x-rot      y-rot       z-rot       x-rot vel   y-rot vel   z-rot vel   x-rot acc   y-rot acc   z-rot acc
    22626  1.00668E-06 1.72058E-05 2.96650E-05 2.91536E-06 4.87755E-05 7.64411E-05 5.34875E-05 1.08842E-04 1.69815E-04



 n o d a l   p r i n t   o u t   f o r   t i m e  s t e p    1801                              ( at time 8.9990994E-01 )

 nodal point  x-disp     y-disp      z-disp      x-vel       y-vel       z-vel      x-accl      y-accl      z-accl      x-coor      y-coor      z-coor
    22626  2.07369E-04-1.82141E-02-2.80104E+00-5.11001E-04-3.64296E-02-3.10742E+00-1.88094E-02 3.86534E-03-1.42088E-02 4.79644E+01-2.20480E+01 4.53746E+00



 n o d a l   p r i n t   o u t   f o r   t i m e  s t e p    1801                              ( at time 8.9990994E-01 )

 nodal point  x-rot      y-rot       z-rot       x-rot vel   y-rot vel   z-rot vel   x-rot acc   y-rot acc   z-rot acc
    22626  1.02457E-06 2.13197E-05 3.66558E-05-1.87555E-06 3.79246E-05 6.81960E-05-4.79139E-05-1.08520E-04-8.24587E-05



 n o d a l   p r i n t   o u t   f o r   t i m e  s t e p    2001                              ( at time 9.9989993E-01 )

 nodal point  x-disp     y-disp      z-disp      x-vel       y-vel       z-vel      x-accl      y-accl      z-accl      x-coor      y-coor      z-coor
    22626  1.09792E-04-2.19276E-02-3.11175E+00-8.16499E-04-3.84002E-02-3.10755E+00-3.05528E-03-1.97086E-02-1.33528E-03 4.79643E+01-2.20517E+01 4.22675E+00



 n o d a l   p r i n t   o u t   f o r   t i m e  s t e p    2001                              ( at time 9.9989993E-01 )

 nodal point  x-rot      y-rot       z-rot       x-rot vel   y-rot vel   z-rot vel   x-rot acc   y-rot acc   z-rot acc
    22626  8.56060E-07 2.55326E-05 4.38497E-05-8.65156E-07 4.62848E-05 8.61352E-05 1.01050E-05 8.36106E-05 1.79410E-04



 n o d a l   p r i n t   o u t   f o r   t i m e  s t e p    2201                              ( at time 1.0998899E+00 )

 nodal point  x-disp     y-disp      z-disp      x-vel       y-vel       z-vel      x-accl      y-accl      z-accl      x-coor      y-coor      z-coor
    22626  9.18841E-05-2.58761E-02-3.42246E+00-2.14626E-04-4.02556E-02-3.10712E+00 6.01934E-03-1.85552E-02 4.32296E-03 4.79643E+01-2.20557E+01 3.91605E+00



 n o d a l   p r i n t   o u t   f o r   t i m e  s t e p    2201                              ( at time 1.0998899E+00 )

 nodal point  x-rot      y-rot       z-rot       x-rot vel   y-rot vel   z-rot vel   x-rot acc   y-rot acc   z-rot acc
    22626  9.33890E-07 3.03123E-05 5.24797E-05 5.36012E-06 4.64854E-05 7.51319E-05 6.22590E-05 2.00556E-06-1.10044E-04



 n o d a l   p r i n t   o u t   f o r   t i m e  s t e p    2401                              ( at time 1.1998799E+00 )

 nodal point  x-disp     y-disp      z-disp      x-vel       y-vel       z-vel      x-accl      y-accl      z-accl      x-coor      y-coor      z-coor
    22626  1.34236E-04-2.98901E-02-3.73320E+00 7.30848E-04-3.98031E-02-3.10850E+00 9.45568E-03 4.52471E-03-1.37367E-02 4.79643E+01-2.20597E+01 3.60531E+00



 n o d a l   p r i n t   o u t   f o r   t i m e  s t e p    2401                              ( at time 1.1998799E+00 )

 nodal point  x-rot      y-rot       z-rot       x-rot vel   y-rot vel   z-rot vel   x-rot acc   y-rot acc   z-rot acc
    22626  1.33730E-06 3.44646E-05 5.93267E-05 5.02819E-06 3.99469E-05 6.55121E-05-3.31959E-06-6.53909E-05-9.62079E-05



 n o d a l   p r i n t   o u t   f o r   t i m e  s t e p    2601                              ( at time 1.2998699E+00 )

 nodal point  x-disp     y-disp      z-disp      x-vel       y-vel       z-vel      x-accl      y-accl      z-accl      x-coor      y-coor      z-coor
    22626  1.46115E-04-3.37304E-02-4.04413E+00-4.22179E-04-3.65951E-02-3.11132E+00-1.15314E-02 3.20836E-02-2.82697E-02 4.79643E+01-2.20635E+01 3.29437E+00



 n o d a l   p r i n t   o u t   f o r   t i m e  s t e p    2601                              ( at time 1.2998699E+00 )

 nodal point  x-rot      y-rot       z-rot       x-rot vel   y-rot vel   z-rot vel   x-rot acc   y-rot acc   z-rot acc
    22626  1.63921E-06 3.85433E-05 6.61321E-05-2.59848E-06 4.54307E-05 7.98705E-05-7.62744E-05 5.48432E-05 1.43599E-04



 n o d a l   p r i n t   o u t   f o r   t i m e  s t e p    2801                              ( at time 1.3998599E+00 )

 nodal point  x-disp     y-disp      z-disp      x-vel       y-vel       z-vel      x-accl      y-accl      z-accl      x-coor      y-coor      z-coor
    22626  3.21838E-05-3.71240E-02-4.35543E+00-1.30832E-03-3.14329E-02-3.11511E+00-8.86234E-03 5.16273E-02-3.78527E-02 4.79642E+01-2.20669E+01 2.98307E+00



 n o d a l   p r i n t   o u t   f o r   t i m e  s t e p    2801                              ( at time 1.3998599E+00 )

 nodal point  x-rot      y-rot       z-rot       x-rot vel   y-rot vel   z-rot vel   x-rot acc   y-rot acc   z-rot acc
    22626  1.20499E-06 4.29488E-05 7.39872E-05-4.59377E-06 4.44893E-05 7.33666E-05-1.99548E-05-9.41527E-06-6.50456E-05



 n o d a l   p r i n t   o u t   f o r   t i m e  s t e p    3001                              ( at time 1.4998499E+00 )

 nodal point  x-disp     y-disp      z-disp      x-vel       y-vel       z-vel      x-accl      y-accl      z-accl      x-coor      y-coor      z-coor
    22626 -7.76942E-05-4.01687E-02-4.66702E+00-4.97292E-04-2.97647E-02-3.11713E+00 8.11113E-03 1.66836E-02-2.02628E-02 4.79641E+01-2.20700E+01 2.67148E+00



 n o d a l   p r i n t   o u t   f o r   t i m e  s t e p    3001                              ( at time 1.4998499E+00 )

 nodal point  x-rot      y-rot       z-rot       x-rot vel   y-rot vel   z-rot vel   x-rot acc   y-rot acc   z-rot acc
    22626  8.27283E-07 4.68513E-05 8.05182E-05-1.55801E-06 3.19361E-05 5.70393E-05 3.03606E-05-1.25545E-04-1.63289E-04



 n o d a l   p r i n t   o u t   f o r   t i m e  s t e p    3201                              ( at time 1.5998399E+00 )

 nodal point  x-disp     y-disp      z-disp      x-vel       y-vel       z-vel      x-accl      y-accl      z-accl      x-coor      y-coor      z-coor
    22626 -1.24443E-04-4.30593E-02-4.97879E+00-6.94008E-04-2.75135E-02-3.11940E+00-1.96736E-03 2.25147E-02-2.26449E-02 4.79641E+01-2.20728E+01 2.35971E+00



 n o d a l   p r i n t   o u t   f o r   t i m e  s t e p    3201                              ( at time 1.5998399E+00 )

 nodal point  x-rot      y-rot       z-rot       x-rot vel   y-rot vel   z-rot vel   x-rot acc   y-rot acc   z-rot acc
    22626  5.16017E-07 4.99104E-05 8.53938E-05-1.56033E-06 3.26146E-05 4.80573E-05-2.32081E-08 6.78565E-06-8.98290E-05



 n o d a l   p r i n t   o u t   f o r   t i m e  s t e p    3401                              ( at time 1.6998299E+00 )

 nodal point  x-disp     y-disp      z-disp      x-vel       y-vel       z-vel      x-accl      y-accl      z-accl      x-coor      y-coor      z-coor
    22626 -2.11154E-04-4.55736E-02-5.29089E+00-1.13366E-03-2.24399E-02-3.12326E+00-4.39695E-03 5.07403E-02-3.85800E-02 4.79640E+01-2.20754E+01 2.04762E+00



 n o d a l   p r i n t   o u t   f o r   t i m e  s t e p    3401                              ( at time 1.6998299E+00 )

 nodal point  x-rot      y-rot       z-rot       x-rot vel   y-rot vel   z-rot vel   x-rot acc   y-rot acc   z-rot acc
    22626  3.01891E-07 5.29931E-05 9.04271E-05-3.75023E-06 2.97390E-05 4.75549E-05-2.19012E-05-2.87584E-05-5.02502E-06



 n o d a l   p r i n t   o u t   f o r   t i m e  s t e p    3601                              ( at time 1.7998199E+00 )

 nodal point  x-disp     y-disp      z-disp      x-vel       y-vel       z-vel      x-accl      y-accl      z-accl      x-coor      y-coor      z-coor
    22626 -3.12816E-04-4.75643E-02-5.60339E+00-1.32690E-03-1.77167E-02-3.12732E+00-1.93259E-03 4.72373E-02-4.06569E-02 4.79639E+01-2.20774E+01 1.73511E+00



 n o d a l   p r i n t   o u t   f o r   t i m e  s t e p    3601                              ( at time 1.7998199E+00 )

 nodal point  x-rot      y-rot       z-rot       x-rot vel   y-rot vel   z-rot vel   x-rot acc   y-rot acc   z-rot acc
    22626  1.55715E-07 5.57810E-05 9.51842E-05-3.59896E-07 2.15587E-05 4.22637E-05 3.39068E-05-8.18114E-05-5.29170E-05



 n o d a l   p r i n t   o u t   f o r   t i m e  s t e p    3801                              ( at time 1.8998099E+00 )

 nodal point  x-disp     y-disp      z-disp      x-vel       y-vel       z-vel      x-accl      y-accl      z-accl      x-coor      y-coor      z-coor
    22626 -5.00477E-04-4.92022E-02-5.91621E+00-2.16429E-03-1.51671E-02-3.12981E+00-8.37472E-03 2.54983E-02-2.49482E-02 4.79637E+01-2.20790E+01 1.42229E+00



 n o d a l   p r i n t   o u t   f o r   t i m e  s t e p    3801                              ( at time 1.8998099E+00 )

 nodal point  x-rot      y-rot       z-rot       x-rot vel   y-rot vel   z-rot vel   x-rot acc   y-rot acc   z-rot acc
    22626 -8.81254E-08 5.76785E-05 9.86009E-05 1.59208E-06 1.54925E-05 2.74574E-05 1.95217E-05-6.06679E-05-1.48078E-04



 n o d a l   p r i n t   o u t   f o r   t i m e  s t e p    4001                              ( at time 1.9997999E+00 )

 nodal point  x-disp     y-disp      z-disp      x-vel       y-vel       z-vel      x-accl      y-accl      z-accl      x-coor      y-coor      z-coor
    22626 -6.73948E-04-5.05926E-02-6.22929E+00-1.65529E-03-1.28142E-02-3.13210E+00 5.09046E-03 2.35313E-02-2.28785E-02 4.79635E+01-2.20804E+01 1.10921E+00



 n o d a l   p r i n t   o u t   f o r   t i m e  s t e p    4001                              ( at time 1.9997999E+00 )

 nodal point  x-rot      y-rot       z-rot       x-rot vel   y-rot vel   z-rot vel   x-rot acc   y-rot acc   z-rot acc
    22626  1.17348E-07 5.90146E-05 1.00909E-04 3.34535E-06 1.31639E-05 2.00421E-05 1.75344E-05-2.32883E-05-7.41598E-05



 n o d a l   p r i n t   o u t   f o r   t i m e  s t e p    4201                              ( at time 2.0997899E+00 )

 nodal point  x-disp     y-disp      z-disp      x-vel       y-vel       z-vel      x-accl      y-accl      z-accl      x-coor      y-coor      z-coor
    22626 -8.43326E-04-5.16836E-02-6.54262E+00-1.86181E-03-9.15109E-03-3.13518E+00-2.06540E-03 3.66349E-02-3.08091E-02 4.79633E+01-2.20815E+01 7.95876E-01



 n o d a l   p r i n t   o u t   f o r   t i m e  s t e p    4201                              ( at time 2.0997899E+00 )

 nodal point  x-rot      y-rot       z-rot       x-rot vel   y-rot vel   z-rot vel   x-rot acc   y-rot acc   z-rot acc
    22626  4.02391E-07 5.96579E-05 1.01997E-04-1.42917E-06 3.41376E-06 1.56824E-06-4.77500E-05-9.75112E-05-1.84758E-04



 n o d a l   p r i n t   o u t   f o r   t i m e  s t e p    4401                              ( at time 2.1997798E+00 )

 nodal point  x-disp     y-disp      z-disp      x-vel       y-vel       z-vel      x-accl      y-accl      z-accl      x-coor      y-coor      z-coor
    22626 -1.08544E-03-5.23704E-02-6.85629E+00-2.77371E-03-4.41176E-03-3.13894E+00-9.11990E-03 4.73982E-02-3.76143E-02 4.79631E+01-2.20822E+01 4.82212E-01



 n o d a l   p r i n t   o u t   f o r   t i m e  s t e p    4401                              ( at time 2.1997798E+00 )

 nodal point  x-rot      y-rot       z-rot       x-rot vel   y-rot vel   z-rot vel   x-rot acc   y-rot acc   z-rot acc
    22626  2.24284E-07 5.96506E-05 1.01930E-04-1.15433E-06-2.07655E-06-2.93175E-06 2.74868E-06-5.49087E-05-4.50044E-05



 n o d a l   p r i n t   o u t   f o r   t i m e  s t e p    4601                              ( at time 2.2997698E+00 )

 nodal point  x-disp     y-disp      z-disp      x-vel       y-vel       z-vel      x-accl      y-accl      z-accl      x-coor      y-coor      z-coor
    22626 -1.39449E-03-5.25658E-02-7.17034E+00-3.51669E-03-8.65419E-05-3.14228E+00-7.43050E-03 4.32564E-02-3.33700E-02 4.79628E+01-2.20824E+01 1.68162E-01



 n o d a l   p r i n t   o u t   f o r   t i m e  s t e p    4601                              ( at time 2.2997698E+00 )

 nodal point  x-rot      y-rot       z-rot       x-rot vel   y-rot vel   z-rot vel   x-rot acc   y-rot acc   z-rot acc
    22626 -1.63313E-07 5.93356E-05 1.01555E-04-4.51176E-06-9.85381E-06-1.30294E-05-3.35775E-05-7.77803E-05-1.00986E-04



 n o d a l   p r i n t   o u t   f o r   t i m e  s t e p    4801                              ( at time 2.3997598E+00 )

 nodal point  x-disp     y-disp      z-disp      x-vel       y-vel       z-vel      x-accl      y-accl      z-accl      x-coor      y-coor      z-coor
    22626 -1.76349E-03-5.24787E-02-7.48464E+00-3.61048E-03 1.86597E-03-3.14440E+00-9.38079E-04 1.95271E-02-2.12047E-02 4.79624E+01-2.20823E+01-1.46136E-01



 n o d a l   p r i n t   o u t   f o r   t i m e  s t e p    4801                              ( at time 2.3997598E+00 )

 nodal point  x-rot      y-rot       z-rot       x-rot vel   y-rot vel   z-rot vel   x-rot acc   y-rot acc   z-rot acc
    22626 -7.10616E-07 5.80714E-05 9.90679E-05-6.03348E-06-1.61791E-05-3.37493E-05-1.52188E-05-6.32595E-05-2.07221E-04



 n o d a l   p r i n t   o u t   f o r   t i m e  s t e p    5001                              ( at time 2.4997498E+00 )

 nodal point  x-disp     y-disp      z-disp      x-vel       y-vel       z-vel      x-accl      y-accl      z-accl      x-coor      y-coor      z-coor
    22626 -2.15681E-03-5.21718E-02-7.79916E+00-4.23366E-03 4.96293E-03-3.14711E+00-6.23236E-03 3.09727E-02-2.70465E-02 4.79620E+01-2.20820E+01-4.60662E-01



 n o d a l   p r i n t   o u t   f o r   t i m e  s t e p    5001                              ( at time 2.4997498E+00 )

 nodal point  x-rot      y-rot       z-rot       x-rot vel   y-rot vel   z-rot vel   x-rot acc   y-rot acc   z-rot acc
    22626 -1.15859E-06 5.58375E-05 9.51027E-05-4.05144E-06-2.63733E-05-4.85905E-05 1.98223E-05-1.01952E-04-1.48426E-04



 n o d a l   p r i n t   o u t   f o r   t i m e  s t e p    5201                              ( at time 2.5997398E+00 )

 nodal point  x-disp     y-disp      z-disp      x-vel       y-vel       z-vel      x-accl      y-accl      z-accl      x-coor      y-coor      z-coor
    22626 -2.63135E-03-5.14573E-02-8.11403E+00-5.25897E-03 9.26956E-03-3.15070E+00-1.02542E-02 4.30707E-02-3.59572E-02 4.79615E+01-2.20812E+01-7.75527E-01



 n o d a l   p r i n t   o u t   f o r   t i m e  s t e p    5201                              ( at time 2.5997398E+00 )

 nodal point  x-rot      y-rot       z-rot       x-rot vel   y-rot vel   z-rot vel   x-rot acc   y-rot acc   z-rot acc
    22626 -1.53055E-06 5.27304E-05 8.96571E-05-4.76672E-06-3.57934E-05-6.23491E-05-7.15345E-06-9.42108E-05-1.37601E-04



 n o d a l   p r i n t   o u t   f o r   t i m e  s t e p    5401                              ( at time 2.6997298E+00 )

 nodal point  x-disp     y-disp      z-disp      x-vel       y-vel       z-vel      x-accl      y-accl      z-accl      x-coor      y-coor      z-coor
    22626 -3.20143E-03-5.03226E-02-8.42925E+00-6.42446E-03 1.29730E-02-3.15421E+00-1.16560E-02 3.70383E-02-3.51011E-02 4.79610E+01-2.20801E+01-1.09075E+00



 n o d a l   p r i n t   o u t   f o r   t i m e  s t e p    5401                              ( at time 2.6997298E+00 )

 nodal point  x-rot      y-rot       z-rot       x-rot vel   y-rot vel   z-rot vel   x-rot acc   y-rot acc   z-rot acc
    22626 -1.82610E-06 4.89797E-05 8.31529E-05-1.90477E-06-4.13285E-05-6.66498E-05 2.86223E-05-5.53568E-05-4.30106E-05



 n o d a l   p r i n t   o u t   f o r   t i m e  s t e p    5601                              ( at time 2.7997198E+00 )

 nodal point  x-disp     y-disp      z-disp      x-vel       y-vel       z-vel      x-accl      y-accl      z-accl      x-coor      y-coor      z-coor
    22626 -3.91520E-03-4.88985E-02-8.74475E+00-7.68336E-03 1.51524E-02-3.15635E+00-1.25903E-02 2.17958E-02-2.13931E-02 4.79603E+01-2.20787E+01-1.40625E+00



 n o d a l   p r i n t   o u t   f o r   t i m e  s t e p    5601                              ( at time 2.7997198E+00 )

 nodal point  x-rot      y-rot       z-rot       x-rot vel   y-rot vel   z-rot vel   x-rot acc   y-rot acc   z-rot acc
    22626 -1.96038E-06 4.40863E-05 7.50469E-05 2.88810E-07-5.73354E-05-9.86854E-05 2.19380E-05-1.60085E-04-3.20388E-04



 n o d a l   p r i n t   o u t   f o r   t i m e  s t e p    5801                              ( at time 2.8997098E+00 )

 nodal point  x-disp     y-disp      z-disp      x-vel       y-vel       z-vel      x-accl      y-accl      z-accl      x-coor      y-coor      z-coor
    22626 -4.68705E-03-4.73298E-02-9.06045E+00-7.82349E-03 1.61409E-02-3.15804E+00-1.40141E-03 9.88659E-03-1.69294E-02 4.79595E+01-2.20771E+01-1.72195E+00



 n o d a l   p r i n t   o u t   f o r   t i m e  s t e p    5801                              ( at time 2.8997098E+00 )

 nodal point  x-rot      y-rot       z-rot       x-rot vel   y-rot vel   z-rot vel   x-rot acc   y-rot acc   z-rot acc
    22626 -1.76292E-06 3.76466E-05 6.41374E-05 2.41317E-06-6.65722E-05-1.15431E-04 2.12457E-05-9.23773E-05-1.67471E-04



 n o d a l   p r i n t   o u t   f o r   t i m e  s t e p    6001                              ( at time 2.9996998E+00 )

 nodal point  x-disp     y-disp      z-disp      x-vel       y-vel       z-vel      x-accl      y-accl      z-accl      x-coor      y-coor      z-coor
    22626 -5.50761E-03-4.55981E-02-9.37632E+00-8.83432E-03 1.86325E-02-3.16041E+00-1.01093E-02 2.49180E-02-2.36749E-02 4.79587E+01-2.20754E+01-2.03782E+00



 n o d a l   p r i n t   o u t   f o r   t i m e  s t e p    6001                              ( at time 2.9996998E+00 )

 nodal point  x-rot      y-rot       z-rot       x-rot vel   y-rot vel   z-rot vel   x-rot acc   y-rot acc   z-rot acc
    22626 -1.53047E-06 3.07855E-05 5.25727E-05 6.71207E-07-7.08240E-05-1.20883E-04-1.74213E-05-4.25223E-05-5.45294E-05



 n o d a l   p r i n t   o u t   f o r   t i m e  s t e p    6201                              ( at time 3.0996898E+00 )

 nodal point  x-disp     y-disp      z-disp      x-vel       y-vel       z-vel      x-accl      y-accl      z-accl      x-coor      y-coor      z-coor
    22626 -6.47287E-03-4.36172E-02-9.69245E+00-1.04147E-02 2.05589E-02-3.16240E+00-1.58051E-02 1.92656E-02-1.99076E-02 4.79577E+01-2.20734E+01-2.35395E+00



 n o d a l   p r i n t   o u t   f o r   t i m e  s t e p    6201                              ( at time 3.0996898E+00 )

 nodal point  x-rot      y-rot       z-rot       x-rot vel   y-rot vel   z-rot vel   x-rot acc   y-rot acc   z-rot acc
    22626 -1.57856E-06 2.34291E-05 3.99480E-05-1.90504E-06-7.58123E-05-1.33535E-04-2.57651E-05-4.98884E-05-1.26535E-04



 n o d a l   p r i n t   o u t   f o r   t i m e  s t e p    6401                              ( at time 3.1996798E+00 )

 nodal point  x-disp     y-disp      z-disp      x-vel       y-vel       z-vel      x-accl      y-accl      z-accl      x-coor      y-coor      z-coor
    22626 -7.54408E-03-4.15865E-02-1.00087E+01-1.09364E-02 1.97621E-02-3.16298E+00-5.21748E-03-7.96823E-03-5.79176E-03 4.79566E+01-2.20714E+01-2.67020E+00



 n o d a l   p r i n t   o u t   f o r   t i m e  s t e p    6401                              ( at time 3.1996798E+00 )

 nodal point  x-rot      y-rot       z-rot       x-rot vel   y-rot vel   z-rot vel   x-rot acc   y-rot acc   z-rot acc
    22626 -1.71248E-06 1.53547E-05 2.63485E-05-1.67276E-06-8.53384E-05-1.43911E-04 2.32303E-06-9.52699E-05-1.03764E-04



 n o d a l   p r i n t   o u t   f o r   t i m e  s t e p    6601                              ( at time 3.2996698E+00 )

 nodal point  x-disp     y-disp      z-disp      x-vel       y-vel       z-vel      x-accl      y-accl      z-accl      x-coor      y-coor      z-coor
    22626 -8.65019E-03-3.97069E-02-1.03249E+01-1.11965E-02 1.78252E-02-3.16269E+00-2.60142E-03-1.93710E-02 2.85654E-03 4.79555E+01-2.20695E+01-2.98645E+00



 n o d a l   p r i n t   o u t   f o r   t i m e  s t e p    6601                              ( at time 3.2996698E+00 )

 nodal point  x-rot      y-rot       z-rot       x-rot vel   y-rot vel   z-rot vel   x-rot acc   y-rot acc   z-rot acc
    22626 -1.97944E-06 6.66291E-06 1.15895E-05-2.43945E-06-8.93942E-05-1.51569E-04-7.66762E-06-4.05618E-05-7.65946E-05



 n o d a l   p r i n t   o u t   f o r   t i m e  s t e p    6801                              ( at time 3.3996598E+00 )

 nodal point  x-disp     y-disp      z-disp      x-vel       y-vel       z-vel      x-accl      y-accl      z-accl      x-coor      y-coor      z-coor
    22626 -9.80062E-03-3.80159E-02-1.06412E+01-1.16938E-02 1.60335E-02-3.16262E+00-4.97416E-03-1.79194E-02 7.39171E-04 4.79544E+01-2.20678E+01-3.30268E+00



 n o d a l   p r i n t   o u t   f o r   t i m e  s t e p    6801                              ( at time 3.3996598E+00 )

 nodal point  x-rot      y-rot       z-rot       x-rot vel   y-rot vel   z-rot vel   x-rot acc   y-rot acc   z-rot acc
    22626 -2.02914E-06-2.22751E-06-3.70356E-06-2.55261E-06-8.80816E-05-1.53055E-04-1.13175E-06 1.31273E-05-1.48527E-05



 n o d a l   p r i n t   o u t   f o r   t i m e  s t e p    7001                              ( at time 3.4996498E+00 )

 nodal point  x-disp     y-disp      z-disp      x-vel       y-vel       z-vel      x-accl      y-accl      z-accl      x-coor      y-coor      z-coor
    22626 -1.09986E-02-3.64861E-02-1.09574E+01-1.23272E-02 1.44964E-02-3.16282E+00-6.33468E-03-1.53723E-02-2.00769E-03 4.79532E+01-2.20663E+01-3.61893E+00



 n o d a l   p r i n t   o u t   f o r   t i m e  s t e p    7001                              ( at time 3.4996498E+00 )

 nodal point  x-rot      y-rot       z-rot       x-rot vel   y-rot vel   z-rot vel   x-rot acc   y-rot acc   z-rot acc
    22626 -2.02058E-06-1.08917E-05-1.85369E-05 5.78216E-07-8.72940E-05-1.47462E-04 3.13114E-05 7.87637E-06 5.59356E-05



 n o d a l   p r i n t   o u t   f o r   t i m e  s t e p    7201                              ( at time 3.5996397E+00 )

 nodal point  x-disp     y-disp      z-disp      x-vel       y-vel       z-vel      x-accl      y-accl      z-accl      x-coor      y-coor      z-coor
    22626 -1.22533E-02-3.51433E-02-1.12737E+01-1.24170E-02 1.20952E-02-3.16260E+00-8.97774E-04-2.40146E-02 2.17698E-03 4.79519E+01-2.20649E+01-3.93517E+00



 n o d a l   p r i n t   o u t   f o r   t i m e  s t e p    7201                              ( at time 3.5996397E+00 )

 nodal point  x-rot      y-rot       z-rot       x-rot vel   y-rot vel   z-rot vel   x-rot acc   y-rot acc   z-rot acc
    22626 -2.02962E-06-1.95157E-05-3.30196E-05 2.00711E-06-8.47876E-05-1.38857E-04 1.42904E-05 2.50664E-05 8.60526E-05



 n o d a l   p r i n t   o u t   f o r   t i m e  s t e p    7401                              ( at time 3.6996297E+00 )

 nodal point  x-disp     y-disp      z-disp      x-vel       y-vel       z-vel      x-accl      y-accl      z-accl      x-coor      y-coor      z-coor
    22626 -1.34833E-02-3.40998E-02-1.15899E+01-1.21460E-02 8.70463E-03-3.16159E+00 2.71010E-03-3.39086E-02 1.00837E-02 4.79507E+01-2.20639E+01-4.25135E+00



 n o d a l   p r i n t   o u t   f o r   t i m e  s t e p    7401                              ( at time 3.6996297E+00 )

 nodal point  x-rot      y-rot       z-rot       x-rot vel   y-rot vel   z-rot vel   x-rot acc   y-rot acc   z-rot acc
    22626 -1.77915E-06-2.78012E-05-4.68119E-05 3.73659E-06-8.12803E-05-1.36602E-04 1.72965E-05 3.50766E-05 2.25530E-05



 n o d a l   p r i n t   o u t   f o r   t i m e  s t e p    7601                              ( at time 3.7996197E+00 )

 nodal point  x-disp     y-disp      z-disp      x-vel       y-vel       z-vel      x-accl      y-accl      z-accl      x-coor      y-coor      z-coor
    22626 -1.46682E-02-3.33669E-02-1.19059E+01-1.15918E-02 6.00780E-03-3.16089E+00 5.54236E-03-2.69711E-02 7.09605E-03 4.79495E+01-2.20632E+01-4.56744E+00



 n o d a l   p r i n t   o u t   f o r   t i m e  s t e p    7601                              ( at time 3.7996197E+00 )

 nodal point  x-rot      y-rot       z-rot       x-rot vel   y-rot vel   z-rot vel   x-rot acc   y-rot acc   z-rot acc
    22626 -1.31402E-06-3.56154E-05-6.00813E-05 5.22662E-06-7.24870E-05-1.22037E-04 1.49018E-05 8.79423E-05 1.45663E-04



 n o d a l   p r i n t   o u t   f o r   t i m e  s t e p    7801                              ( at time 3.8996097E+00 )

 nodal point  x-disp     y-disp      z-disp      x-vel       y-vel       z-vel      x-accl      y-accl      z-accl      x-coor      y-coor      z-coor
    22626 -1.57958E-02-3.28660E-02-1.22220E+01-1.09404E-02 4.21811E-03-3.16081E+00 6.51554E-03-1.78986E-02 7.70168E-04 4.79484E+01-2.20627E+01-4.88349E+00



 n o d a l   p r i n t   o u t   f o r   t i m e  s t e p    7801                              ( at time 3.8996097E+00 )

 nodal point  x-rot      y-rot       z-rot       x-rot vel   y-rot vel   z-rot vel   x-rot acc   y-rot acc   z-rot acc
    22626 -9.53776E-07-4.22160E-05-7.12005E-05 6.43215E-07-5.77124E-05-9.62528E-05-4.58385E-05 1.47761E-04 2.57870E-04



 n o d a l   p r i n t   o u t   f o r   t i m e  s t e p    8001                              ( at time 3.9995997E+00 )

 nodal point  x-disp     y-disp      z-disp      x-vel       y-vel       z-vel      x-accl      y-accl      z-accl      x-coor      y-coor      z-coor
    22626 -1.68634E-02-3.24957E-02-1.25381E+01-1.03911E-02 3.14134E-03-3.16114E+00 5.49312E-03-1.07688E-02-3.33104E-03 4.79473E+01-2.20623E+01-5.19956E+00



 n o d a l   p r i n t   o u t   f o r   t i m e  s t e p    8001                              ( at time 3.9995997E+00 )

 nodal point  x-rot      y-rot       z-rot       x-rot vel   y-rot vel   z-rot vel   x-rot acc   y-rot acc   z-rot acc
    22626 -8.24430E-07-4.74644E-05-7.98846E-05-1.81213E-07-4.67211E-05-7.99235E-05-8.24511E-06 1.09923E-04 1.63309E-04



 n o d a l   p r i n t   o u t   f o r   t i m e  s t e p    8201                              ( at time 4.0995897E+00 )

 nodal point  x-disp     y-disp      z-disp      x-vel       y-vel       z-vel      x-accl      y-accl      z-accl      x-coor      y-coor      z-coor
    22626 -1.78199E-02-3.22962E-02-1.28541E+01-8.59510E-03 6.32153E-04-3.16063E+00 1.79618E-02-2.50944E-02 5.08597E-03 4.79464E+01-2.20621E+01-5.51562E+00



 n o d a l   p r i n t   o u t   f o r   t i m e  s t e p    8201                              ( at time 4.0995897E+00 )

 nodal point  x-rot      y-rot       z-rot       x-rot vel   y-rot vel   z-rot vel   x-rot acc   y-rot acc   z-rot acc
    22626 -8.32604E-07-5.15920E-05-8.68582E-05-3.00003E-07-3.21551E-05-5.63329E-05-1.18802E-06 1.45674E-04 2.35930E-04



 n o d a l   p r i n t   o u t   f o r   t i m e  s t e p    8401                              ( at time 4.1995797E+00 )

 nodal point  x-disp     y-disp      z-disp      x-vel       y-vel       z-vel      x-accl      y-accl      z-accl      x-coor      y-coor      z-coor
    22626 -1.86013E-02-3.23587E-02-1.31701E+01-6.96937E-03-1.79203E-03-3.16004E+00 1.62589E-02-2.42443E-02 5.87761E-03 4.79456E+01-2.20621E+01-5.83162E+00



 n o d a l   p r i n t   o u t   f o r   t i m e  s t e p    8401                              ( at time 4.1995797E+00 )

 nodal point  x-rot      y-rot       z-rot       x-rot vel   y-rot vel   z-rot vel   x-rot acc   y-rot acc   z-rot acc
    22626 -8.16071E-07-5.39708E-05-9.08106E-05-2.63720E-07-1.40771E-05-2.28463E-05 3.62861E-07 1.80799E-04 3.34900E-04



 n o d a l   p r i n t   o u t   f o r   t i m e  s t e p    8601                              ( at time 4.2995697E+00 )

 nodal point  x-disp     y-disp      z-disp      x-vel       y-vel       z-vel      x-accl      y-accl      z-accl      x-coor      y-coor      z-coor
    22626 -1.92348E-02-3.26574E-02-1.34861E+01-5.54581E-03-3.87685E-03-3.15988E+00 1.42370E-02-2.08503E-02 1.65718E-03 4.79449E+01-2.20624E+01-6.14757E+00



 n o d a l   p r i n t   o u t   f o r   t i m e  s t e p    8601                              ( at time 4.2995697E+00 )

 nodal point  x-rot      y-rot       z-rot       x-rot vel   y-rot vel   z-rot vel   x-rot acc   y-rot acc   z-rot acc
    22626 -8.35743E-07-5.44119E-05-9.16667E-05-3.52766E-07 2.88266E-06 4.81361E-06-8.90550E-07 1.69614E-04 2.76627E-04



 n o d a l   p r i n t   o u t   f o r   t i m e  s t e p    8801                              ( at time 4.3995597E+00 )

 nodal point  x-disp     y-disp      z-disp      x-vel       y-vel       z-vel      x-accl      y-accl      z-accl      x-coor      y-coor      z-coor
    22626 -1.97012E-02-3.30861E-02-1.38021E+01-3.79247E-03-4.74334E-03-3.16047E+00 1.75352E-02-8.66581E-03-5.95391E-03 4.79445E+01-2.20629E+01-6.46355E+00



 n o d a l   p r i n t   o u t   f o r   t i m e  s t e p    8801                              ( at time 4.3995597E+00 )

 nodal point  x-rot      y-rot       z-rot       x-rot vel   y-rot vel   z-rot vel   x-rot acc   y-rot acc   z-rot acc
    22626 -8.10395E-07-5.31330E-05-8.93462E-05 7.58930E-07 2.24679E-05 4.03789E-05 1.11181E-05 1.95872E-04 3.55688E-04



 n o d a l   p r i n t   o u t   f o r   t i m e  s t e p    9001                              ( at time 4.4995497E+00 )

 nodal point  x-disp     y-disp      z-disp      x-vel       y-vel       z-vel      x-accl      y-accl      z-accl      x-coor      y-coor      z-coor
    22626 -1.99990E-02-3.36555E-02-1.41181E+01-2.04641E-03-6.99125E-03-3.16009E+00 1.74623E-02-2.24813E-02 3.81745E-03 4.79442E+01-2.20634E+01-6.77956E+00



 n o d a l   p r i n t   o u t   f o r   t i m e  s t e p    9001                              ( at time 4.4995497E+00 )

 nodal point  x-rot      y-rot       z-rot       x-rot vel   y-rot vel   z-rot vel   x-rot acc   y-rot acc   z-rot acc
    22626 -6.75963E-07-4.96691E-05-8.32405E-05 3.46136E-06 4.39783E-05 7.64127E-05 2.70269E-05 2.15124E-04 3.60374E-04



 n o d a l   p r i n t   o u t   f o r   t i m e  s t e p    9201                              ( at time 4.5995397E+00 )

 nodal point  x-disp     y-disp      z-disp      x-vel       y-vel       z-vel      x-accl      y-accl      z-accl      x-coor      y-coor      z-coor
    22626 -2.01102E-02-3.45093E-02-1.44340E+01-1.22396E-04-9.89576E-03-3.15951E+00 1.92421E-02-2.90480E-02 5.82515E-03 4.79441E+01-2.20643E+01-7.09551E+00



 n o d a l   p r i n t   o u t   f o r   t i m e  s t e p    9201                              ( at time 4.5995397E+00 )

 nodal point  x-rot      y-rot       z-rot       x-rot vel   y-rot vel   z-rot vel   x-rot acc   y-rot acc   z-rot acc
    22626 -3.69674E-07-4.44510E-05-7.41304E-05 4.24638E-06 5.98836E-05 1.02803E-04 7.85098E-06 1.59069E-04 2.63932E-04



 n o d a l   p r i n t   o u t   f o r   t i m e  s t e p    9401                              ( at time 4.6995297E+00 )

 nodal point  x-disp     y-disp      z-disp      x-vel       y-vel       z-vel      x-accl      y-accl      z-accl      x-coor      y-coor      z-coor
    22626 -2.00053E-02-3.55797E-02-1.47499E+01 2.11809E-03-1.15042E-02-3.15936E+00 2.24071E-02-1.60860E-02 1.53080E-03 4.79442E+01-2.20654E+01-7.41142E+00



 n o d a l   p r i n t   o u t   f o r   t i m e  s t e p    9401                              ( at time 4.6995297E+00 )

 nodal point  x-rot      y-rot       z-rot       x-rot vel   y-rot vel   z-rot vel   x-rot acc   y-rot acc   z-rot acc
    22626  6.29964E-09-3.72946E-05-6.16911E-05 2.66151E-06 8.46361E-05 1.45505E-04-1.58503E-05 2.47550E-04 4.27061E-04



 n o d a l   p r i n t   o u t   f o r   t i m e  s t e p    9601                              ( at time 4.7995197E+00 )

 nodal point  x-disp     y-disp      z-disp      x-vel       y-vel       z-vel      x-accl      y-accl      z-accl      x-coor      y-coor      z-coor
    22626 -1.96938E-02-3.68014E-02-1.50658E+01 3.98563E-03-1.27514E-02-3.15961E+00 1.86773E-02-1.24730E-02-2.56087E-03 4.79445E+01-2.20666E+01-7.72733E+00



 n o d a l   p r i n t   o u t   f o r   t i m e  s t e p    9601                              ( at time 4.7995197E+00 )

 nodal point  x-rot      y-rot       z-rot       x-rot vel   y-rot vel   z-rot vel   x-rot acc   y-rot acc   z-rot acc
    22626  3.02827E-07-2.75805E-05-4.50435E-05-1.57974E-07 1.09315E-04 1.87247E-04-2.81977E-05 2.46812E-04 4.17462E-04



 n o d a l   p r i n t   o u t   f o r   t i m e  s t e p    9801                              ( at time 4.8995097E+00 )

 nodal point  x-disp     y-disp      z-disp      x-vel       y-vel       z-vel      x-accl      y-accl      z-accl      x-coor      y-coor      z-coor
    22626 -1.91982E-02-3.81344E-02-1.53818E+01 6.03005E-03-1.41723E-02-3.15942E+00 2.04463E-02-1.42106E-02 1.93615E-03 4.79450E+01-2.20679E+01-8.04327E+00



 n o d a l   p r i n t   o u t   f o r   t i m e  s t e p    9801                              ( at time 4.8995097E+00 )

 nodal point  x-rot      y-rot       z-rot       x-rot vel   y-rot vel   z-rot vel   x-rot acc   y-rot acc   z-rot acc
    22626  1.91697E-07-1.56549E-05-2.44918E-05-6.32759E-06 1.31009E-04 2.24298E-04-6.17024E-05 2.16967E-04 3.70547E-04



 n o d a l   p r i n t   o u t   f o r   t i m e  s t e p   10001                              ( at time 4.9994997E+00 )

 nodal point  x-disp     y-disp      z-disp      x-vel       y-vel       z-vel      x-accl      y-accl      z-accl      x-coor      y-coor      z-coor
    22626 -1.84790E-02-3.96386E-02-1.56976E+01 8.29326E-03-1.58208E-02-3.15687E+00 2.26343E-02-1.64864E-02 2.55371E-02 4.79457E+01-2.20694E+01-8.35906E+00



 n o d a l   p r i n t   o u t   f o r   t i m e  s t e p   10001                              ( at time 4.9994997E+00 )

 nodal point  x-rot      y-rot       z-rot       x-rot vel   y-rot vel   z-rot vel   x-rot acc   y-rot acc   z-rot acc
    22626 -3.32133E-07-7.41825E-07-8.38884E-07 1.85019E-06 1.68493E-04 2.49248E-04 8.17857E-05 3.74875E-04 2.49525E-04



 n o d a l   p r i n t   o u t   f o r   t i m e  s t e p   10202                              ( at time 5.0999896E+00 )

 nodal point  x-disp     y-disp      z-disp      x-vel       y-vel       z-vel      x-accl      y-accl      z-accl      x-coor      y-coor      z-coor
    22626 -1.75334E-02-4.12689E-02-1.60146E+01 1.03776E-02-1.64786E-02-3.15162E+00 2.07414E-02-6.54649E-03 5.22060E-02 4.79466E+01-2.20711E+01-8.67607E+00



 n o d a l   p r i n t   o u t   f o r   t i m e  s t e p   10202                              ( at time 5.0999896E+00 )

 nodal point  x-rot      y-rot       z-rot       x-rot vel   y-rot vel   z-rot vel   x-rot acc   y-rot acc   z-rot acc
    22626  5.84536E-07 1.97938E-05 2.58563E-05 1.34917E-05 2.43937E-04 2.77378E-04 1.15848E-04 7.50758E-04 2.79927E-04



 n o d a l   p r i n t   o u t   f o r   t i m e  s t e p   10402                              ( at time 5.1999796E+00 )

 nodal point  x-disp     y-disp      z-disp      x-vel       y-vel       z-vel      x-accl      y-accl      z-accl      x-coor      y-coor      z-coor
    22626 -1.63873E-02-4.28989E-02-1.63293E+01 1.23669E-02-1.53547E-02-3.14221E+00 1.98958E-02 1.12400E-02 9.41534E-02 4.79478E+01-2.20727E+01-8.99077E+00



 n o d a l   p r i n t   o u t   f o r   t i m e  s t e p   10402                              ( at time 5.1999796E+00 )

 nodal point  x-rot      y-rot       z-rot       x-rot vel   y-rot vel   z-rot vel   x-rot acc   y-rot acc   z-rot acc
    22626  3.01303E-06 4.96842E-05 5.46125E-05 4.70745E-05 3.60431E-04 2.87538E-04 3.35861E-04 1.16506E-03 1.01612E-04



 n o d a l   p r i n t   o u t   f o r   t i m e  s t e p   10602                              ( at time 5.2999696E+00 )

 nodal point  x-disp     y-disp      z-disp      x-vel       y-vel       z-vel      x-accl      y-accl      z-accl      x-coor      y-coor      z-coor
    22626 -1.50700E-02-4.43085E-02-1.66428E+01 1.38091E-02-1.18011E-02-3.12718E+00 1.44225E-02 3.55396E-02 1.50250E-01 4.79491E+01-2.20741E+01-9.30426E+00



 n o d a l   p r i n t   o u t   f o r   t i m e  s t e p   10602                              ( at time 5.2999696E+00 )

 nodal point  x-rot      y-rot       z-rot       x-rot vel   y-rot vel   z-rot vel   x-rot acc   y-rot acc   z-rot acc
    22626  1.13364E-05 9.32302E-05 8.32270E-05 1.33301E-04 5.11450E-04 2.68990E-04 8.62356E-04 1.51034E-03-1.85502E-04



 n o d a l   p r i n t   o u t   f o r   t i m e  s t e p   10802                              ( at time 5.3999596E+00 )

 nodal point  x-disp     y-disp      z-disp      x-vel       y-vel       z-vel      x-accl      y-accl      z-accl      x-coor      y-coor      z-coor
    22626 -1.35701E-02-4.53436E-02-1.69544E+01 1.61788E-02-8.86480E-03-3.10683E+00 2.36997E-02 2.93662E-02 2.03582E-01 4.79506E+01-2.20751E+01-9.61594E+00



 n o d a l   p r i n t   o u t   f o r   t i m e  s t e p   10802                              ( at time 5.3999596E+00 )

 nodal point  x-rot      y-rot       z-rot       x-rot vel   y-rot vel   z-rot vel   x-rot acc   y-rot acc   z-rot acc
    22626  2.82669E-05 1.54864E-04 1.09667E-04 2.12740E-04 7.16737E-04 2.46839E-04 7.94471E-04 2.05307E-03-2.21531E-04



 n o d a l   p r i n t   o u t   f o r   t i m e  s t e p   11002                              ( at time 5.4999496E+00 )

 nodal point  x-disp     y-disp      z-disp      x-vel       y-vel       z-vel      x-accl      y-accl      z-accl      x-coor      y-coor      z-coor
    22626 -1.17597E-02-4.60576E-02-1.72638E+01 1.97183E-02-4.35096E-03-3.08141E+00 3.53990E-02 4.51430E-02 2.54199E-01 4.79524E+01-2.20758E+01-9.92534E+00



 n o d a l   p r i n t   o u t   f o r   t i m e  s t e p   11002                              ( at time 5.4999496E+00 )

 nodal point  x-rot      y-rot       z-rot       x-rot vel   y-rot vel   z-rot vel   x-rot acc   y-rot acc   z-rot acc
    22626  5.46829E-05 2.38174E-04 1.33031E-04 3.25938E-04 9.44228E-04 2.08991E-04 1.13209E-03 2.27514E-03-3.78516E-04



 n o d a l   p r i n t   o u t   f o r   t i m e  s t e p   11202                              ( at time 5.5999396E+00 )

 nodal point  x-disp     y-disp      z-disp      x-vel       y-vel       z-vel      x-accl      y-accl      z-accl      x-coor      y-coor      z-coor
    22626 -9.66103E-03-4.62045E-02-1.75706E+01 2.19224E-02 1.77320E-03-3.05326E+00 2.20429E-02 6.12478E-02 2.81482E-01 4.79545E+01-2.20760E+01-1.02321E+01



 n o d a l   p r i n t   o u t   f o r   t i m e  s t e p   11202                              ( at time 5.5999396E+00 )

 nodal point  x-rot      y-rot       z-rot       x-rot vel   y-rot vel   z-rot vel   x-rot acc   y-rot acc   z-rot acc
    22626  9.48665E-05 3.45744E-04 1.52221E-04 4.55221E-04 1.22415E-03 1.67843E-04 1.29296E-03 2.79954E-03-4.11525E-04



 n o d a l   p r i n t   o u t   f o r   t i m e  s t e p   11402                              ( at time 5.6999296E+00 )

 nodal point  x-disp     y-disp      z-disp      x-vel       y-vel       z-vel      x-accl      y-accl      z-accl      x-coor      y-coor      z-coor
    22626 -7.28958E-03-4.56984E-02-1.78745E+01 2.50722E-02 8.83063E-03-3.02297E+00 3.15010E-02 7.05811E-02 3.03007E-01 4.79569E+01-2.20755E+01-1.05359E+01



 n o d a l   p r i n t   o u t   f o r   t i m e  s t e p   11402                              ( at time 5.6999296E+00 )

 nodal point  x-rot      y-rot       z-rot       x-rot vel   y-rot vel   z-rot vel   x-rot acc   y-rot acc   z-rot acc
    22626  1.48240E-04 4.82039E-04 1.66115E-04 6.19702E-04 1.50580E-03 1.02112E-04 1.64497E-03 2.81669E-03-6.57369E-04



 n o d a l   p r i n t   o u t   f o r   t i m e  s t e p   11602                              ( at time 5.7999195E+00 )

 nodal point  x-disp     y-disp      z-disp      x-vel       y-vel       z-vel      x-accl      y-accl      z-accl      x-coor      y-coor      z-coor
    22626 -4.64990E-03-4.44863E-02-1.81750E+01 2.78035E-02 1.49952E-02-2.98981E+00 2.73154E-02 6.16519E-02 3.31631E-01 4.79595E+01-2.20743E+01-1.08365E+01



 n o d a l   p r i n t   o u t   f o r   t i m e  s t e p   11602                              ( at time 5.7999195E+00 )

 nodal point  x-rot      y-rot       z-rot       x-rot vel   y-rot vel   z-rot vel   x-rot acc   y-rot acc   z-rot acc
    22626  2.17690E-04 6.48596E-04 1.73393E-04 7.65516E-04 1.82219E-03 3.78570E-05 1.45829E-03 3.16428E-03-6.42617E-04



 n o d a l   p r i n t   o u t   f o r   t i m e  s t e p   11802                              ( at time 5.8999095E+00 )

 nodal point  x-disp     y-disp      z-disp      x-vel       y-vel       z-vel      x-accl      y-accl      z-accl      x-coor      y-coor      z-coor
    22626 -1.69062E-03-4.26605E-02-1.84720E+01 3.13551E-02 2.15406E-02-2.95174E+00 3.55200E-02 6.54610E-02 3.80655E-01 4.79625E+01-2.20725E+01-1.11335E+01



 n o d a l   p r i n t   o u t   f o r   t i m e  s t e p   11802                              ( at time 5.8999095E+00 )

 nodal point  x-rot      y-rot       z-rot       x-rot vel   y-rot vel   z-rot vel   x-rot acc   y-rot acc   z-rot acc
    22626  3.01999E-04 8.48265E-04 1.73050E-04 9.33047E-04 2.16756E-03-4.95176E-05 1.67548E-03 3.45406E-03-8.73834E-04



 n o d a l   p r i n t   o u t   f o r   t i m e  s t e p   12002                              ( at time 5.9998995E+00 )

 nodal point  x-disp     y-disp      z-disp      x-vel       y-vel       z-vel      x-accl      y-accl      z-accl      x-coor      y-coor      z-coor
    22626  1.58808E-03-4.01399E-02-1.87653E+01 3.42705E-02 2.91656E-02-2.91315E+00 2.91571E-02 7.62575E-02 3.85934E-01 4.79658E+01-2.20699E+01-1.14268E+01



 n o d a l   p r i n t   o u t   f o r   t i m e  s t e p   12002                              ( at time 5.9998995E+00 )

 nodal point  x-rot      y-rot       z-rot       x-rot vel   y-rot vel   z-rot vel   x-rot acc   y-rot acc   z-rot acc
    22626  4.05624E-04 1.08184E-03 1.64446E-04 1.11814E-03 2.49892E-03-1.37499E-04 1.85115E-03 3.31391E-03-8.79899E-04



 n o d a l   p r i n t   o u t   f o r   t i m e  s t e p   12202                              ( at time 6.0998895E+00 )

 nodal point  x-disp     y-disp      z-disp      x-vel       y-vel       z-vel      x-accl      y-accl      z-accl      x-coor      y-coor      z-coor
    22626  5.25718E-03-3.68949E-02-1.90546E+01 3.83261E-02 3.56788E-02-2.87277E+00 4.05598E-02 6.51382E-02 4.03889E-01 4.79694E+01-2.20667E+01-1.17161E+01



 n o d a l   p r i n t   o u t   f o r   t i m e  s t e p   12202                              ( at time 6.0998895E+00 )

 nodal point  x-rot      y-rot       z-rot       x-rot vel   y-rot vel   z-rot vel   x-rot acc   y-rot acc   z-rot acc
    22626  5.24637E-04 1.34989E-03 1.45900E-04 1.28214E-03 2.86877E-03-2.36241E-04 1.64014E-03 3.69886E-03-9.87521E-04



 n o d a l   p r i n t   o u t   f o r   t i m e  s t e p   12402                              ( at time 6.1998795E+00 )

 nodal point  x-disp     y-disp      z-disp      x-vel       y-vel       z-vel      x-accl      y-accl      z-accl      x-coor      y-coor      z-coor
    22626  9.31828E-03-3.29245E-02-1.93397E+01 4.33989E-02 4.39455E-02-2.83037E+00 5.07327E-02 8.26752E-02 4.24037E-01 4.79735E+01-2.20627E+01-1.20012E+01



 n o d a l   p r i n t   o u t   f o r   t i m e  s t e p   12402                              ( at time 6.1998795E+00 )

 nodal point  x-rot      y-rot       z-rot       x-rot vel   y-rot vel   z-rot vel   x-rot acc   y-rot acc   z-rot acc
    22626  6.63014E-04 1.65319E-03 1.16843E-04 1.49656E-03 3.19482E-03-3.46757E-04 2.14438E-03 3.26082E-03-1.10527E-03



 n o d a l   p r i n t   o u t   f o r   t i m e  s t e p   12602                              ( at time 6.2998695E+00 )

 nodal point  x-disp     y-disp      z-disp      x-vel       y-vel       z-vel      x-accl      y-accl      z-accl      x-coor      y-coor      z-coor
    22626  1.39015E-02-2.81777E-02-1.96204E+01 4.89717E-02 5.08940E-02-2.78511E+00 5.57340E-02 6.94921E-02 4.52674E-01 4.79781E+01-2.20580E+01-1.22819E+01



 n o d a l   p r i n t   o u t   f o r   t i m e  s t e p   12602                              ( at time 6.2998695E+00 )

 nodal point  x-rot      y-rot       z-rot       x-rot vel   y-rot vel   z-rot vel   x-rot acc   y-rot acc   z-rot acc
    22626  8.21303E-04 1.99040E-03 7.65286E-05 1.67578E-03 3.54967E-03-4.72346E-04 1.79234E-03 3.54882E-03-1.25601E-03



 n o d a l   p r i n t   o u t   f o r   t i m e  s t e p   12802                              ( at time 6.3998595E+00 )

 nodal point  x-disp     y-disp      z-disp      x-vel       y-vel       z-vel      x-accl      y-accl      z-accl      x-coor      y-coor      z-coor
    22626  1.91214E-02-2.27520E-02-1.98966E+01 5.57210E-02 5.77860E-02-2.73899E+00 6.74994E-02 6.89266E-02 4.61215E-01 4.79833E+01-2.20525E+01-1.25581E+01



 n o d a l   p r i n t   o u t   f o r   t i m e  s t e p   12802                              ( at time 6.3998595E+00 )

 nodal point  x-rot      y-rot       z-rot       x-rot vel   y-rot vel   z-rot vel   x-rot acc   y-rot acc   z-rot acc
    22626  9.98278E-04 2.36381E-03 2.46587E-05 1.86521E-03 3.89308E-03-5.66635E-04 1.89458E-03 3.43448E-03-9.42985E-04



 n o d a l   p r i n t   o u t   f o r   t i m e  s t e p   13002                              ( at time 6.4998495E+00 )

 nodal point  x-disp     y-disp      z-disp      x-vel       y-vel       z-vel      x-accl      y-accl      z-accl      x-coor      y-coor      z-coor
    22626  2.50961E-02-1.65918E-02-2.01681E+01 6.32890E-02 6.57537E-02-2.69104E+00 7.56879E-02 7.96850E-02 4.79556E-01 4.79893E+01-2.20464E+01-1.28296E+01



 n o d a l   p r i n t   o u t   f o r   t i m e  s t e p   13002                              ( at time 6.4998495E+00 )

 nodal point  x-rot      y-rot       z-rot       x-rot vel   y-rot vel   z-rot vel   x-rot acc   y-rot acc   z-rot acc
    22626  1.19720E-03 2.76923E-03-3.78581E-05 2.10038E-03 4.22286E-03-6.80436E-04 2.35190E-03 3.29815E-03-1.13813E-03



 n o d a l   p r i n t   o u t   f o r   t i m e  s t e p   13202                              ( at time 6.5998395E+00 )

 nodal point  x-disp     y-disp      z-disp      x-vel       y-vel       z-vel      x-accl      y-accl      z-accl      x-coor      y-coor      z-coor
    22626  3.18702E-02-9.56930E-03-2.04348E+01 7.14677E-02 7.39802E-02-2.64307E+00 8.17955E-02 8.22728E-02 4.79759E-01 4.79961E+01-2.20394E+01-1.30963E+01



 n o d a l   p r i n t   o u t   f o r   t i m e  s t e p   13202                              ( at time 6.5998395E+00 )

 nodal point  x-rot      y-rot       z-rot       x-rot vel   y-rot vel   z-rot vel   x-rot acc   y-rot acc   z-rot acc
    22626  1.41713E-03 3.20763E-03-1.13100E-04 2.30618E-03 4.53898E-03-8.02286E-04 2.05816E-03 3.16145E-03-1.21862E-03



 n o d a l   p r i n t   o u t   f o r   t i m e  s t e p   13402                              ( at time 6.6998295E+00 )

 nodal point  x-disp     y-disp      z-disp      x-vel       y-vel       z-vel      x-accl      y-accl      z-accl      x-coor      y-coor      z-coor
    22626  3.94405E-02-1.80624E-03-2.06966E+01 8.03023E-02 8.13209E-02-2.59343E+00 8.83541E-02 7.34150E-02 4.96481E-01 4.80036E+01-2.20316E+01-1.33581E+01



 n o d a l   p r i n t   o u t   f o r   t i m e  s t e p   13402                              ( at time 6.6998295E+00 )

 nodal point  x-rot      y-rot       z-rot       x-rot vel   y-rot vel   z-rot vel   x-rot acc   y-rot acc   z-rot acc
    22626  1.65915E-03 3.67657E-03-1.99644E-04 2.53833E-03 4.84575E-03-9.31640E-04 2.32176E-03 3.06809E-03-1.29367E-03



 n o d a l   p r i n t   o u t   f o r   t i m e  s t e p   13602                              ( at time 6.7998195E+00 )

 nodal point  x-disp     y-disp      z-disp      x-vel       y-vel       z-vel      x-accl      y-accl      z-accl      x-coor      y-coor      z-coor
    22626  4.79539E-02 6.71486E-03-2.09533E+01 9.02144E-02 8.89050E-02-2.54194E+00 9.91314E-02 7.58486E-02 5.14869E-01 4.80121E+01-2.20231E+01-1.36148E+01



 n o d a l   p r i n t   o u t   f o r   t i m e  s t e p   13602                              ( at time 6.7998195E+00 )

 nodal point  x-rot      y-rot       z-rot       x-rot vel   y-rot vel   z-rot vel   x-rot acc   y-rot acc   z-rot acc
    22626  1.92326E-03 4.17571E-03-2.98788E-04 2.74441E-03 5.13435E-03-1.06520E-03 2.06099E-03 2.88624E-03-1.33578E-03



 n o d a l   p r i n t   o u t   f o r   t i m e  s t e p   13802                              ( at time 6.8998095E+00 )

 nodal point  x-disp     y-disp      z-disp      x-vel       y-vel       z-vel      x-accl      y-accl      z-accl      x-coor      y-coor      z-coor
    22626  5.74581E-02 1.60033E-02-2.12049E+01 9.91746E-02 9.70079E-02-2.48943E+00 8.96105E-02 8.10374E-02 5.25215E-01 4.80216E+01-2.20138E+01-1.38664E+01



 n o d a l   p r i n t   o u t   f o r   t i m e  s t e p   13802                              ( at time 6.8998095E+00 )

 nodal point  x-rot      y-rot       z-rot       x-rot vel   y-rot vel   z-rot vel   x-rot acc   y-rot acc   z-rot acc
    22626  2.21092E-03 4.70423E-03-4.10919E-04 2.99475E-03 5.42023E-03-1.18902E-03 2.50372E-03 2.85907E-03-1.23828E-03



 n o d a l   p r i n t   o u t   f o r   t i m e  s t e p   14002                              ( at time 6.9997995E+00 )

 nodal point  x-disp     y-disp      z-disp      x-vel       y-vel       z-vel      x-accl      y-accl      z-accl      x-coor      y-coor      z-coor
    22626  6.78758E-02 2.60898E-02-2.14511E+01 1.08775E-01 1.05242E-01-2.43608E+00 9.60095E-02 8.23456E-02 5.33506E-01 4.80321E+01-2.20037E+01-1.41126E+01



 n o d a l   p r i n t   o u t   f o r   t i m e  s t e p   14002                              ( at time 6.9997995E+00 )

 nodal point  x-rot      y-rot       z-rot       x-rot vel   y-rot vel   z-rot vel   x-rot acc   y-rot acc   z-rot acc
    22626  2.52150E-03 5.26070E-03-5.35105E-04 3.21996E-03 5.70931E-03-1.31537E-03 2.25233E-03 2.89116E-03-1.26363E-03



 n o d a l   p r i n t   o u t   f o r   t i m e  s t e p   14202                              ( at time 7.0997895E+00 )

 nodal point  x-disp     y-disp      z-disp      x-vel       y-vel       z-vel      x-accl      y-accl      z-accl      x-coor      y-coor      z-coor
    22626  7.92563E-02 3.69682E-02-2.16920E+01 1.19028E-01 1.11970E-01-2.38230E+00 1.02546E-01 6.72930E-02 5.37879E-01 4.80434E+01-2.19928E+01-1.43535E+01



 n o d a l   p r i n t   o u t   f o r   t i m e  s t e p   14202                              ( at time 7.0997895E+00 )

 nodal point  x-rot      y-rot       z-rot       x-rot vel   y-rot vel   z-rot vel   x-rot acc   y-rot acc   z-rot acc
    22626  2.85598E-03 5.84605E-03-6.72631E-04 3.47265E-03 5.98810E-03-1.43474E-03 2.52711E-03 2.78812E-03-1.19377E-03



 n o d a l   p r i n t   o u t   f o r   t i m e  s t e p   14402                              ( at time 7.1997794E+00 )

 nodal point  x-disp     y-disp      z-disp      x-vel       y-vel       z-vel      x-accl      y-accl      z-accl      x-coor      y-coor      z-coor
    22626  9.15979E-02 4.84886E-02-2.19274E+01 1.28335E-01 1.18338E-01-2.32560E+00 9.30816E-02 6.36804E-02 5.67076E-01 4.80558E+01-2.19813E+01-1.45889E+01



 n o d a l   p r i n t   o u t   f o r   t i m e  s t e p   14402                              ( at time 7.1997794E+00 )

 nodal point  x-rot      y-rot       z-rot       x-rot vel   y-rot vel   z-rot vel   x-rot acc   y-rot acc   z-rot acc
    22626  3.21513E-03 6.45911E-03-8.21458E-04 3.71361E-03 6.26954E-03-1.55796E-03 2.40979E-03 2.81472E-03-1.23239E-03



 n o d a l   p r i n t   o u t   f o r   t i m e  s t e p   14602                              ( at time 7.2997694E+00 )

 nodal point  x-disp     y-disp      z-disp      x-vel       y-vel       z-vel      x-accl      y-accl      z-accl      x-coor      y-coor      z-coor
    22626  1.04875E-01 6.06338E-02-2.21571E+01 1.36664E-01 1.25067E-01-2.26957E+00 8.32947E-02 6.73005E-02 5.60383E-01 4.80691E+01-2.19692E+01-1.48186E+01



 n o d a l   p r i n t   o u t   f o r   t i m e  s t e p   14602                              ( at time 7.2997694E+00 )

 nodal point  x-rot      y-rot       z-rot       x-rot vel   y-rot vel   z-rot vel   x-rot acc   y-rot acc   z-rot acc
    22626  3.59966E-03 7.10079E-03-9.81846E-04 3.97124E-03 6.55534E-03-1.67013E-03 2.57662E-03 2.85830E-03-1.12176E-03



 n o d a l   p r i n t   o u t   f o r   t i m e  s t e p   14802                              ( at time 7.3997594E+00 )

 nodal point  x-disp     y-disp      z-disp      x-vel       y-vel       z-vel      x-accl      y-accl      z-accl      x-coor      y-coor      z-coor
    22626  1.19007E-01 7.33939E-02-2.23812E+01 1.45249E-01 1.29546E-01-2.21322E+00 8.58559E-02 4.47950E-02 5.63476E-01 4.80832E+01-2.19564E+01-1.50427E+01



 n o d a l   p r i n t   o u t   f o r   t i m e  s t e p   14802                              ( at time 7.3997594E+00 )

 nodal point  x-rot      y-rot       z-rot       x-rot vel   y-rot vel   z-rot vel   x-rot acc   y-rot acc   z-rot acc
    22626  4.00979E-03 7.77028E-03-1.15303E-03 4.22373E-03 6.83249E-03-1.76398E-03 2.52515E-03 2.77172E-03-9.38590E-04



 n o d a l   p r i n t   o u t   f o r   t i m e  s t e p   15002                              ( at time 7.4997494E+00 )

 nodal point  x-disp     y-disp      z-disp      x-vel       y-vel       z-vel      x-accl      y-accl      z-accl      x-coor      y-coor      z-coor
    22626  1.33968E-01 8.65753E-02-2.25995E+01 1.53443E-01 1.33999E-01-2.15308E+00 8.19477E-02 4.45300E-02 6.01538E-01 4.80981E+01-2.19432E+01-1.52610E+01



 n o d a l   p r i n t   o u t   f o r   t i m e  s t e p   15002                              ( at time 7.4997494E+00 )

 nodal point  x-rot      y-rot       z-rot       x-rot vel   y-rot vel   z-rot vel   x-rot acc   y-rot acc   z-rot acc
    22626  4.44655E-03 8.46874E-03-1.33495E-03 4.51130E-03 7.13194E-03-1.87323E-03 2.87601E-03 2.99484E-03-1.09264E-03



 n o d a l   p r i n t   o u t   f o r   t i m e  s t e p   15202                              ( at time 7.5997394E+00 )

 nodal point  x-disp     y-disp      z-disp      x-vel       y-vel       z-vel      x-accl      y-accl      z-accl      x-coor      y-coor      z-coor
    22626  1.49673E-01 1.00160E-01-2.28117E+01 1.60675E-01 1.36975E-01-2.09099E+00 7.23314E-02 2.97638E-02 6.20869E-01 4.81139E+01-2.19296E+01-1.54732E+01



 n o d a l   p r i n t   o u t   f o r   t i m e  s t e p   15202                              ( at time 7.5997394E+00 )

 nodal point  x-rot      y-rot       z-rot       x-rot vel   y-rot vel   z-rot vel   x-rot acc   y-rot acc   z-rot acc
    22626  4.91051E-03 9.19611E-03-1.52694E-03 4.77796E-03 7.42130E-03-1.96873E-03 2.66684E-03 2.89387E-03-9.55095E-04



 n o d a l   p r i n t   o u t   f o r   t i m e  s t e p   15402                              ( at time 7.6997294E+00 )

 nodal point  x-disp     y-disp      z-disp      x-vel       y-vel       z-vel      x-accl      y-accl      z-accl      x-coor      y-coor      z-coor
    22626  1.66024E-01 1.13943E-01-2.30175E+01 1.66161E-01 1.39060E-01-2.02585E+00 5.48604E-02 2.08529E-02 6.51545E-01 4.81302E+01-2.19158E+01-1.56790E+01



 n o d a l   p r i n t   o u t   f o r   t i m e  s t e p   15402                              ( at time 7.6997294E+00 )

 nodal point  x-rot      y-rot       z-rot       x-rot vel   y-rot vel   z-rot vel   x-rot acc   y-rot acc   z-rot acc
    22626  5.40302E-03 9.95329E-03-1.72757E-03 5.08664E-03 7.71446E-03-2.06277E-03 3.08706E-03 2.93189E-03-9.40514E-04



 n o d a l   p r i n t   o u t   f o r   t i m e  s t e p   15602                              ( at time 7.7997194E+00 )

 nodal point  x-disp     y-disp      z-disp      x-vel       y-vel       z-vel      x-accl      y-accl      z-accl      x-coor      y-coor      z-coor
    22626  1.83028E-01 1.27945E-01-2.32168E+01 1.73712E-01 1.41056E-01-1.96003E+00 7.55190E-02 1.99678E-02 6.58207E-01 4.81472E+01-2.19018E+01-1.58783E+01



 n o d a l   p r i n t   o u t   f o r   t i m e  s t e p   15602                              ( at time 7.7997194E+00 )

 nodal point  x-rot      y-rot       z-rot       x-rot vel   y-rot vel   z-rot vel   x-rot acc   y-rot acc   z-rot acc
    22626  5.92607E-03 1.07391E-02-1.93754E-03 5.36996E-03 7.98791E-03-2.14891E-03 2.83357E-03 2.73479E-03-8.61491E-04



 n o d a l   p r i n t   o u t   f o r   t i m e  s t e p   15802                              ( at time 7.8997094E+00 )

 nodal point  x-disp     y-disp      z-disp      x-vel       y-vel       z-vel      x-accl      y-accl      z-accl      x-coor      y-coor      z-coor
    22626  2.00758E-01 1.41977E-01-2.34094E+01 1.80952E-01 1.40963E-01-1.89198E+00 7.24146E-02-9.31268E-04 6.80641E-01 4.81649E+01-2.18878E+01-1.60709E+01



 n o d a l   p r i n t   o u t   f o r   t i m e  s t e p   15802                              ( at time 7.8997094E+00 )

 nodal point  x-rot      y-rot       z-rot       x-rot vel   y-rot vel   z-rot vel   x-rot acc   y-rot acc   z-rot acc
    22626  6.47908E-03 1.15503E-02-2.15591E-03 5.70134E-03 8.23257E-03-2.22587E-03 3.31406E-03 2.44684E-03-7.69704E-04



 n o d a l   p r i n t   o u t   f o r   t i m e  s t e p   16002                              ( at time 7.9996994E+00 )

 nodal point  x-disp     y-disp      z-disp      x-vel       y-vel       z-vel      x-accl      y-accl      z-accl      x-coor      y-coor      z-coor
    22626  2.19152E-01 1.56113E-01-2.35951E+01 1.87499E-01 1.41828E-01-1.82244E+00 6.54737E-02 8.65081E-03 6.95462E-01 4.81833E+01-2.18737E+01-1.62566E+01



 n o d a l   p r i n t   o u t   f o r   t i m e  s t e p   16002                              ( at time 7.9996994E+00 )

 nodal point  x-rot      y-rot       z-rot       x-rot vel   y-rot vel   z-rot vel   x-rot acc   y-rot acc   z-rot acc
    22626  7.06438E-03 1.23855E-02-2.38171E-03 6.01627E-03 8.45116E-03-2.29541E-03 3.14960E-03 2.18606E-03-6.95455E-04



 n o d a l   p r i n t   o u t   f o r   t i m e  s t e p   16202                              ( at time 8.0996894E+00 )

 nodal point  x-disp     y-disp      z-disp      x-vel       y-vel       z-vel      x-accl      y-accl      z-accl      x-coor      y-coor      z-coor
    22626  2.38262E-01 1.70145E-01-2.37737E+01 1.94697E-01 1.38699E-01-1.75129E+00 7.19897E-02-3.12919E-02 7.11520E-01 4.82024E+01-2.18596E+01-1.64352E+01



 n o d a l   p r i n t   o u t   f o r   t i m e  s t e p   16202                              ( at time 8.0996894E+00 )

 nodal point  x-rot      y-rot       z-rot       x-rot vel   y-rot vel   z-rot vel   x-rot acc   y-rot acc   z-rot acc
    22626  7.68251E-03 1.32433E-02-2.61460E-03 6.35711E-03 8.70311E-03-2.37194E-03 3.40883E-03 2.51983E-03-7.65359E-04



 n o d a l   p r i n t   o u t   f o r   t i m e  s t e p   16402                              ( at time 8.1996794E+00 )

 nodal point  x-disp     y-disp      z-disp      x-vel       y-vel       z-vel      x-accl      y-accl      z-accl      x-coor      y-coor      z-coor
    22626  2.58085E-01 1.84017E-01-2.39453E+01 2.00748E-01 1.38377E-01-1.68044E+00 6.05099E-02-3.22494E-03 7.08538E-01 4.82223E+01-2.18458E+01-1.66068E+01



 n o d a l   p r i n t   o u t   f o r   t i m e  s t e p   16402                              ( at time 8.1996794E+00 )

 nodal point  x-rot      y-rot       z-rot       x-rot vel   y-rot vel   z-rot vel   x-rot acc   y-rot acc   z-rot acc
    22626  8.33523E-03 1.41238E-02-2.85570E-03 6.68499E-03 8.90980E-03-2.44234E-03 3.27911E-03 2.06709E-03-7.04011E-04



 n o d a l   p r i n t   o u t   f o r   t i m e  s t e p   16602                              ( at time 8.2996694E+00 )

 nodal point  x-disp     y-disp      z-disp      x-vel       y-vel       z-vel      x-accl      y-accl      z-accl      x-coor      y-coor      z-coor
    22626  2.78500E-01 1.97744E-01-2.41098E+01 2.07724E-01 1.35718E-01-1.60925E+00 6.97674E-02-2.65931E-02 7.12040E-01 4.82427E+01-2.18320E+01-1.67713E+01



 n o d a l   p r i n t   o u t   f o r   t i m e  s t e p   16602                              ( at time 8.2996694E+00 )

 nodal point  x-rot      y-rot       z-rot       x-rot vel   y-rot vel   z-rot vel   x-rot acc   y-rot acc   z-rot acc
    22626  9.02146E-03 1.50231E-02-3.10214E-03 7.04425E-03 9.07556E-03-2.47948E-03 3.59294E-03 1.65773E-03-3.71523E-04



 n o d a l   p r i n t   o u t   f o r   t i m e  s t e p   16802                              ( at time 8.3996594E+00 )

 nodal point  x-disp     y-disp      z-disp      x-vel       y-vel       z-vel      x-accl      y-accl      z-accl      x-coor      y-coor      z-coor
    22626  2.99658E-01 2.11216E-01-2.42670E+01 2.14683E-01 1.32577E-01-1.53553E+00 6.96031E-02-3.14159E-02 7.37231E-01 4.82638E+01-2.18186E+01-1.69285E+01



 n o d a l   p r i n t   o u t   f o r   t i m e  s t e p   16802                              ( at time 8.3996594E+00 )

 nodal point  x-rot      y-rot       z-rot       x-rot vel   y-rot vel   z-rot vel   x-rot acc   y-rot acc   z-rot acc
    22626  9.74358E-03 1.59387E-02-3.35525E-03 7.40518E-03 9.24622E-03-2.56736E-03 3.60968E-03 1.70677E-03-8.78836E-04



 n o d a l   p r i n t   o u t   f o r   t i m e  s t e p   17002                              ( at time 8.4996494E+00 )

 nodal point  x-disp     y-disp      z-disp      x-vel       y-vel       z-vel      x-accl      y-accl      z-accl      x-coor      y-coor      z-coor
    22626  3.21374E-01 2.24144E-01-2.44167E+01 2.20110E-01 1.26080E-01-1.46107E+00 5.42673E-02-6.49703E-02 7.44649E-01 4.82856E+01-2.18056E+01-1.70782E+01



 n o d a l   p r i n t   o u t   f o r   t i m e  s t e p   17002                              ( at time 8.4996494E+00 )

 nodal point  x-rot      y-rot       z-rot       x-rot vel   y-rot vel   z-rot vel   x-rot acc   y-rot acc   z-rot acc
    22626  1.05020E-02 1.68727E-02-3.61545E-03 7.76402E-03 9.40931E-03-2.63962E-03 3.58872E-03 1.63108E-03-7.22689E-04



 n o d a l   p r i n t   o u t   f o r   t i m e  s t e p   17202                              ( at time 8.5996394E+00 )

 nodal point  x-disp     y-disp      z-disp      x-vel       y-vel       z-vel      x-accl      y-accl      z-accl      x-coor      y-coor      z-coor
    22626  3.43756E-01 2.36517E-01-2.45590E+01 2.27728E-01 1.21815E-01-1.38292E+00 7.61927E-02-4.26552E-02 7.81672E-01 4.83079E+01-2.17933E+01-1.72205E+01



 n o d a l   p r i n t   o u t   f o r   t i m e  s t e p   17202                              ( at time 8.5996394E+00 )

 nodal point  x-rot      y-rot       z-rot       x-rot vel   y-rot vel   z-rot vel   x-rot acc   y-rot acc   z-rot acc
    22626  1.12972E-02 1.78190E-02-3.88155E-03 8.14626E-03 9.52088E-03-2.70686E-03 3.82283E-03 1.11578E-03-6.72434E-04



 n o d a l   p r i n t   o u t   f o r   t i m e  s t e p   17402                              ( at time 8.6996293E+00 )

 nodal point  x-disp     y-disp      z-disp      x-vel       y-vel       z-vel      x-accl      y-accl      z-accl      x-coor      y-coor      z-coor
    22626  3.66866E-01 2.48255E-01-2.46935E+01 2.34822E-01 1.13575E-01-1.30617E+00 7.09485E-02-8.24063E-02 7.67507E-01 4.83310E+01-2.17815E+01-1.73550E+01



 n o d a l   p r i n t   o u t   f o r   t i m e  s t e p   17402                              ( at time 8.6996293E+00 )

 nodal point  x-rot      y-rot       z-rot       x-rot vel   y-rot vel   z-rot vel   x-rot acc   y-rot acc   z-rot acc
    22626  1.21310E-02 1.87768E-02-4.15366E-03 8.51666E-03 9.63665E-03-2.75685E-03 3.70433E-03 1.15787E-03-4.99998E-04



 n o d a l   p r i n t   o u t   f o r   t i m e  s t e p   17602                              ( at time 8.7996193E+00 )

 nodal point  x-disp     y-disp      z-disp      x-vel       y-vel       z-vel      x-accl      y-accl      z-accl      x-coor      y-coor      z-coor
    22626  3.90599E-01 2.59337E-01-2.48201E+01 2.40681E-01 1.07282E-01-1.22908E+00 5.85891E-02-6.29376E-02 7.71035E-01 4.83548E+01-2.17705E+01-1.74816E+01



 n o d a l   p r i n t   o u t   f o r   t i m e  s t e p   17602                              ( at time 8.7996193E+00 )

 nodal point  x-rot      y-rot       z-rot       x-rot vel   y-rot vel   z-rot vel   x-rot acc   y-rot acc   z-rot acc
    22626  1.30032E-02 1.97445E-02-4.43151E-03 8.94292E-03 9.70771E-03-2.80236E-03 4.26300E-03 7.10680E-04-4.55144E-04



 n o d a l   p r i n t   o u t   f o r   t i m e  s t e p   17802                              ( at time 8.8996093E+00 )

 nodal point  x-disp     y-disp      z-disp      x-vel       y-vel       z-vel      x-accl      y-accl      z-accl      x-coor      y-coor      z-coor
    22626  4.15001E-01 2.69705E-01-2.49391E+01 2.48468E-01 1.00550E-01-1.15092E+00 7.78766E-02-6.73305E-02 7.81626E-01 4.83792E+01-2.17601E+01-1.76006E+01



 n o d a l   p r i n t   o u t   f o r   t i m e  s t e p   17802                              ( at time 8.8996093E+00 )

 nodal point  x-rot      y-rot       z-rot       x-rot vel   y-rot vel   z-rot vel   x-rot acc   y-rot acc   z-rot acc
    22626  1.39163E-02 2.07213E-02-4.71529E-03 9.32117E-03 9.82825E-03-2.88855E-03 3.78294E-03 1.20550E-03-8.61994E-04



 n o d a l   p r i n t   o u t   f o r   t i m e  s t e p   18002                              ( at time 8.9995993E+00 )

 nodal point  x-disp     y-disp      z-disp      x-vel       y-vel       z-vel      x-accl      y-accl      z-accl      x-coor      y-coor      z-coor
    22626  4.40138E-01 2.79356E-01-2.50505E+01 2.54921E-01 9.31144E-02-1.07732E+00 6.45426E-02-7.43614E-02 7.36076E-01 4.84043E+01-2.17504E+01-1.77120E+01



 n o d a l   p r i n t   o u t   f o r   t i m e  s t e p   18002                              ( at time 8.9995993E+00 )

 nodal point  x-rot      y-rot       z-rot       x-rot vel   y-rot vel   z-rot vel   x-rot acc   y-rot acc   z-rot acc
    22626  1.48672E-02 2.17084E-02-5.00480E-03 9.70445E-03 9.90809E-03-2.91594E-03 3.83320E-03 7.98494E-04-2.73864E-04



 n o d a l   p r i n t   o u t   f o r   t i m e  s t e p   18202                              ( at time 9.0995893E+00 )

 nodal point  x-disp     y-disp      z-disp      x-vel       y-vel       z-vel      x-accl      y-accl      z-accl      x-coor      y-coor      z-coor
    22626  4.65943E-01 2.88454E-01-2.51545E+01 2.61604E-01 8.86170E-02-1.00333E+00 6.68355E-02-4.49794E-02 7.39984E-01 4.84301E+01-2.17413E+01-1.78160E+01



 n o d a l   p r i n t   o u t   f o r   t i m e  s t e p   18202                              ( at time 9.0995893E+00 )

 nodal point  x-rot      y-rot       z-rot       x-rot vel   y-rot vel   z-rot vel   x-rot acc   y-rot acc   z-rot acc
    22626  1.58577E-02 2.27027E-02-5.29729E-03 1.01091E-02 9.96754E-03-2.94523E-03 4.04666E-03 5.94579E-04-2.93005E-04



 n o d a l   p r i n t   o u t   f o r   t i m e  s t e p   18402                              ( at time 9.1995793E+00 )

 nodal point  x-disp     y-disp      z-disp      x-vel       y-vel       z-vel      x-accl      y-accl      z-accl      x-coor      y-coor      z-coor
    22626  4.92483E-01 2.97085E-01-2.52511E+01 2.68782E-01 8.36193E-02-9.28719E-01 7.17832E-02-4.99816E-02 7.46185E-01 4.84567E+01-2.17327E+01-1.79125E+01



 n o d a l   p r i n t   o u t   f o r   t i m e  s t e p   18402                              ( at time 9.1995793E+00 )

 nodal point  x-rot      y-rot       z-rot       x-rot vel   y-rot vel   z-rot vel   x-rot acc   y-rot acc   z-rot acc
    22626  1.68896E-02 2.37054E-02-5.59587E-03 1.05308E-02 1.00697E-02-3.00325E-03 4.21759E-03 1.02123E-03-5.80270E-04



 n o d a l   p r i n t   o u t   f o r   t i m e  s t e p   18602                              ( at time 9.2995693E+00 )

 nodal point  x-disp     y-disp      z-disp      x-vel       y-vel       z-vel      x-accl      y-accl      z-accl      x-coor      y-coor      z-coor
    22626  5.19788E-01 3.05225E-01-2.53405E+01 2.76864E-01 7.95104E-02-8.58299E-01 8.08336E-02-4.10935E-02 7.04270E-01 4.84840E+01-2.17246E+01-1.80020E+01



 n o d a l   p r i n t   o u t   f o r   t i m e  s t e p   18602                              ( at time 9.2995693E+00 )

 nodal point  x-rot      y-rot       z-rot       x-rot vel   y-rot vel   z-rot vel   x-rot acc   y-rot acc   z-rot acc
    22626  1.79613E-02 2.47145E-02-5.89760E-03 1.09014E-02 1.01320E-02-3.03134E-03 3.70688E-03 6.23677E-04-2.80864E-04



 n o d a l   p r i n t   o u t   f o r   t i m e  s t e p   18802                              ( at time 9.3995593E+00 )

 nodal point  x-disp     y-disp      z-disp      x-vel       y-vel       z-vel      x-accl      y-accl      z-accl      x-coor      y-coor      z-coor
    22626  5.47770E-01 3.12920E-01-2.54228E+01 2.82847E-01 7.52188E-02-7.88786E-01 5.98339E-02-4.29204E-02 6.95204E-01 4.85120E+01-2.17169E+01-1.80843E+01



 n o d a l   p r i n t   o u t   f o r   t i m e  s t e p   18802                              ( at time 9.3995593E+00 )

 nodal point  x-rot      y-rot       z-rot       x-rot vel   y-rot vel   z-rot vel   x-rot acc   y-rot acc   z-rot acc
    22626  1.90731E-02 2.57317E-02-6.20502E-03 1.13303E-02 1.02057E-02-3.10796E-03 4.28940E-03 7.37077E-04-7.66316E-04



 n o d a l   p r i n t   o u t   f o r   t i m e  s t e p   19002                              ( at time 9.4995493E+00 )

 nodal point  x-disp     y-disp      z-disp      x-vel       y-vel       z-vel      x-accl      y-accl      z-accl      x-coor      y-coor      z-coor
    22626  5.76519E-01 3.20312E-01-2.54982E+01 2.90248E-01 7.27648E-02-7.20957E-01 7.40141E-02-2.45425E-02 6.78356E-01 4.85407E+01-2.17095E+01-1.81597E+01



 n o d a l   p r i n t   o u t   f o r   t i m e  s t e p   19002                              ( at time 9.4995493E+00 )

 nodal point  x-rot      y-rot       z-rot       x-rot vel   y-rot vel   z-rot vel   x-rot acc   y-rot acc   z-rot acc
    22626  2.02239E-02 2.67565E-02-6.51411E-03 1.16909E-02 1.02702E-02-3.14032E-03 3.60576E-03 6.44587E-04-3.23637E-04



 n o d a l   p r i n t   o u t   f o r   t i m e  s t e p   19202                              ( at time 9.5995393E+00 )

 nodal point  x-disp     y-disp      z-disp      x-vel       y-vel       z-vel      x-accl      y-accl      z-accl      x-coor      y-coor      z-coor
    22626  6.05910E-01 3.27499E-01-2.55669E+01 2.97444E-01 7.05667E-02-6.55363E-01 7.19735E-02-2.19830E-02 6.56001E-01 4.85701E+01-2.17023E+01-1.82284E+01



 n o d a l   p r i n t   o u t   f o r   t i m e  s t e p   19202                              ( at time 9.5995393E+00 )

 nodal point  x-rot      y-rot       z-rot       x-rot vel   y-rot vel   z-rot vel   x-rot acc   y-rot acc   z-rot acc
    22626  2.14156E-02 2.77874E-02-6.82919E-03 1.21157E-02 1.03438E-02-3.20431E-03 4.24891E-03 7.36064E-04-6.39942E-04



 n o d a l   p r i n t   o u t   f o r   t i m e  s t e p   19402                              ( at time 9.6995293E+00 )

 nodal point  x-disp     y-disp      z-disp      x-vel       y-vel       z-vel      x-accl      y-accl      z-accl      x-coor      y-coor      z-coor
    22626  6.36114E-01 3.34490E-01-2.56290E+01 3.06228E-01 6.94146E-02-5.87812E-01 8.78447E-02-1.15219E-02 6.75581E-01 4.86003E+01-2.16953E+01-1.82905E+01



 n o d a l   p r i n t   o u t   f o r   t i m e  s t e p   19402                              ( at time 9.6995293E+00 )

 nodal point  x-rot      y-rot       z-rot       x-rot vel   y-rot vel   z-rot vel   x-rot acc   y-rot acc   z-rot acc
    22626  2.26441E-02 2.88237E-02-7.14886E-03 1.24672E-02 1.03736E-02-3.24599E-03 3.51533E-03 2.98277E-04-4.16800E-04



 n o d a l   p r i n t   o u t   f o r   t i m e  s t e p   19602                              ( at time 9.7995193E+00 )

 nodal point  x-disp     y-disp      z-disp      x-vel       y-vel       z-vel      x-accl      y-accl      z-accl      x-coor      y-coor      z-coor
    22626  6.66993E-01 3.41339E-01-2.56846E+01 3.12736E-01 6.88501E-02-5.24901E-01 6.50925E-02-5.64558E-03 6.29176E-01 4.86312E+01-2.16885E+01-1.83461E+01



 n o d a l   p r i n t   o u t   f o r   t i m e  s t e p   19602                              ( at time 9.7995193E+00 )

 nodal point  x-rot      y-rot       z-rot       x-rot vel   y-rot vel   z-rot vel   x-rot acc   y-rot acc   z-rot acc
    22626  2.39132E-02 2.98661E-02-7.47247E-03 1.28876E-02 1.04625E-02-3.27578E-03 4.20455E-03 8.88776E-04-2.97916E-04



 n o d a l   p r i n t   o u t   f o r   t i m e  s t e p   19802                              ( at time 9.8995093E+00 )

 nodal point  x-disp     y-disp      z-disp      x-vel       y-vel       z-vel      x-accl      y-accl      z-accl      x-coor      y-coor      z-coor
    22626  6.98538E-01 3.48252E-01-2.57339E+01 3.20000E-01 6.84173E-02-4.61403E-01 7.26380E-02-4.32833E-03 6.35037E-01 4.86627E+01-2.16815E+01-1.83954E+01



 n o d a l   p r i n t   o u t   f o r   t i m e  s t e p   19802                              ( at time 9.8995093E+00 )

 nodal point  x-rot      y-rot       z-rot       x-rot vel   y-rot vel   z-rot vel   x-rot acc   y-rot acc   z-rot acc
    22626  2.52190E-02 3.09138E-02-7.79939E-03 1.32431E-02 1.04419E-02-3.30572E-03 3.55445E-03-2.05759E-04-2.99506E-04



 n o d a l   p r i n t   o u t   f o r   t i m e  s t e p   20003                              ( at time 9.9999992E+00 )

 nodal point  x-disp     y-disp      z-disp      x-vel       y-vel       z-vel      x-accl      y-accl      z-accl      x-coor      y-coor      z-coor
[...]
    22626  2.58338E-01 1.55049E-01-7.11452E-02 1.82081E-02 8.39943E-03-6.13247E-03-8.55405E-04-5.64852E-04 6.23894E-04



 n o d a l   p r i n t   o u t   f o r   t i m e  s t e p   45205                              ( at time 2.2599738E+01 )

 nodal point  x-disp     y-disp      z-disp      x-vel       y-vel       z-vel      x-accl      y-accl      z-accl      x-coor      y-coor      z-coor
    22626  4.68558E+00 9.82726E-01-2.01939E+01 2.70205E-01-5.57706E-02 4.70959E-01 2.65181E-02-5.72164E-02-5.45218E-02 5.26498E+01-2.10471E+01-1.28554E+01



 n o d a l   p r i n t   o u t   f o r   t i m e  s t e p   45205                              ( at time 2.2599738E+01 )

 nodal point  x-rot      y-rot       z-rot       x-rot vel   y-rot vel   z-rot vel   x-rot acc   y-rot acc   z-rot acc
    22626  2.60154E-01 1.55886E-01-7.17558E-02 1.81280E-02 8.35308E-03-6.07820E-03-8.01272E-04-4.63552E-04 5.42792E-04



 n o d a l   p r i n t   o u t   f o r   t i m e  s t e p   45405                              ( at time 2.2699728E+01 )

 nodal point  x-disp     y-disp      z-disp      x-vel       y-vel       z-vel      x-accl      y-accl      z-accl      x-coor      y-coor      z-coor
    22626  4.71273E+00 9.76896E-01-2.01471E+01 2.72507E-01-6.07228E-02 4.65692E-01 2.30266E-02-4.95276E-02-5.26787E-02 5.26769E+01-2.10529E+01-1.28086E+01



 n o d a l   p r i n t   o u t   f o r   t i m e  s t e p   45405                              ( at time 2.2699728E+01 )

 nodal point  x-rot      y-rot       z-rot       x-rot vel   y-rot vel   z-rot vel   x-rot acc   y-rot acc   z-rot acc
    22626  2.61963E-01 1.56719E-01-7.23606E-02 1.80514E-02 8.30665E-03-6.01907E-03-7.65315E-04-4.64353E-04 5.91339E-04



 n o d a l   p r i n t   o u t   f o r   t i m e  s t e p   45605                              ( at time 2.2799718E+01 )

 nodal point  x-disp     y-disp      z-disp      x-vel       y-vel       z-vel      x-accl      y-accl      z-accl      x-coor      y-coor      z-coor
    22626  4.74010E+00 9.70585E-01-2.01008E+01 2.74982E-01-6.51852E-02 4.61094E-01 2.47513E-02-4.46281E-02-4.59841E-02 5.27043E+01-2.10592E+01-1.27623E+01



 n o d a l   p r i n t   o u t   f o r   t i m e  s t e p   45605                              ( at time 2.2799718E+01 )

 nodal point  x-rot      y-rot       z-rot       x-rot vel   y-rot vel   z-rot vel   x-rot acc   y-rot acc   z-rot acc
    22626  2.63765E-01 1.57547E-01-7.29592E-02 1.79952E-02 8.25691E-03-5.96372E-03-5.62645E-04-4.97465E-04 5.53522E-04



 n o d a l   p r i n t   o u t   f o r   t i m e  s t e p   45805                              ( at time 2.2899708E+01 )

 nodal point  x-disp     y-disp      z-disp      x-vel       y-vel       z-vel      x-accl      y-accl      z-accl      x-coor      y-coor      z-coor
    22626  4.76769E+00 9.63825E-01-2.00549E+01 2.76899E-01-6.98010E-02 4.56303E-01 1.91686E-02-4.61626E-02-4.79146E-02 5.27319E+01-2.10660E+01-1.27164E+01



 n o d a l   p r i n t   o u t   f o r   t i m e  s t e p   45805                              ( at time 2.2899708E+01 )

 nodal point  x-rot      y-rot       z-rot       x-rot vel   y-rot vel   z-rot vel   x-rot acc   y-rot acc   z-rot acc
    22626  2.65561E-01 1.58371E-01-7.35521E-02 1.79331E-02 8.21461E-03-5.90071E-03-6.21149E-04-4.23072E-04 6.30226E-04



 n o d a l   p r i n t   o u t   f o r   t i m e  s t e p   46005                              ( at time 2.2999698E+01 )

 nodal point  x-disp     y-disp      z-disp      x-vel       y-vel       z-vel      x-accl      y-accl      z-accl      x-coor      y-coor      z-coor
    22626  4.79545E+00 9.56636E-01-2.00095E+01 2.78456E-01-7.37936E-02 4.51390E-01 1.55761E-02-3.99297E-02-4.91327E-02 5.27596E+01-2.10732E+01-1.26710E+01



 n o d a l   p r i n t   o u t   f o r   t i m e  s t e p   46005                              ( at time 2.2999698E+01 )

 nodal point  x-rot      y-rot       z-rot       x-rot vel   y-rot vel   z-rot vel   x-rot acc   y-rot acc   z-rot acc
    22626  2.67351E-01 1.59190E-01-7.41394E-02 1.78775E-02 8.16482E-03-5.84585E-03-5.55846E-04-4.97959E-04 5.48655E-04



 n o d a l   p r i n t   o u t   f o r   t i m e  s t e p   46205                              ( at time 2.3099688E+01 )

 nodal point  x-disp     y-disp      z-disp      x-vel       y-vel       z-vel      x-accl      y-accl      z-accl      x-coor      y-coor      z-coor
    22626  4.82340E+00 9.49095E-01-1.99646E+01 2.80393E-01-7.70879E-02 4.47299E-01 1.93638E-02-3.29468E-02-4.09183E-02 5.27876E+01-2.10807E+01-1.26261E+01



 n o d a l   p r i n t   o u t   f o r   t i m e  s t e p   46205                              ( at time 2.3099688E+01 )

 nodal point  x-rot      y-rot       z-rot       x-rot vel   y-rot vel   z-rot vel   x-rot acc   y-rot acc   z-rot acc
    22626  2.69137E-01 1.60004E-01-7.47214E-02 1.78330E-02 8.11799E-03-5.79112E-03-4.44737E-04-4.68367E-04 5.47366E-04



 n o d a l   p r i n t   o u t   f o r   t i m e  s t e p   46405                              ( at time 2.3199678E+01 )

 nodal point  x-disp     y-disp      z-disp      x-vel       y-vel       z-vel      x-accl      y-accl      z-accl      x-coor      y-coor      z-coor
    22626  4.85150E+00 9.41237E-01-1.99201E+01 2.81772E-01-8.00039E-02 4.43182E-01 1.37982E-02-2.91633E-02-4.11733E-02 5.28157E+01-2.10886E+01-1.25816E+01



 n o d a l   p r i n t   o u t   f o r   t i m e  s t e p   46405                              ( at time 2.3199678E+01 )

 nodal point  x-rot      y-rot       z-rot       x-rot vel   y-rot vel   z-rot vel   x-rot acc   y-rot acc   z-rot acc
    22626  2.70917E-01 1.60813E-01-7.52977E-02 1.77842E-02 8.07480E-03-5.73752E-03-4.88169E-04-4.31866E-04 5.36030E-04



 n o d a l   p r i n t   o u t   f o r   t i m e  s t e p   46605                              ( at time 2.3299668E+01 )

 nodal point  x-disp     y-disp      z-disp      x-vel       y-vel       z-vel      x-accl      y-accl      z-accl      x-coor      y-coor      z-coor
    22626  4.87972E+00 9.33107E-01-1.98760E+01 2.82589E-01-8.23057E-02 4.39216E-01 8.16793E-03-2.30204E-02-3.96671E-02 5.28439E+01-2.10967E+01-1.25375E+01



 n o d a l   p r i n t   o u t   f o r   t i m e  s t e p   46605                              ( at time 2.3299668E+01 )

 nodal point  x-rot      y-rot       z-rot       x-rot vel   y-rot vel   z-rot vel   x-rot acc   y-rot acc   z-rot acc
    22626  2.72694E-01 1.61618E-01-7.58687E-02 1.77490E-02 8.03177E-03-5.69215E-03-3.52433E-04-4.30402E-04 4.53716E-04



 n o d a l   p r i n t   o u t   f o r   t i m e  s t e p   46805                              ( at time 2.3399658E+01 )

 nodal point  x-disp     y-disp      z-disp      x-vel       y-vel       z-vel      x-accl      y-accl      z-accl      x-coor      y-coor      z-coor
    22626  4.90803E+00 9.24768E-01-1.98322E+01 2.83489E-01-8.43871E-02 4.35561E-01 9.00321E-03-2.08152E-02-3.65461E-02 5.28722E+01-2.11050E+01-1.24937E+01



 n o d a l   p r i n t   o u t   f o r   t i m e  s t e p   46805                              ( at time 2.3399658E+01 )

 nodal point  x-rot      y-rot       z-rot       x-rot vel   y-rot vel   z-rot vel   x-rot acc   y-rot acc   z-rot acc
    22626  2.74467E-01 1.62419E-01-7.64353E-02 1.77147E-02 7.97785E-03-5.64118E-03-3.42926E-04-5.39239E-04 5.09783E-04



 n o d a l   p r i n t   o u t   f o r   t i m e  s t e p   47005                              ( at time 2.3499648E+01 )

 nodal point  x-disp     y-disp      z-disp      x-vel       y-vel       z-vel      x-accl      y-accl      z-accl      x-coor      y-coor      z-coor
    22626  4.93643E+00 9.16286E-01-1.97888E+01 2.84358E-01-8.50766E-02 4.32695E-01 8.68549E-03-6.89607E-03-2.86719E-02 5.29006E+01-2.11135E+01-1.24503E+01



 n o d a l   p r i n t   o u t   f o r   t i m e  s t e p   47005                              ( at time 2.3499648E+01 )

 nodal point  x-rot      y-rot       z-rot       x-rot vel   y-rot vel   z-rot vel   x-rot acc   y-rot acc   z-rot acc
    22626  2.76237E-01 1.63215E-01-7.69971E-02 1.76874E-02 7.94836E-03-5.59623E-03-2.72344E-04-2.94893E-04 4.49488E-04



 n o d a l   p r i n t   o u t   f o r   t i m e  s t e p   47205                              ( at time 2.3599638E+01 )

 nodal point  x-disp     y-disp      z-disp      x-vel       y-vel       z-vel      x-accl      y-accl      z-accl      x-coor      y-coor      z-coor
    22626  4.96487E+00 9.07734E-01-1.97457E+01 2.84330E-01-8.58665E-02 4.29244E-01-2.76894E-04-7.89983E-03-3.45045E-02 5.29290E+01-2.11221E+01-1.24072E+01



 n o d a l   p r i n t   o u t   f o r   t i m e  s t e p   47205                              ( at time 2.3599638E+01 )

 nodal point  x-rot      y-rot       z-rot       x-rot vel   y-rot vel   z-rot vel   x-rot acc   y-rot acc   z-rot acc
    22626  2.78005E-01 1.64008E-01-7.75544E-02 1.76657E-02 7.90263E-03-5.55197E-03-2.17413E-04-4.57349E-04 4.42721E-04



 n o d a l   p r i n t   o u t   f o r   t i m e  s t e p   47405                              ( at time 2.3699628E+01 )

 nodal point  x-disp     y-disp      z-disp      x-vel       y-vel       z-vel      x-accl      y-accl      z-accl      x-coor      y-coor      z-coor
    22626  4.99329E+00 8.99149E-01-1.97030E+01 2.84045E-01-8.58705E-02 4.25993E-01-2.84608E-03-4.05349E-05-3.25128E-02 5.29575E+01-2.11306E+01-1.23645E+01



 n o d a l   p r i n t   o u t   f o r   t i m e  s t e p   47405                              ( at time 2.3699628E+01 )

 nodal point  x-rot      y-rot       z-rot       x-rot vel   y-rot vel   z-rot vel   x-rot acc   y-rot acc   z-rot acc
    22626  2.79770E-01 1.64795E-01-7.81076E-02 1.76481E-02 7.85530E-03-5.51047E-03-1.76278E-04-4.73388E-04 4.15003E-04



 n o d a l   p r i n t   o u t   f o r   t i m e  s t e p   47605                              ( at time 2.3799618E+01 )

 nodal point  x-disp     y-disp      z-disp      x-vel       y-vel       z-vel      x-accl      y-accl      z-accl      x-coor      y-coor      z-coor
    22626  5.02172E+00 8.90575E-01-1.96605E+01 2.84385E-01-8.57437E-02 4.23272E-01 3.39426E-03 1.26912E-03-2.72194E-02 5.29859E+01-2.11392E+01-1.23220E+01



 n o d a l   p r i n t   o u t   f o r   t i m e  s t e p   47605                              ( at time 2.3799618E+01 )

 nodal point  x-rot      y-rot       z-rot       x-rot vel   y-rot vel   z-rot vel   x-rot acc   y-rot acc   z-rot acc
    22626  2.81534E-01 1.65579E-01-7.86564E-02 1.76386E-02 7.81751E-03-5.46640E-03-9.44279E-05-3.77898E-04 4.40774E-04



 n o d a l   p r i n t   o u t   f o r   t i m e  s t e p   47805                              ( at time 2.3899608E+01 )

 nodal point  x-disp     y-disp      z-disp      x-vel       y-vel       z-vel      x-accl      y-accl      z-accl      x-coor      y-coor      z-coor
    22626  5.05015E+00 8.81970E-01-1.96184E+01 2.84281E-01-8.62352E-02 4.19938E-01-1.04139E-03-4.91627E-03-3.33462E-02 5.30143E+01-2.11478E+01-1.22799E+01



 n o d a l   p r i n t   o u t   f o r   t i m e  s t e p   47805                              ( at time 2.3899608E+01 )

 nodal point  x-rot      y-rot       z-rot       x-rot vel   y-rot vel   z-rot vel   x-rot acc   y-rot acc   z-rot acc
    22626  2.83298E-01 1.66358E-01-7.92007E-02 1.76562E-02 7.77086E-03-5.41398E-03 1.75179E-04-4.66547E-04 5.24266E-04



 n o d a l   p r i n t   o u t   f o r   t i m e  s t e p   48005                              ( at time 2.3999598E+01 )

 nodal point  x-disp     y-disp      z-disp      x-vel       y-vel       z-vel      x-accl      y-accl      z-accl      x-coor      y-coor      z-coor
    22626  5.07854E+00 8.73377E-01-1.95765E+01 2.83908E-01-8.53389E-02 4.16378E-01-3.72749E-03 8.96389E-03-3.55960E-02 5.30427E+01-2.11564E+01-1.22380E+01



 n o d a l   p r i n t   o u t   f o r   t i m e  s t e p   48005                              ( at time 2.3999598E+01 )

 nodal point  x-rot      y-rot       z-rot       x-rot vel   y-rot vel   z-rot vel   x-rot acc   y-rot acc   z-rot acc
    22626  2.85063E-01 1.67133E-01-7.97404E-02 1.76448E-02 7.73302E-03-5.37912E-03-1.13951E-04-3.78503E-04 3.48595E-04



 n o d a l   p r i n t   o u t   f o r   t i m e  s t e p   48205                              ( at time 2.4099588E+01 )

 nodal point  x-disp     y-disp      z-disp      x-vel       y-vel       z-vel      x-accl      y-accl      z-accl      x-coor      y-coor      z-coor
    22626  5.10690E+00 8.64904E-01-1.95350E+01 2.83418E-01-8.40836E-02 4.14006E-01-4.89816E-03 1.25543E-02-2.37242E-02 5.30711E+01-2.11649E+01-1.21965E+01



 n o d a l   p r i n t   o u t   f o r   t i m e  s t e p   48205                              ( at time 2.4099588E+01 )

 nodal point  x-rot      y-rot       z-rot       x-rot vel   y-rot vel   z-rot vel   x-rot acc   y-rot acc   z-rot acc
    22626  2.86828E-01 1.67905E-01-8.02771E-02 1.76651E-02 7.69119E-03-5.35588E-03 2.03010E-04-4.18305E-04 2.32437E-04



 n o d a l   p r i n t   o u t   f o r   t i m e  s t e p   48405                              ( at time 2.4199578E+01 )

 nodal point  x-disp     y-disp      z-disp      x-vel       y-vel       z-vel      x-accl      y-accl      z-accl      x-coor      y-coor      z-coor
    22626  5.13523E+00 8.56575E-01-1.94938E+01 2.82605E-01-8.28006E-02 4.11585E-01-8.13634E-03 1.28320E-02-2.42129E-02 5.30994E+01-2.11732E+01-1.21553E+01



 n o d a l   p r i n t   o u t   f o r   t i m e  s t e p   48405                              ( at time 2.4199578E+01 )

 nodal point  x-rot      y-rot       z-rot       x-rot vel   y-rot vel   z-rot vel   x-rot acc   y-rot acc   z-rot acc
    22626  2.88595E-01 1.68672E-01-8.08100E-02 1.76751E-02 7.65712E-03-5.30995E-03 1.00762E-04-3.40739E-04 4.59333E-04



 n o d a l   p r i n t   o u t   f o r   t i m e  s t e p   48605                              ( at time 2.4299568E+01 )

 nodal point  x-disp     y-disp      z-disp      x-vel       y-vel       z-vel      x-accl      y-accl      z-accl      x-coor      y-coor      z-coor
    22626  5.16346E+00 8.48333E-01-1.94528E+01 2.82120E-01-8.18981E-02 4.08186E-01-4.84809E-03 9.02564E-03-3.39891E-02 5.31276E+01-2.11815E+01-1.21143E+01



 n o d a l   p r i n t   o u t   f o r   t i m e  s t e p   48605                              ( at time 2.4299568E+01 )

 nodal point  x-rot      y-rot       z-rot       x-rot vel   y-rot vel   z-rot vel   x-rot acc   y-rot acc   z-rot acc
    22626  2.90363E-01 1.69435E-01-8.13395E-02 1.76886E-02 7.61674E-03-5.27975E-03 1.34160E-04-4.03789E-04 3.01981E-04



 n o d a l   p r i n t   o u t   f o r   t i m e  s t e p   48805                              ( at time 2.4399558E+01 )

 nodal point  x-disp     y-disp      z-disp      x-vel       y-vel       z-vel      x-accl      y-accl      z-accl      x-coor      y-coor      z-coor
    22626  5.19162E+00 8.40276E-01-1.94121E+01 2.81034E-01-7.92643E-02 4.05285E-01-1.08627E-02 2.63399E-02-2.90218E-02 5.31558E+01-2.11895E+01-1.20736E+01



 n o d a l   p r i n t   o u t   f o r   t i m e  s t e p   48805                              ( at time 2.4399558E+01 )

 nodal point  x-rot      y-rot       z-rot       x-rot vel   y-rot vel   z-rot vel   x-rot acc   y-rot acc   z-rot acc
    22626  2.92131E-01 1.70194E-01-8.18658E-02 1.76826E-02 7.56739E-03-5.24564E-03-5.93679E-05-4.93586E-04 3.41170E-04



 n o d a l   p r i n t   o u t   f o r   t i m e  s t e p   49006                              ( at time 2.4500048E+01 )

 nodal point  x-disp     y-disp      z-disp      x-vel       y-vel       z-vel      x-accl      y-accl      z-accl      x-coor      y-coor      z-coor
    22626  5.21981E+00 8.32457E-01-1.93714E+01 2.80044E-01-7.68468E-02 4.03737E-01-9.85367E-03 2.40582E-02-1.54035E-02 5.31840E+01-2.11973E+01-1.20329E+01



 n o d a l   p r i n t   o u t   f o r   t i m e  s t e p   49006                              ( at time 2.4500048E+01 )

 nodal point  x-rot      y-rot       z-rot       x-rot vel   y-rot vel   z-rot vel   x-rot acc   y-rot acc   z-rot acc
    22626  2.93910E-01 1.70954E-01-8.23914E-02 1.77094E-02 7.54286E-03-5.21886E-03 2.66898E-04-2.44066E-04 2.66518E-04



 n o d a l   p r i n t   o u t   f o r   t i m e  s t e p   49206                              ( at time 2.4600038E+01 )

 nodal point  x-disp     y-disp      z-disp      x-vel       y-vel       z-vel      x-accl      y-accl      z-accl      x-coor      y-coor      z-coor
    22626  5.24775E+00 8.24845E-01-1.93312E+01 2.79022E-01-7.51888E-02 4.00609E-01-1.02142E-02 1.65814E-02-3.12807E-02 5.32119E+01-2.12049E+01-1.19927E+01



 n o d a l   p r i n t   o u t   f o r   t i m e  s t e p   49206                              ( at time 2.4600038E+01 )

 nodal point  x-rot      y-rot       z-rot       x-rot vel   y-rot vel   z-rot vel   x-rot acc   y-rot acc   z-rot acc
    22626  2.95681E-01 1.71706E-01-8.29114E-02 1.77095E-02 7.49651E-03-5.18999E-03 2.42166E-07-4.63566E-04 2.88741E-04



 n o d a l   p r i n t   o u t   f o r   t i m e  s t e p   49406                              ( at time 2.4700028E+01 )

 nodal point  x-disp     y-disp      z-disp      x-vel       y-vel       z-vel      x-accl      y-accl      z-accl      x-coor      y-coor      z-coor
    22626  5.27560E+00 8.17413E-01-1.92914E+01 2.77765E-01-7.33256E-02 3.97671E-01-1.25723E-02 1.86336E-02-2.93845E-02 5.32398E+01-2.12124E+01-1.19529E+01



 n o d a l   p r i n t   o u t   f o r   t i m e  s t e p   49406                              ( at time 2.4700028E+01 )

 nodal point  x-rot      y-rot       z-rot       x-rot vel   y-rot vel   z-rot vel   x-rot acc   y-rot acc   z-rot acc
    22626  2.97451E-01 1.72453E-01-8.34288E-02 1.77080E-02 7.45936E-03-5.15726E-03-1.48283E-05-3.71522E-04 3.27359E-04



 n o d a l   p r i n t   o u t   f o r   t i m e  s t e p   49606                              ( at time 2.4800018E+01 )

 nodal point  x-disp     y-disp      z-disp      x-vel       y-vel       z-vel      x-accl      y-accl      z-accl      x-coor      y-coor      z-coor
    22626  5.30329E+00 8.10224E-01-1.92517E+01 2.76443E-01-7.02607E-02 3.95684E-01-1.32221E-02 3.06521E-02-1.98710E-02 5.32675E+01-2.12196E+01-1.19132E+01



 n o d a l   p r i n t   o u t   f o r   t i m e  s t e p   49606                              ( at time 2.4800018E+01 )

 nodal point  x-rot      y-rot       z-rot       x-rot vel   y-rot vel   z-rot vel   x-rot acc   y-rot acc   z-rot acc
    22626  2.99224E-01 1.73198E-01-8.39436E-02 1.77499E-02 7.43021E-03-5.13659E-03 4.18780E-04-2.91554E-04 2.06689E-04



 n o d a l   p r i n t   o u t   f o r   t i m e  s t e p   49806                              ( at time 2.4900008E+01 )

 nodal point  x-disp     y-disp      z-disp      x-vel       y-vel       z-vel      x-accl      y-accl      z-accl      x-coor      y-coor      z-coor
    22626  5.33083E+00 8.03283E-01-1.92122E+01 2.74508E-01-6.87884E-02 3.93241E-01-1.93504E-02 1.47247E-02-2.44361E-02 5.32950E+01-2.12265E+01-1.18737E+01



 n o d a l   p r i n t   o u t   f o r   t i m e  s t e p   49806                              ( at time 2.4900008E+01 )

 nodal point  x-rot      y-rot       z-rot       x-rot vel   y-rot vel   z-rot vel   x-rot acc   y-rot acc   z-rot acc
    22626  3.00999E-01 1.73938E-01-8.44556E-02 1.77459E-02 7.38630E-03-5.10754E-03-3.93807E-05-4.39116E-04 2.90498E-04



 n o d a l   p r i n t   o u t   f o r   t i m e  s t e p   50006                              ( at time 2.4999998E+01 )

 nodal point  x-disp     y-disp      z-disp      x-vel       y-vel       z-vel      x-accl      y-accl      z-accl      x-coor      y-coor      z-coor
    22626  5.35824E+00 7.96500E-01-1.91731E+01 2.73174E-01-6.68671E-02 3.90298E-01-1.33449E-02 1.92143E-02-2.94280E-02 5.33224E+01-2.12333E+01-1.18346E+01



 n o d a l   p r i n t   o u t   f o r   t i m e  s t e p   50006                              ( at time 2.4999998E+01 )

 nodal point  x-rot      y-rot       z-rot       x-rot vel   y-rot vel   z-rot vel   x-rot acc   y-rot acc   z-rot acc
    22626  3.02773E-01 1.74675E-01-8.49655E-02 1.77547E-02 7.35371E-03-5.08907E-03 8.80553E-05-3.25937E-04 1.84754E-04
