 LSTC 50th% Full_FE H-III Dummy (Beta Version, February 17, 2019)        
                    ls-dyna smp s R16 R16.0_619_d222963 date 03/18/2025

{BEGIN LEGEND}
 Entity #        Title
    22626                                                                                     
{END LEGEND}




 n o d a l   p r i n t   o u t   f o r   t i m e  s t e p       1                              ( at time 0.0000000E+00 )

 nodal point  x-disp     y-disp      z-disp      x-vel       y-vel       z-vel      x-accl      y-accl      z-accl      x-coor      y-coor      z-coor
    22626  0.00000E+00 0.00000E+00 0.00000E+00 0.00000E+00 0.00000E+00 0.00000E+00 0.00000E+00 0.00000E+00 0.00000E+00 4.65938E+00-2.81908E+01-4.49817E+01



 n o d a l   p r i n t   o u t   f o r   t i m e  s t e p       1                              ( at time 0.0000000E+00 )

 nodal point  x-rot      y-rot       z-rot       x-rot vel   y-rot vel   z-rot vel   x-rot acc   y-rot acc   z-rot acc
    22626  0.00000E+00 0.00000E+00 0.00000E+00 0.00000E+00 0.00000E+00 0.00000E+00 0.00000E+00 0.00000E+00 0.00000E+00



 n o d a l   p r i n t   o u t   f o r   t i m e  s t e p     201                              ( at time 9.9989993E-02 )

 nodal point  x-disp     y-disp      z-disp      x-vel       y-vel       z-vel      x-accl      y-accl      z-accl      x-coor      y-coor      z-coor
    22626  2.73538E-07 1.73567E-06-5.34266E-05 4.19718E-05 2.55504E-04-1.46807E-03 4.19760E-04 2.55529E-03-1.46822E-02 4.65938E+00-2.81908E+01-4.49818E+01



 n o d a l   p r i n t   o u t   f o r   t i m e  s t e p     201                              ( at time 9.9989993E-02 )

 nodal point  x-rot      y-rot       z-rot       x-rot vel   y-rot vel   z-rot vel   x-rot acc   y-rot acc   z-rot acc
    22626 -5.99208E-08-8.38311E-09-5.45803E-09-5.87062E-06-9.69796E-07-9.27000E-07-5.87121E-05-9.69893E-06-9.27093E-06



 n o d a l   p r i n t   o u t   f o r   t i m e  s t e p     401                              ( at time 1.9997999E-01 )

 nodal point  x-disp     y-disp      z-disp      x-vel       y-vel       z-vel      x-accl      y-accl      z-accl      x-coor      y-coor      z-coor
    22626  1.73073E-05 3.61701E-04-6.67535E-04 3.02138E-05 7.81028E-03-1.21535E-02-1.17592E-04 7.55553E-02-1.06865E-01 4.65939E+00-2.81905E+01-4.49824E+01



 n o d a l   p r i n t   o u t   f o r   t i m e  s t e p     401                              ( at time 1.9997999E-01 )

 nodal point  x-rot      y-rot       z-rot       x-rot vel   y-rot vel   z-rot vel   x-rot acc   y-rot acc   z-rot acc
    22626 -2.82089E-06-3.37070E-07-3.34501E-07-3.94580E-05-1.74613E-06-2.27500E-06-3.35907E-04-7.76411E-06-1.34813E-05



 n o d a l   p r i n t   o u t   f o r   t i m e  s t e p     601                              ( at time 2.9996998E-01 )

 nodal point  x-disp     y-disp      z-disp      x-vel       y-vel       z-vel      x-accl      y-accl      z-accl      x-coor      y-coor      z-coor
    22626  2.73864E-05 1.23956E-03-2.33769E-03 4.21525E-04 8.43988E-03-1.92403E-02 3.91350E-03 6.29670E-03-7.08751E-02 4.65940E+00-2.81896E+01-4.49841E+01



 n o d a l   p r i n t   o u t   f o r   t i m e  s t e p     601                              ( at time 2.9996998E-01 )

 nodal point  x-rot      y-rot       z-rot       x-rot vel   y-rot vel   z-rot vel   x-rot acc   y-rot acc   z-rot acc
    22626 -5.39338E-06-3.90222E-07-6.41986E-07-1.55556E-05-5.51402E-06-6.69079E-06 2.39047E-04-3.76827E-05-4.41624E-05



 n o d a l   p r i n t   o u t   f o r   t i m e  s t e p     801                              ( at time 3.9995997E-01 )

 nodal point  x-disp     y-disp      z-disp      x-vel       y-vel       z-vel      x-accl      y-accl      z-accl      x-coor      y-coor      z-coor
    22626  2.60147E-05 2.16092E-03-4.28052E-03-3.13157E-04 1.07355E-02-2.10660E-02-7.34755E-03 2.29580E-02-1.82591E-02 4.65940E+00-2.81887E+01-4.49860E+01



 n o d a l   p r i n t   o u t   f o r   t i m e  s t e p     801                              ( at time 3.9995997E-01 )

 nodal point  x-rot      y-rot       z-rot       x-rot vel   y-rot vel   z-rot vel   x-rot acc   y-rot acc   z-rot acc
    22626 -7.63597E-06-1.25051E-06-9.82864E-07-4.50179E-05-6.24649E-06-1.54855E-06-2.94652E-04-7.32544E-06 5.14276E-05



 n o d a l   p r i n t   o u t   f o r   t i m e  s t e p    1001                              ( at time 4.9994997E-01 )

 nodal point  x-disp     y-disp      z-disp      x-vel       y-vel       z-vel      x-accl      y-accl      z-accl      x-coor      y-coor      z-coor
    22626  3.96204E-06 3.43384E-03-6.73889E-03-2.37598E-04 1.41167E-02-2.86446E-02 7.55667E-04 3.38153E-02-7.57934E-02 4.65938E+00-2.81874E+01-4.49885E+01



 n o d a l   p r i n t   o u t   f o r   t i m e  s t e p    1001                              ( at time 4.9994997E-01 )

 nodal point  x-rot      y-rot       z-rot       x-rot vel   y-rot vel   z-rot vel   x-rot acc   y-rot acc   z-rot acc
    22626 -1.35990E-05-1.16856E-06-9.53823E-07-8.46760E-05 3.23414E-06 4.12371E-06-3.96621E-04 9.48158E-05 5.67283E-05



 n o d a l   p r i n t   o u t   f o r   t i m e  s t e p    1201                              ( at time 5.9993996E-01 )

 nodal point  x-disp     y-disp      z-disp      x-vel       y-vel       z-vel      x-accl      y-accl      z-accl      x-coor      y-coor      z-coor
    22626 -1.13912E-06 5.00133E-03-9.69884E-03 4.02629E-05 1.65610E-02-3.08227E-02 2.77889E-03 2.44456E-02-2.17832E-02 4.65937E+00-2.81858E+01-4.49914E+01



 n o d a l   p r i n t   o u t   f o r   t i m e  s t e p    1201                              ( at time 5.9993996E-01 )

 nodal point  x-rot      y-rot       z-rot       x-rot vel   y-rot vel   z-rot vel   x-rot acc   y-rot acc   z-rot acc
    22626 -2.04513E-05-8.92593E-07-9.72635E-07-6.07692E-05 3.68126E-06-2.27291E-06 2.39093E-04 4.47166E-06-6.39727E-05



 n o d a l   p r i n t   o u t   f o r   t i m e  s t e p    1401                              ( at time 6.9992995E-01 )

 nodal point  x-disp     y-disp      z-disp      x-vel       y-vel       z-vel      x-accl      y-accl      z-accl      x-coor      y-coor      z-coor
    22626 -5.00902E-05 6.82251E-03-1.31299E-02-4.65361E-04 1.94595E-02-3.86319E-02-5.05675E-03 2.89879E-02-7.80995E-02 4.65933E+00-2.81840E+01-4.49949E+01



 n o d a l   p r i n t   o u t   f o r   t i m e  s t e p    1401                              ( at time 6.9992995E-01 )

 nodal point  x-rot      y-rot       z-rot       x-rot vel   y-rot vel   z-rot vel   x-rot acc   y-rot acc   z-rot acc
    22626 -2.65984E-05-9.47354E-07-6.97730E-07-7.32247E-05-1.97981E-07 3.16009E-06-1.24568E-04-3.87963E-05 5.43355E-05



 n o d a l   p r i n t   o u t   f o r   t i m e  s t e p    1601                              ( at time 7.9991994E-01 )

 nodal point  x-disp     y-disp      z-disp      x-vel       y-vel       z-vel      x-accl      y-accl      z-accl      x-coor      y-coor      z-coor
    22626 -7.76089E-05 8.93336E-03-1.73778E-02-4.85637E-04 2.18599E-02-4.45444E-02-2.02781E-04 2.40071E-02-5.91313E-02 4.65930E+00-2.81819E+01-4.49991E+01



 n o d a l   p r i n t   o u t   f o r   t i m e  s t e p    1601                              ( at time 7.9991994E-01 )

 nodal point  x-rot      y-rot       z-rot       x-rot vel   y-rot vel   z-rot vel   x-rot acc   y-rot acc   z-rot acc
    22626 -3.50913E-05-9.76399E-07-6.73049E-07-9.57586E-05-5.54673E-06 3.15057E-07-2.25361E-04-5.34928E-05-2.84532E-05



 n o d a l   p r i n t   o u t   f o r   t i m e  s t e p    1801                              ( at time 8.9990994E-01 )

 nodal point  x-disp     y-disp      z-disp      x-vel       y-vel       z-vel      x-accl      y-accl      z-accl      x-coor      y-coor      z-coor
    22626 -1.13325E-04 1.11629E-02-2.18318E-02-2.69257E-04 2.35710E-02-4.46960E-02 2.16402E-03 1.71121E-02-1.51571E-03 4.65926E+00-2.81797E+01-4.50036E+01



 n o d a l   p r i n t   o u t   f o r   t i m e  s t e p    1801                              ( at time 8.9990994E-01 )

 nodal point  x-rot      y-rot       z-rot       x-rot vel   y-rot vel   z-rot vel   x-rot acc   y-rot acc   z-rot acc
    22626 -4.40044E-05-1.16792E-06-8.49888E-07-8.85638E-05 3.61474E-07-3.17217E-06 7.19556E-05 5.90880E-05-3.48758E-05



 n o d a l   p r i n t   o u t   f o r   t i m e  s t e p    2001                              ( at time 9.9989993E-01 )

 nodal point  x-disp     y-disp      z-disp      x-vel       y-vel       z-vel      x-accl      y-accl      z-accl      x-coor      y-coor      z-coor
    22626 -1.43849E-04 1.36401E-02-2.64589E-02 3.59287E-05 2.57544E-02-4.86542E-02 3.05216E-03 2.18366E-02-3.95859E-02 4.65923E+00-2.81772E+01-4.50082E+01



 n o d a l   p r i n t   o u t   f o r   t i m e  s t e p    2001                              ( at time 9.9989993E-01 )

 nodal point  x-rot      y-rot       z-rot       x-rot vel   y-rot vel   z-rot vel   x-rot acc   y-rot acc   z-rot acc
    22626 -5.38039E-05-1.32847E-06-1.08854E-06-1.14964E-04-1.36227E-06-6.86872E-06-2.64025E-04-1.72392E-05-3.69692E-05



 n o d a l   p r i n t   o u t   f o r   t i m e  s t e p    2201                              ( at time 1.0998899E+00 )

 nodal point  x-disp     y-disp      z-disp      x-vel       y-vel       z-vel      x-accl      y-accl      z-accl      x-coor      y-coor      z-coor
    22626 -1.43489E-04 1.62968E-02-3.16190E-02-2.41948E-04 2.79608E-02-5.41617E-02-2.77905E-03 2.20655E-02-5.50805E-02 4.65923E+00-2.81745E+01-4.50133E+01



 n o d a l   p r i n t   o u t   f o r   t i m e  s t e p    2201                              ( at time 1.0998899E+00 )

 nodal point  x-rot      y-rot       z-rot       x-rot vel   y-rot vel   z-rot vel   x-rot acc   y-rot acc   z-rot acc
    22626 -6.58897E-05-1.76742E-06-1.88160E-06-1.14323E-04-1.21799E-05-8.01859E-06 6.40349E-06-1.08187E-04-1.14998E-05



 n o d a l   p r i n t   o u t   f o r   t i m e  s t e p    2401                              ( at time 1.1998799E+00 )

 nodal point  x-disp     y-disp      z-disp      x-vel       y-vel       z-vel      x-accl      y-accl      z-accl      x-coor      y-coor      z-coor
    22626 -1.58705E-04 1.91278E-02-3.72682E-02 1.09679E-05 2.88274E-02-5.85342E-02 2.52942E-03 8.66701E-03-4.37296E-02 4.65922E+00-2.81717E+01-4.50190E+01



 n o d a l   p r i n t   o u t   f o r   t i m e  s t e p    2401                              ( at time 1.1998799E+00 )

 nodal point  x-rot      y-rot       z-rot       x-rot vel   y-rot vel   z-rot vel   x-rot acc   y-rot acc   z-rot acc
    22626 -7.72885E-05-2.99304E-06-2.83394E-06-1.18137E-04-1.54747E-05-1.15435E-05-3.81378E-05-3.29512E-05-3.52526E-05



 n o d a l   p r i n t   o u t   f o r   t i m e  s t e p    2601                              ( at time 1.2998699E+00 )

 nodal point  x-disp     y-disp      z-disp      x-vel       y-vel       z-vel      x-accl      y-accl      z-accl      x-coor      y-coor      z-coor
    22626 -1.58945E-04 2.21132E-02-4.32333E-02 1.59967E-04 3.06570E-02-6.03950E-02 1.49014E-03 1.82978E-02-1.86099E-02 4.65922E+00-2.81687E+01-4.50250E+01



 n o d a l   p r i n t   o u t   f o r   t i m e  s t e p    2601                              ( at time 1.2998699E+00 )

 nodal point  x-rot      y-rot       z-rot       x-rot vel   y-rot vel   z-rot vel   x-rot acc   y-rot acc   z-rot acc
    22626 -9.04041E-05-4.55222E-06-4.11816E-06-1.53637E-04-1.08468E-05-1.35542E-05-3.55035E-04 4.62836E-05-2.01095E-05



 n o d a l   p r i n t   o u t   f o r   t i m e  s t e p    2801                              ( at time 1.3998599E+00 )

 nodal point  x-disp     y-disp      z-disp      x-vel       y-vel       z-vel      x-accl      y-accl      z-accl      x-coor      y-coor      z-coor
    22626 -1.48258E-04 2.52627E-02-4.93076E-02-6.48868E-05 3.20305E-02-6.18244E-02-2.24876E-03 1.37373E-02-1.42951E-02 4.65923E+00-2.81656E+01-4.50310E+01



 n o d a l   p r i n t   o u t   f o r   t i m e  s t e p    2801                              ( at time 1.3998599E+00 )

 nodal point  x-rot      y-rot       z-rot       x-rot vel   y-rot vel   z-rot vel   x-rot acc   y-rot acc   z-rot acc
    22626 -1.06481E-04-5.59000E-06-5.49489E-06-1.67092E-04-1.33505E-05-1.25102E-05-1.34564E-04-2.50392E-05 1.04416E-05



 n o d a l   p r i n t   o u t   f o r   t i m e  s t e p    3001                              ( at time 1.4998499E+00 )

 nodal point  x-disp     y-disp      z-disp      x-vel       y-vel       z-vel      x-accl      y-accl      z-accl      x-coor      y-coor      z-coor
    22626 -1.56195E-04 2.85813E-02-5.57709E-02-1.08809E-04 3.41628E-02-6.78624E-02-4.39264E-04 2.13246E-02-6.03862E-02 4.65922E+00-2.81622E+01-4.50375E+01



 n o d a l   p r i n t   o u t   f o r   t i m e  s t e p    3001                              ( at time 1.4998499E+00 )

 nodal point  x-rot      y-rot       z-rot       x-rot vel   y-rot vel   z-rot vel   x-rot acc   y-rot acc   z-rot acc
    22626 -1.23160E-04-6.93822E-06-6.96534E-06-1.65595E-04-1.54453E-05-2.07496E-05 1.49690E-05-2.09501E-05-8.24029E-05



 n o d a l   p r i n t   o u t   f o r   t i m e  s t e p    3201                              ( at time 1.5998399E+00 )

 nodal point  x-disp     y-disp      z-disp      x-vel       y-vel       z-vel      x-accl      y-accl      z-accl      x-coor      y-coor      z-coor
    22626 -1.71690E-04 3.21392E-02-6.28131E-02 1.56627E-04 3.68479E-02-7.22095E-02 2.65462E-03 2.68535E-02-4.34753E-02 4.65920E+00-2.81587E+01-4.50445E+01



 n o d a l   p r i n t   o u t   f o r   t i m e  s t e p    3201                              ( at time 1.5998399E+00 )

 nodal point  x-rot      y-rot       z-rot       x-rot vel   y-rot vel   z-rot vel   x-rot acc   y-rot acc   z-rot acc
    22626 -1.39928E-04-8.97170E-06-8.97499E-06-1.77410E-04-2.53995E-05-2.08159E-05-1.18158E-04-9.95528E-05-6.62233E-07



 n o d a l   p r i n t   o u t   f o r   t i m e  s t e p    3401                              ( at time 1.6998299E+00 )

 nodal point  x-disp     y-disp      z-disp      x-vel       y-vel       z-vel      x-accl      y-accl      z-accl      x-coor      y-coor      z-coor
    22626 -1.55369E-04 3.59063E-02-7.01609E-02-2.49330E-05 3.82304E-02-7.43397E-02-1.81578E-03 1.38263E-02-2.13041E-02 4.65922E+00-2.81549E+01-4.50519E+01



 n o d a l   p r i n t   o u t   f o r   t i m e  s t e p    3401                              ( at time 1.6998299E+00 )

 nodal point  x-rot      y-rot       z-rot       x-rot vel   y-rot vel   z-rot vel   x-rot acc   y-rot acc   z-rot acc
    22626 -1.58957E-04-1.12169E-05-1.11158E-05-1.97896E-04-2.00889E-05-1.92090E-05-2.04888E-04 5.31119E-05 1.60697E-05



 n o d a l   p r i n t   o u t   f o r   t i m e  s t e p    3601                              ( at time 1.7998199E+00 )

 nodal point  x-disp     y-disp      z-disp      x-vel       y-vel       z-vel      x-accl      y-accl      z-accl      x-coor      y-coor      z-coor
    22626 -1.55845E-04 3.97510E-02-7.77108E-02 1.54852E-04 3.89360E-02-7.65352E-02 1.79803E-03 7.05727E-03-2.19581E-02 4.65922E+00-2.81511E+01-4.50594E+01



 n o d a l   p r i n t   o u t   f o r   t i m e  s t e p    3601                              ( at time 1.7998199E+00 )

 nodal point  x-rot      y-rot       z-rot       x-rot vel   y-rot vel   z-rot vel   x-rot acc   y-rot acc   z-rot acc
    22626 -1.79207E-04-1.33272E-05-1.35605E-05-2.05899E-04-2.13454E-05-3.09504E-05-8.00295E-05-1.25669E-05-1.17425E-04



 n o d a l   p r i n t   o u t   f o r   t i m e  s t e p    3801                              ( at time 1.8998099E+00 )

 nodal point  x-disp     y-disp      z-disp      x-vel       y-vel       z-vel      x-accl      y-accl      z-accl      x-coor      y-coor      z-coor
    22626 -1.58219E-04 4.37786E-02-8.55396E-02-3.37293E-05 4.15321E-02-8.05354E-02-1.88600E-03 2.59631E-02-4.00053E-02 4.65922E+00-2.81471E+01-4.50673E+01



 n o d a l   p r i n t   o u t   f o r   t i m e  s t e p    3801                              ( at time 1.8998099E+00 )

 nodal point  x-rot      y-rot       z-rot       x-rot vel   y-rot vel   z-rot vel   x-rot acc   y-rot acc   z-rot acc
    22626 -1.99537E-04-1.53737E-05-1.62932E-05-2.11548E-04-2.67266E-05-2.86751E-05-5.65007E-05-5.38166E-05 2.27552E-05



 n o d a l   p r i n t   o u t   f o r   t i m e  s t e p    4001                              ( at time 1.9997999E+00 )

 nodal point  x-disp     y-disp      z-disp      x-vel       y-vel       z-vel      x-accl      y-accl      z-accl      x-coor      y-coor      z-coor
    22626 -1.43019E-04 4.79525E-02-9.38037E-02 2.26104E-04 4.24428E-02-8.46099E-02 2.59859E-03 9.10772E-03-4.07494E-02 4.65923E+00-2.81429E+01-4.50755E+01



 n o d a l   p r i n t   o u t   f o r   t i m e  s t e p    4001                              ( at time 1.9997999E+00 )

 nodal point  x-rot      y-rot       z-rot       x-rot vel   y-rot vel   z-rot vel   x-rot acc   y-rot acc   z-rot acc
    22626 -2.20417E-04-1.84194E-05-1.92747E-05-2.16620E-04-4.01859E-05-3.24598E-05-5.07271E-05-1.34607E-04-3.78506E-05



 n o d a l   p r i n t   o u t   f o r   t i m e  s t e p    4201                              ( at time 2.0997899E+00 )

 nodal point  x-disp     y-disp      z-disp      x-vel       y-vel       z-vel      x-accl      y-accl      z-accl      x-coor      y-coor      z-coor
    22626 -8.45913E-05 5.22014E-02-1.02382E-01 9.09885E-04 4.28871E-02-8.67382E-02 6.83849E-03 4.44427E-03-2.12849E-02 4.65929E+00-2.81386E+01-4.50841E+01



 n o d a l   p r i n t   o u t   f o r   t i m e  s t e p    4201                              ( at time 2.0997899E+00 )

 nodal point  x-rot      y-rot       z-rot       x-rot vel   y-rot vel   z-rot vel   x-rot acc   y-rot acc   z-rot acc
    22626 -2.41976E-04-2.24882E-05-2.26838E-05-2.17421E-04-3.88447E-05-3.22262E-05-8.01192E-06 1.34127E-05 2.33582E-06



 n o d a l   p r i n t   o u t   f o r   t i m e  s t e p    4401                              ( at time 2.1997798E+00 )

 nodal point  x-disp     y-disp      z-disp      x-vel       y-vel       z-vel      x-accl      y-accl      z-accl      x-coor      y-coor      z-coor
    22626  1.53437E-05 5.65234E-02-1.11101E-01 1.29744E-03 4.32440E-02-8.76385E-02 3.87598E-03 3.56915E-03-9.00404E-03 4.65939E+00-2.81343E+01-4.50928E+01



 n o d a l   p r i n t   o u t   f o r   t i m e  s t e p    4401                              ( at time 2.1997798E+00 )

 nodal point  x-rot      y-rot       z-rot       x-rot vel   y-rot vel   z-rot vel   x-rot acc   y-rot acc   z-rot acc
    22626 -2.64452E-04-2.68986E-05-2.62037E-05-2.33022E-04-4.53442E-05-3.62837E-05-1.56018E-04-6.50012E-05-4.05789E-05



 n o d a l   p r i n t   o u t   f o r   t i m e  s t e p    4601                              ( at time 2.2997698E+00 )

 nodal point  x-disp     y-disp      z-disp      x-vel       y-vel       z-vel      x-accl      y-accl      z-accl      x-coor      y-coor      z-coor
    22626  1.17511E-04 6.08720E-02-1.19930E-01 5.81991E-04 4.39364E-02-8.95104E-02-7.15523E-03 6.92481E-03-1.87212E-02 4.65949E+00-2.81300E+01-4.51017E+01



 n o d a l   p r i n t   o u t   f o r   t i m e  s t e p    4601                              ( at time 2.2997698E+00 )

 nodal point  x-rot      y-rot       z-rot       x-rot vel   y-rot vel   z-rot vel   x-rot acc   y-rot acc   z-rot acc
    22626 -2.88566E-04-3.11447E-05-2.99062E-05-2.39437E-04-4.03064E-05-3.68001E-05-6.41584E-05 5.03826E-05-5.16488E-06



 n o d a l   p r i n t   o u t   f o r   t i m e  s t e p    4801                              ( at time 2.3997598E+00 )

 nodal point  x-disp     y-disp      z-disp      x-vel       y-vel       z-vel      x-accl      y-accl      z-accl      x-coor      y-coor      z-coor
    22626  1.42083E-04 6.53544E-02-1.29079E-01 1.12184E-04 4.53903E-02-9.35951E-02-4.69854E-03 1.45402E-02-4.08507E-02 4.65952E+00-2.81255E+01-4.51108E+01



 n o d a l   p r i n t   o u t   f o r   t i m e  s t e p    4801                              ( at time 2.3997598E+00 )

 nodal point  x-rot      y-rot       z-rot       x-rot vel   y-rot vel   z-rot vel   x-rot acc   y-rot acc   z-rot acc
    22626 -3.12367E-04-3.49198E-05-3.34083E-05-2.43215E-04-3.49737E-05-3.81338E-05-3.77832E-05 5.33326E-05-1.33376E-05



 n o d a l   p r i n t   o u t   f o r   t i m e  s t e p    5001                              ( at time 2.4997498E+00 )

 nodal point  x-disp     y-disp      z-disp      x-vel       y-vel       z-vel      x-accl      y-accl      z-accl      x-coor      y-coor      z-coor
    22626  1.30672E-04 6.99669E-02-1.38585E-01-4.82336E-04 4.61905E-02-9.59656E-02-5.94579E-03 8.00309E-03-2.37070E-02 4.65951E+00-2.81209E+01-4.51203E+01



 n o d a l   p r i n t   o u t   f o r   t i m e  s t e p    5001                              ( at time 2.4997498E+00 )

 nodal point  x-rot      y-rot       z-rot       x-rot vel   y-rot vel   z-rot vel   x-rot acc   y-rot acc   z-rot acc
    22626 -3.36775E-04-3.80107E-05-3.68688E-05-2.50907E-04-2.51714E-05-2.89224E-05-7.69287E-05 9.80328E-05 9.21223E-05



 n o d a l   p r i n t   o u t   f o r   t i m e  s t e p    5201                              ( at time 2.5997398E+00 )

 nodal point  x-disp     y-disp      z-disp      x-vel       y-vel       z-vel      x-accl      y-accl      z-accl      x-coor      y-coor      z-coor
    22626  9.68012E-05 7.45649E-02-1.48173E-01-2.44604E-04 4.58439E-02-9.56879E-02 2.37756E-03-3.46658E-03 2.77666E-03 4.65947E+00-2.81163E+01-4.51299E+01



 n o d a l   p r i n t   o u t   f o r   t i m e  s t e p    5201                              ( at time 2.5997398E+00 )

 nodal point  x-rot      y-rot       z-rot       x-rot vel   y-rot vel   z-rot vel   x-rot acc   y-rot acc   z-rot acc
    22626 -3.62091E-04-4.04884E-05-4.01033E-05-2.53870E-04-2.83394E-05-3.38611E-05-2.96304E-05-3.16834E-05-4.93913E-05



 n o d a l   p r i n t   o u t   f o r   t i m e  s t e p    5401                              ( at time 2.6997298E+00 )

 nodal point  x-disp     y-disp      z-disp      x-vel       y-vel       z-vel      x-accl      y-accl      z-accl      x-coor      y-coor      z-coor
    22626  9.76302E-05 7.90740E-02-1.57750E-01 3.63566E-04 4.48470E-02-9.58618E-02 6.08229E-03-9.96990E-03-1.73891E-03 4.65947E+00-2.81118E+01-4.51395E+01



 n o d a l   p r i n t   o u t   f o r   t i m e  s t e p    5401                              ( at time 2.6997298E+00 )

 nodal point  x-rot      y-rot       z-rot       x-rot vel   y-rot vel   z-rot vel   x-rot acc   y-rot acc   z-rot acc
    22626 -3.88718E-04-4.39060E-05-4.38585E-05-2.81429E-04-3.29803E-05-4.08654E-05-2.75618E-04-4.64132E-05-7.00505E-05



 n o d a l   p r i n t   o u t   f o r   t i m e  s t e p    5601                              ( at time 2.7997198E+00 )

 nodal point  x-disp     y-disp      z-disp      x-vel       y-vel       z-vel      x-accl      y-accl      z-accl      x-coor      y-coor      z-coor
    22626  1.44673E-04 8.35947E-02-1.67395E-01 8.28558E-04 4.57423E-02-9.74278E-02 4.65039E-03 8.95412E-03-1.56616E-02 4.65952E+00-2.81072E+01-4.51491E+01



 n o d a l   p r i n t   o u t   f o r   t i m e  s t e p    5601                              ( at time 2.7997198E+00 )

 nodal point  x-rot      y-rot       z-rot       x-rot vel   y-rot vel   z-rot vel   x-rot acc   y-rot acc   z-rot acc
    22626 -4.15547E-04-4.75848E-05-4.75074E-05-2.62839E-04-4.55227E-05-3.89260E-05 1.85916E-04-1.25437E-04 1.93965E-05



 n o d a l   p r i n t   o u t   f o r   t i m e  s t e p    5801                              ( at time 2.8997098E+00 )

 nodal point  x-disp     y-disp      z-disp      x-vel       y-vel       z-vel      x-accl      y-accl      z-accl      x-coor      y-coor      z-coor
    22626  2.30243E-04 8.81192E-02-1.77240E-01 6.64599E-04 4.53049E-02-9.91226E-02-1.63975E-03-4.37524E-03-1.69499E-02 4.65961E+00-2.81027E+01-4.51590E+01



 n o d a l   p r i n t   o u t   f o r   t i m e  s t e p    5801                              ( at time 2.8997098E+00 )

 nodal point  x-rot      y-rot       z-rot       x-rot vel   y-rot vel   z-rot vel   x-rot acc   y-rot acc   z-rot acc
    22626 -4.41385E-04-5.22954E-05-5.17208E-05-2.64689E-04-4.48847E-05-4.00109E-05-1.85023E-05 6.38017E-06-1.08508E-05



 n o d a l   p r i n t   o u t   f o r   t i m e  s t e p    6001                              ( at time 2.9996998E+00 )

 nodal point  x-disp     y-disp      z-disp      x-vel       y-vel       z-vel      x-accl      y-accl      z-accl      x-coor      y-coor      z-coor
    22626  2.85521E-04 9.26129E-02-1.87166E-01 9.51184E-04 4.47591E-02-9.92374E-02 2.86613E-03-5.45790E-03-1.14795E-03 4.65966E+00-2.80982E+01-4.51689E+01



 n o d a l   p r i n t   o u t   f o r   t i m e  s t e p    6001                              ( at time 2.9996998E+00 )

 nodal point  x-rot      y-rot       z-rot       x-rot vel   y-rot vel   z-rot vel   x-rot acc   y-rot acc   z-rot acc
    22626 -4.68184E-04-5.69742E-05-5.57415E-05-2.72542E-04-4.28529E-05-3.73705E-05-7.85348E-05 2.03206E-05 2.64070E-05



 n o d a l   p r i n t   o u t   f o r   t i m e  s t e p    6201                              ( at time 3.0996898E+00 )

 nodal point  x-disp     y-disp      z-disp      x-vel       y-vel       z-vel      x-accl      y-accl      z-accl      x-coor      y-coor      z-coor
    22626  3.34376E-04 9.70613E-02-1.97058E-01-7.36974E-05 4.43684E-02-9.87387E-02-1.02499E-02-3.90759E-03 4.98792E-03 4.65971E+00-2.80938E+01-4.51788E+01



 n o d a l   p r i n t   o u t   f o r   t i m e  s t e p    6201                              ( at time 3.0996898E+00 )

 nodal point  x-rot      y-rot       z-rot       x-rot vel   y-rot vel   z-rot vel   x-rot acc   y-rot acc   z-rot acc
    22626 -4.95805E-04-6.12267E-05-5.94544E-05-2.78331E-04-3.70183E-05-3.41623E-05-5.79012E-05 5.83515E-05 3.20852E-05



 n o d a l   p r i n t   o u t   f o r   t i m e  s t e p    6401                              ( at time 3.1996798E+00 )

 nodal point  x-disp     y-disp      z-disp      x-vel       y-vel       z-vel      x-accl      y-accl      z-accl      x-coor      y-coor      z-coor
    22626  3.42814E-04 1.01506E-01-2.07052E-01-1.27031E-04 4.46546E-02-1.01838E-01-5.33388E-04 2.86231E-03-3.09985E-02 4.65972E+00-2.80893E+01-4.51888E+01



 n o d a l   p r i n t   o u t   f o r   t i m e  s t e p    6401                              ( at time 3.1996798E+00 )

 nodal point  x-rot      y-rot       z-rot       x-rot vel   y-rot vel   z-rot vel   x-rot acc   y-rot acc   z-rot acc
    22626 -5.23497E-04-6.46506E-05-6.34718E-05-2.77248E-04-3.61820E-05-3.92744E-05 1.08367E-05 8.36414E-06-5.11263E-05



 n o d a l   p r i n t   o u t   f o r   t i m e  s t e p    6601                              ( at time 3.2996698E+00 )

 nodal point  x-disp     y-disp      z-disp      x-vel       y-vel       z-vel      x-accl      y-accl      z-accl      x-coor      y-coor      z-coor
    22626  3.60038E-04 1.06022E-01-2.17343E-01 2.71461E-04 4.49907E-02-1.03602E-01 3.98532E-03 3.36163E-03-1.76364E-02 4.65974E+00-2.80848E+01-4.51991E+01



 n o d a l   p r i n t   o u t   f o r   t i m e  s t e p    6601                              ( at time 3.2996698E+00 )

 nodal point  x-rot      y-rot       z-rot       x-rot vel   y-rot vel   z-rot vel   x-rot acc   y-rot acc   z-rot acc
    22626 -5.50611E-04-6.83099E-05-6.72104E-05-2.70957E-04-3.25465E-05-3.81518E-05 6.29152E-05 3.63586E-05 1.12273E-05



 n o d a l   p r i n t   o u t   f o r   t i m e  s t e p    6801                              ( at time 3.3996598E+00 )

 nodal point  x-disp     y-disp      z-disp      x-vel       y-vel       z-vel      x-accl      y-accl      z-accl      x-coor      y-coor      z-coor
    22626  3.88155E-04 1.10499E-01-2.27779E-01 1.40702E-04 4.47117E-02-1.05019E-01-1.30771E-03-2.79104E-03-1.41699E-02 4.65976E+00-2.80803E+01-4.52095E+01



 n o d a l   p r i n t   o u t   f o r   t i m e  s t e p    6801                              ( at time 3.3996598E+00 )

 nodal point  x-rot      y-rot       z-rot       x-rot vel   y-rot vel   z-rot vel   x-rot acc   y-rot acc   z-rot acc
    22626 -5.77960E-04-7.25094E-05-7.10718E-05-2.75152E-04-4.17229E-05-3.59270E-05-4.19576E-05-9.17734E-05 2.22506E-05



 n o d a l   p r i n t   o u t   f o r   t i m e  s t e p    7001                              ( at time 3.4996498E+00 )

 nodal point  x-disp     y-disp      z-disp      x-vel       y-vel       z-vel      x-accl      y-accl      z-accl      x-coor      y-coor      z-coor
    22626  4.25082E-04 1.14942E-01-2.38209E-01 5.18141E-04 4.37662E-02-1.03449E-01 3.77477E-03-9.45571E-03 1.56950E-02 4.65980E+00-2.80759E+01-4.52199E+01



 n o d a l   p r i n t   o u t   f o r   t i m e  s t e p    7001                              ( at time 3.4996498E+00 )

 nodal point  x-rot      y-rot       z-rot       x-rot vel   y-rot vel   z-rot vel   x-rot acc   y-rot acc   z-rot acc
    22626 -6.05520E-04-7.74930E-05-7.51050E-05-2.78286E-04-4.69156E-05-3.61228E-05-3.13413E-05-5.19318E-05-1.95801E-06



 n o d a l   p r i n t   o u t   f o r   t i m e  s t e p    7201                              ( at time 3.5996397E+00 )

 nodal point  x-disp     y-disp      z-disp      x-vel       y-vel       z-vel      x-accl      y-accl      z-accl      x-coor      y-coor      z-coor
    22626  5.10198E-04 1.19280E-01-2.48525E-01 1.07120E-03 4.36034E-02-1.03257E-01 5.53118E-03-1.62845E-03 1.92699E-03 4.65989E+00-2.80716E+01-4.52302E+01



 n o d a l   p r i n t   o u t   f o r   t i m e  s t e p    7201                              ( at time 3.5996397E+00 )

 nodal point  x-rot      y-rot       z-rot       x-rot vel   y-rot vel   z-rot vel   x-rot acc   y-rot acc   z-rot acc
    22626 -6.32748E-04-8.19897E-05-7.89658E-05-2.71832E-04-4.86687E-05-4.63369E-05 6.45478E-05-1.75334E-05-1.02152E-04



 n o d a l   p r i n t   o u t   f o r   t i m e  s t e p    7401                              ( at time 3.6996297E+00 )

 nodal point  x-disp     y-disp      z-disp      x-vel       y-vel       z-vel      x-accl      y-accl      z-accl      x-coor      y-coor      z-coor
    22626  5.63095E-04 1.23592E-01-2.58913E-01 4.63603E-04 4.24505E-02-1.04215E-01-6.07661E-03-1.15294E-02-9.58657E-03 4.65994E+00-2.80672E+01-4.52406E+01



 n o d a l   p r i n t   o u t   f o r   t i m e  s t e p    7401                              ( at time 3.6996297E+00 )

 nodal point  x-rot      y-rot       z-rot       x-rot vel   y-rot vel   z-rot vel   x-rot acc   y-rot acc   z-rot acc
    22626 -6.59752E-04-8.67643E-05-8.32648E-05-2.75489E-04-5.13435E-05-4.48594E-05-3.65798E-05-2.67506E-05 1.47771E-05



 n o d a l   p r i n t   o u t   f o r   t i m e  s t e p    7601                              ( at time 3.7996197E+00 )

 nodal point  x-disp     y-disp      z-disp      x-vel       y-vel       z-vel      x-accl      y-accl      z-accl      x-coor      y-coor      z-coor
    22626  6.05564E-04 1.27770E-01-2.69301E-01 2.39854E-04 4.18185E-02-1.03745E-01-2.23772E-03-6.32097E-03 4.70202E-03 4.65998E+00-2.80631E+01-4.52510E+01



 n o d a l   p r i n t   o u t   f o r   t i m e  s t e p    7601                              ( at time 3.7996197E+00 )

 nodal point  x-rot      y-rot       z-rot       x-rot vel   y-rot vel   z-rot vel   x-rot acc   y-rot acc   z-rot acc
    22626 -6.86774E-04-9.20326E-05-8.79965E-05-2.74019E-04-5.44274E-05-4.76883E-05 1.47039E-05-3.08419E-05-2.82927E-05



 n o d a l   p r i n t   o u t   f o r   t i m e  s t e p    7801                              ( at time 3.8996097E+00 )

 nodal point  x-disp     y-disp      z-disp      x-vel       y-vel       z-vel      x-accl      y-accl      z-accl      x-coor      y-coor      z-coor
    22626  6.84405E-04 1.31920E-01-2.79613E-01 9.71030E-04 4.05956E-02-1.02656E-01 7.31249E-03-1.22306E-02 1.08932E-02 4.66006E+00-2.80589E+01-4.52613E+01



 n o d a l   p r i n t   o u t   f o r   t i m e  s t e p    7801                              ( at time 3.8996097E+00 )

 nodal point  x-rot      y-rot       z-rot       x-rot vel   y-rot vel   z-rot vel   x-rot acc   y-rot acc   z-rot acc
    22626 -7.14258E-04-9.75692E-05-9.25973E-05-2.81146E-04-5.14012E-05-4.17899E-05-7.12707E-05 3.02651E-05 5.89906E-05



 n o d a l   p r i n t   o u t   f o r   t i m e  s t e p    8001                              ( at time 3.9995997E+00 )

 nodal point  x-disp     y-disp      z-disp      x-vel       y-vel       z-vel      x-accl      y-accl      z-accl      x-coor      y-coor      z-coor
    22626  8.17648E-04 1.36001E-01-2.89792E-01 1.57375E-03 4.10589E-02-1.01325E-01 6.02785E-03 4.63365E-03 1.33071E-02 4.66019E+00-2.80548E+01-4.52715E+01



 n o d a l   p r i n t   o u t   f o r   t i m e  s t e p    8001                              ( at time 3.9995997E+00 )

 nodal point  x-rot      y-rot       z-rot       x-rot vel   y-rot vel   z-rot vel   x-rot acc   y-rot acc   z-rot acc
    22626 -7.42425E-04-1.03219E-04-9.69183E-05-2.82408E-04-5.36022E-05-4.00004E-05-1.26303E-05-2.20125E-05 1.78964E-05



 n o d a l   p r i n t   o u t   f o r   t i m e  s t e p    8201                              ( at time 4.0995897E+00 )

 nodal point  x-disp     y-disp      z-disp      x-vel       y-vel       z-vel      x-accl      y-accl      z-accl      x-coor      y-coor      z-coor
    22626  9.90392E-04 1.40102E-01-2.99898E-01 1.66149E-03 4.10830E-02-1.01383E-01 8.77420E-04 2.41125E-04-5.75316E-04 4.66037E+00-2.80507E+01-4.52816E+01



 n o d a l   p r i n t   o u t   f o r   t i m e  s t e p    8201                              ( at time 4.0995897E+00 )

 nodal point  x-rot      y-rot       z-rot       x-rot vel   y-rot vel   z-rot vel   x-rot acc   y-rot acc   z-rot acc
    22626 -7.69603E-04-1.08569E-04-1.00964E-04-2.70815E-04-5.39109E-05-3.74801E-05 1.15941E-04-3.08677E-06 2.52058E-05



 n o d a l   p r i n t   o u t   f o r   t i m e  s t e p    8401                              ( at time 4.1995797E+00 )

 nodal point  x-disp     y-disp      z-disp      x-vel       y-vel       z-vel      x-accl      y-accl      z-accl      x-coor      y-coor      z-coor
    22626  1.10810E-03 1.44322E-01-3.10060E-01 9.50953E-04 4.29739E-02-1.01409E-01-7.10606E-03 1.89113E-02-2.64448E-04 4.66048E+00-2.80465E+01-4.52918E+01



 n o d a l   p r i n t   o u t   f o r   t i m e  s t e p    8401                              ( at time 4.1995797E+00 )

 nodal point  x-rot      y-rot       z-rot       x-rot vel   y-rot vel   z-rot vel   x-rot acc   y-rot acc   z-rot acc
    22626 -7.97204E-04-1.13431E-04-1.04218E-04-2.78750E-04-4.40952E-05-3.28845E-05-7.93494E-05 9.81672E-05 4.59608E-05



 n o d a l   p r i n t   o u t   f o r   t i m e  s t e p    8601                              ( at time 4.2995697E+00 )

 nodal point  x-disp     y-disp      z-disp      x-vel       y-vel       z-vel      x-accl      y-accl      z-accl      x-coor      y-coor      z-coor
    22626  1.19364E-03 1.48727E-01-3.20165E-01 9.03295E-04 4.51889E-02-1.00918E-01-4.76632E-04 2.21515E-02 4.90708E-03 4.66057E+00-2.80421E+01-4.53019E+01



 n o d a l   p r i n t   o u t   f o r   t i m e  s t e p    8601                              ( at time 4.2995697E+00 )

 nodal point  x-rot      y-rot       z-rot       x-rot vel   y-rot vel   z-rot vel   x-rot acc   y-rot acc   z-rot acc
    22626 -8.24746E-04-1.17068E-04-1.06296E-04-2.73797E-04-2.82906E-05-1.47887E-05 4.95292E-05 1.58062E-04 1.80976E-04



 n o d a l   p r i n t   o u t   f o r   t i m e  s t e p    8801                              ( at time 4.3995597E+00 )

 nodal point  x-disp     y-disp      z-disp      x-vel       y-vel       z-vel      x-accl      y-accl      z-accl      x-coor      y-coor      z-coor
    22626  1.31968E-03 1.53333E-01-3.30174E-01 1.71704E-03 4.71035E-02-9.84324E-02 8.13826E-03 1.91484E-02 2.48629E-02 4.66069E+00-2.80375E+01-4.53119E+01



 n o d a l   p r i n t   o u t   f o r   t i m e  s t e p    8801                              ( at time 4.3995597E+00 )

 nodal point  x-rot      y-rot       z-rot       x-rot vel   y-rot vel   z-rot vel   x-rot acc   y-rot acc   z-rot acc
    22626 -8.52835E-04-1.19289E-04-1.06808E-04-2.85625E-04-1.95877E-05 2.40290E-06-1.18291E-04 8.70377E-05 1.71934E-04



 n o d a l   p r i n t   o u t   f o r   t i m e  s t e p    9001                              ( at time 4.4995497E+00 )

 nodal point  x-disp     y-disp      z-disp      x-vel       y-vel       z-vel      x-accl      y-accl      z-accl      x-coor      y-coor      z-coor
    22626  1.46327E-03 1.58202E-01-3.39995E-01 1.35955E-03 5.10613E-02-9.80986E-02-3.57524E-03 3.95820E-02 3.33863E-03 4.66084E+00-2.80326E+01-4.53217E+01



 n o d a l   p r i n t   o u t   f o r   t i m e  s t e p    9001                              ( at time 4.4995497E+00 )

 nodal point  x-rot      y-rot       z-rot       x-rot vel   y-rot vel   z-rot vel   x-rot acc   y-rot acc   z-rot acc
    22626 -8.83797E-04-1.21335E-04-1.06768E-04-3.21042E-04-1.68836E-05-5.17764E-07-3.54204E-04 2.70435E-05-2.92094E-05



 n o d a l   p r i n t   o u t   f o r   t i m e  s t e p    9201                              ( at time 4.5995397E+00 )

 nodal point  x-disp     y-disp      z-disp      x-vel       y-vel       z-vel      x-accl      y-accl      z-accl      x-coor      y-coor      z-coor
    22626  1.61495E-03 1.63612E-01-3.49850E-01 1.96172E-03 5.71184E-02-9.87822E-02 6.02235E-03 6.05767E-02-6.83682E-03 4.66099E+00-2.80272E+01-4.53316E+01



 n o d a l   p r i n t   o u t   f o r   t i m e  s t e p    9201                              ( at time 4.5995397E+00 )

 nodal point  x-rot      y-rot       z-rot       x-rot vel   y-rot vel   z-rot vel   x-rot acc   y-rot acc   z-rot acc
    22626 -9.16278E-04-1.23056E-04-1.06279E-04-3.43742E-04-1.57459E-05 1.54955E-05-2.27025E-04 1.13779E-05 1.60149E-04



 n o d a l   p r i n t   o u t   f o r   t i m e  s t e p    9401                              ( at time 4.6995297E+00 )

 nodal point  x-disp     y-disp      z-disp      x-vel       y-vel       z-vel      x-accl      y-accl      z-accl      x-coor      y-coor      z-coor
    22626  1.82489E-03 1.69570E-01-3.59686E-01 1.40878E-03 6.24507E-02-9.80063E-02-5.53003E-03 5.33281E-02 7.75960E-03 4.66120E+00-2.80213E+01-4.53414E+01



 n o d a l   p r i n t   o u t   f o r   t i m e  s t e p    9401                              ( at time 4.6995297E+00 )

 nodal point  x-rot      y-rot       z-rot       x-rot vel   y-rot vel   z-rot vel   x-rot acc   y-rot acc   z-rot acc
    22626 -9.52826E-04-1.23943E-04-1.05020E-04-3.97111E-04-1.02851E-05 1.03132E-06-5.33739E-04 5.46136E-05-1.44656E-04



 n o d a l   p r i n t   o u t   f o r   t i m e  s t e p    9601                              ( at time 4.7995197E+00 )

 nodal point  x-disp     y-disp      z-disp      x-vel       y-vel       z-vel      x-accl      y-accl      z-accl      x-coor      y-coor      z-coor
    22626  1.94359E-03 1.76226E-01-3.69421E-01 1.35619E-03 7.09637E-02-9.66339E-02-5.25895E-04 8.51386E-02 1.37251E-02 4.66132E+00-2.80146E+01-4.53511E+01



 n o d a l   p r i n t   o u t   f o r   t i m e  s t e p    9601                              ( at time 4.7995197E+00 )

 nodal point  x-rot      y-rot       z-rot       x-rot vel   y-rot vel   z-rot vel   x-rot acc   y-rot acc   z-rot acc
    22626 -9.95263E-04-1.25298E-04-1.04526E-04-4.62341E-04-8.77801E-06 8.95376E-06-6.52372E-04 1.50728E-05 7.92324E-05



 n o d a l   p r i n t   o u t   f o r   t i m e  s t e p    9801                              ( at time 4.8995097E+00 )

 nodal point  x-disp     y-disp      z-disp      x-vel       y-vel       z-vel      x-accl      y-accl      z-accl      x-coor      y-coor      z-coor
    22626  2.11823E-03 1.83760E-01-3.78926E-01 2.06396E-03 8.01403E-02-9.39135E-02 7.07835E-03 9.17752E-02 2.72071E-02 4.66149E+00-2.80071E+01-4.53606E+01



 n o d a l   p r i n t   o u t   f o r   t i m e  s t e p    9801                              ( at time 4.8995097E+00 )

 nodal point  x-rot      y-rot       z-rot       x-rot vel   y-rot vel   z-rot vel   x-rot acc   y-rot acc   z-rot acc
    22626 -1.04431E-03-1.26386E-04-1.03294E-04-5.24136E-04-6.93577E-06 1.07391E-05-6.18012E-04 1.84242E-05 1.78553E-05



 n o d a l   p r i n t   o u t   f o r   t i m e  s t e p   10001                              ( at time 4.9994997E+00 )

 nodal point  x-disp     y-disp      z-disp      x-vel       y-vel       z-vel      x-accl      y-accl      z-accl      x-coor      y-coor      z-coor
    22626  2.33434E-03 1.92280E-01-3.88375E-01 2.00498E-03 9.08773E-02-9.48152E-02-5.89805E-04 1.07381E-01-9.01779E-03 4.66171E+00-2.79986E+01-4.53701E+01



 n o d a l   p r i n t   o u t   f o r   t i m e  s t e p   10001                              ( at time 4.9994997E+00 )

 nodal point  x-rot      y-rot       z-rot       x-rot vel   y-rot vel   z-rot vel   x-rot acc   y-rot acc   z-rot acc
    22626 -1.10052E-03-1.27391E-04-1.02741E-04-6.01887E-04-1.75360E-05 4.61335E-06-7.77580E-04-1.06012E-04-6.12634E-05



 n o d a l   p r i n t   o u t   f o r   t i m e  s t e p   10202                              ( at time 5.0999896E+00 )

 nodal point  x-disp     y-disp      z-disp      x-vel       y-vel       z-vel      x-accl      y-accl      z-accl      x-coor      y-coor      z-coor
    22626  2.56060E-03 2.02029E-01-3.97907E-01 2.42498E-03 1.03208E-01-9.46725E-02 4.17949E-03 1.22704E-01 1.42035E-03 4.66194E+00-2.79888E+01-4.53796E+01



 n o d a l   p r i n t   o u t   f o r   t i m e  s t e p   10202                              ( at time 5.0999896E+00 )

 nodal point  x-rot      y-rot       z-rot       x-rot vel   y-rot vel   z-rot vel   x-rot acc   y-rot acc   z-rot acc
    22626 -1.16547E-03-1.29720E-04-1.02173E-04-6.98942E-04-2.67942E-05-8.72045E-07-9.65819E-04-9.21307E-05-5.45867E-05



 n o d a l   p r i n t   o u t   f o r   t i m e  s t e p   10402                              ( at time 5.1999796E+00 )

 nodal point  x-disp     y-disp      z-disp      x-vel       y-vel       z-vel      x-accl      y-accl      z-accl      x-coor      y-coor      z-coor
    22626  2.78032E-03 2.12985E-01-4.07296E-01 1.83000E-03 1.16220E-01-9.30934E-02-5.95037E-03 1.30132E-01 1.57921E-02 4.66216E+00-2.79778E+01-4.53890E+01



 n o d a l   p r i n t   o u t   f o r   t i m e  s t e p   10402                              ( at time 5.1999796E+00 )

 nodal point  x-rot      y-rot       z-rot       x-rot vel   y-rot vel   z-rot vel   x-rot acc   y-rot acc   z-rot acc
    22626 -1.24013E-03-1.32211E-04-1.02814E-04-7.97485E-04-1.85699E-05-9.42528E-06-9.85532E-04 8.22508E-05-8.55406E-05



 n o d a l   p r i n t   o u t   f o r   t i m e  s t e p   10602                              ( at time 5.2999696E+00 )

 nodal point  x-disp     y-disp      z-disp      x-vel       y-vel       z-vel      x-accl      y-accl      z-accl      x-coor      y-coor      z-coor
    22626  2.96287E-03 2.25319E-01-4.16555E-01 2.02967E-03 1.30990E-01-9.20225E-02 1.99694E-03 1.47721E-01 1.07101E-02 4.66234E+00-2.79655E+01-4.53983E+01



 n o d a l   p r i n t   o u t   f o r   t i m e  s t e p   10602                              ( at time 5.2999696E+00 )

 nodal point  x-rot      y-rot       z-rot       x-rot vel   y-rot vel   z-rot vel   x-rot acc   y-rot acc   z-rot acc
    22626 -1.32545E-03-1.34216E-04-1.03644E-04-9.09359E-04-2.31581E-05-8.84443E-06-1.11885E-03-4.58874E-05 5.80909E-06



 n o d a l   p r i n t   o u t   f o r   t i m e  s t e p   10802                              ( at time 5.3999596E+00 )

 nodal point  x-disp     y-disp      z-disp      x-vel       y-vel       z-vel      x-accl      y-accl      z-accl      x-coor      y-coor      z-coor
    22626  3.17676E-03 2.39181E-01-4.25779E-01 1.95005E-03 1.46507E-01-9.26029E-02-7.96273E-04 1.55179E-01-5.80496E-03 4.66255E+00-2.79516E+01-4.54075E+01



 n o d a l   p r i n t   o u t   f o r   t i m e  s t e p   10802                              ( at time 5.3999596E+00 )

 nodal point  x-rot      y-rot       z-rot       x-rot vel   y-rot vel   z-rot vel   x-rot acc   y-rot acc   z-rot acc
    22626 -1.42177E-03-1.37830E-04-1.05395E-04-1.01805E-03-3.97919E-05-2.53124E-05-1.08706E-03-1.66354E-04-1.64696E-04



 n o d a l   p r i n t   o u t   f o r   t i m e  s t e p   11002                              ( at time 5.4999496E+00 )

 nodal point  x-disp     y-disp      z-disp      x-vel       y-vel       z-vel      x-accl      y-accl      z-accl      x-coor      y-coor      z-coor
    22626  3.34940E-03 2.54639E-01-4.35037E-01 1.77792E-03 1.63070E-01-9.27117E-02-1.72149E-03 1.65647E-01-1.08775E-03 4.66272E+00-2.79362E+01-4.54168E+01



 n o d a l   p r i n t   o u t   f o r   t i m e  s t e p   11002                              ( at time 5.4999496E+00 )

 nodal point  x-rot      y-rot       z-rot       x-rot vel   y-rot vel   z-rot vel   x-rot acc   y-rot acc   z-rot acc
    22626 -1.52903E-03-1.41853E-04-1.08747E-04-1.13067E-03-4.57654E-05-4.19273E-05-1.12631E-03-5.97411E-05-1.66166E-04



 n o d a l   p r i n t   o u t   f o r   t i m e  s t e p   11202                              ( at time 5.5999396E+00 )

 nodal point  x-disp     y-disp      z-disp      x-vel       y-vel       z-vel      x-accl      y-accl      z-accl      x-coor      y-coor      z-coor
    22626  3.56575E-03 2.71837E-01-4.44239E-01 1.76257E-03 1.80270E-01-9.11063E-02-1.53544E-04 1.72022E-01 1.60555E-02 4.66294E+00-2.79190E+01-4.54260E+01



 n o d a l   p r i n t   o u t   f o r   t i m e  s t e p   11202                              ( at time 5.5999396E+00 )

 nodal point  x-rot      y-rot       z-rot       x-rot vel   y-rot vel   z-rot vel   x-rot acc   y-rot acc   z-rot acc
    22626 -1.64914E-03-1.46932E-04-1.12853E-04-1.26944E-03-4.84057E-05-4.31657E-05-1.38782E-03-2.64060E-05-1.23850E-05



 n o d a l   p r i n t   o u t   f o r   t i m e  s t e p   11402                              ( at time 5.6999296E+00 )

 nodal point  x-disp     y-disp      z-disp      x-vel       y-vel       z-vel      x-accl      y-accl      z-accl      x-coor      y-coor      z-coor
    22626  3.71220E-03 2.90729E-01-4.53255E-01 1.53644E-03 1.98424E-01-8.92962E-02-2.26148E-03 1.81553E-01 1.81032E-02 4.66309E+00-2.79001E+01-4.54350E+01



 n o d a l   p r i n t   o u t   f o r   t i m e  s t e p   11402                              ( at time 5.6999296E+00 )

 nodal point  x-rot      y-rot       z-rot       x-rot vel   y-rot vel   z-rot vel   x-rot acc   y-rot acc   z-rot acc
    22626 -1.78239E-03-1.52467E-04-1.18233E-04-1.39614E-03-5.37939E-05-6.04579E-05-1.26708E-03-5.38867E-05-1.72939E-04



 n o d a l   p r i n t   o u t   f o r   t i m e  s t e p   11602                              ( at time 5.7999195E+00 )

 nodal point  x-disp     y-disp      z-disp      x-vel       y-vel       z-vel      x-accl      y-accl      z-accl      x-coor      y-coor      z-coor
    22626  3.83719E-03 3.11488E-01-4.62119E-01 5.71350E-04 2.17043E-01-8.83220E-02-9.65188E-03 1.86210E-01 9.74232E-03 4.66321E+00-2.78793E+01-4.54438E+01



 n o d a l   p r i n t   o u t   f o r   t i m e  s t e p   11602                              ( at time 5.7999195E+00 )

 nodal point  x-rot      y-rot       z-rot       x-rot vel   y-rot vel   z-rot vel   x-rot acc   y-rot acc   z-rot acc
    22626 -1.92772E-03-1.58386E-04-1.24600E-04-1.51713E-03-5.64351E-05-6.50005E-05-1.21008E-03-2.64147E-05-4.54305E-05



 n o d a l   p r i n t   o u t   f o r   t i m e  s t e p   11802                              ( at time 5.8999095E+00 )

 nodal point  x-disp     y-disp      z-disp      x-vel       y-vel       z-vel      x-accl      y-accl      z-accl      x-coor      y-coor      z-coor
    22626  3.86435E-03 3.34209E-01-4.70934E-01-4.36509E-05 2.37154E-01-8.78413E-02-6.15063E-03 2.01128E-01 4.80812E-03 4.66324E+00-2.78566E+01-4.54527E+01



 n o d a l   p r i n t   o u t   f o r   t i m e  s t e p   11802                              ( at time 5.8999095E+00 )

 nodal point  x-rot      y-rot       z-rot       x-rot vel   y-rot vel   z-rot vel   x-rot acc   y-rot acc   z-rot acc
    22626 -2.08659E-03-1.64377E-04-1.31691E-04-1.67116E-03-6.22353E-05-8.36042E-05-1.54044E-03-5.80081E-05-1.86056E-04



 n o d a l   p r i n t   o u t   f o r   t i m e  s t e p   12002                              ( at time 5.9998995E+00 )

 nodal point  x-disp     y-disp      z-disp      x-vel       y-vel       z-vel      x-accl      y-accl      z-accl      x-coor      y-coor      z-coor
    22626  3.89683E-03 3.58912E-01-4.79647E-01 9.46232E-05 2.57350E-01-8.65534E-02 1.38288E-03 2.01984E-01 1.28802E-02 4.66327E+00-2.78319E+01-4.54614E+01



 n o d a l   p r i n t   o u t   f o r   t i m e  s t e p   12002                              ( at time 5.9998995E+00 )

 nodal point  x-rot      y-rot       z-rot       x-rot vel   y-rot vel   z-rot vel   x-rot acc   y-rot acc   z-rot acc
    22626 -2.26053E-03-1.69775E-04-1.39391E-04-1.81365E-03-5.15089E-05-7.09545E-05-1.42504E-03 1.07275E-04 1.26510E-04



 n o d a l   p r i n t   o u t   f o r   t i m e  s t e p   12202                              ( at time 6.0998895E+00 )

 nodal point  x-disp     y-disp      z-disp      x-vel       y-vel       z-vel      x-accl      y-accl      z-accl      x-coor      y-coor      z-coor
    22626  3.87109E-03 3.85742E-01-4.88290E-01-3.74396E-04 2.79142E-01-8.57183E-02-4.69065E-03 2.17937E-01 8.35171E-03 4.66325E+00-2.78051E+01-4.54700E+01



 n o d a l   p r i n t   o u t   f o r   t i m e  s t e p   12202                              ( at time 6.0998895E+00 )

 nodal point  x-rot      y-rot       z-rot       x-rot vel   y-rot vel   z-rot vel   x-rot acc   y-rot acc   z-rot acc
    22626 -2.44915E-03-1.75185E-04-1.46451E-04-1.96950E-03-5.97195E-05-7.50233E-05-1.55866E-03-8.21148E-05-4.06919E-05



 n o d a l   p r i n t   o u t   f o r   t i m e  s t e p   12402                              ( at time 6.1998795E+00 )

 nodal point  x-disp     y-disp      z-disp      x-vel       y-vel       z-vel      x-accl      y-accl      z-accl      x-coor      y-coor      z-coor
    22626  3.83499E-03 4.14735E-01-4.96795E-01-2.96468E-04 3.01544E-01-8.40602E-02 7.79359E-04 2.24046E-01 1.65826E-02 4.66321E+00-2.77761E+01-4.54785E+01



 n o d a l   p r i n t   o u t   f o r   t i m e  s t e p   12402                              ( at time 6.1998795E+00 )

 nodal point  x-rot      y-rot       z-rot       x-rot vel   y-rot vel   z-rot vel   x-rot acc   y-rot acc   z-rot acc
    22626 -2.65368E-03-1.80815E-04-1.54533E-04-2.11808E-03-4.93193E-05-7.37317E-05-1.48589E-03 1.04013E-04 1.29169E-05



 n o d a l   p r i n t   o u t   f o r   t i m e  s t e p   12602                              ( at time 6.2998695E+00 )

 nodal point  x-disp     y-disp      z-disp      x-vel       y-vel       z-vel      x-accl      y-accl      z-accl      x-coor      y-coor      z-coor
    22626  3.78971E-03 4.46053E-01-5.05236E-01-5.11586E-04 3.24594E-01-8.46673E-02-2.15139E-03 2.30527E-01-6.07164E-03 4.66316E+00-2.77448E+01-4.54870E+01



 n o d a l   p r i n t   o u t   f o r   t i m e  s t e p   12602                              ( at time 6.2998695E+00 )

 nodal point  x-rot      y-rot       z-rot       x-rot vel   y-rot vel   z-rot vel   x-rot acc   y-rot acc   z-rot acc
    22626 -2.87322E-03-1.85546E-04-1.62372E-04-2.27240E-03-5.34225E-05-8.30756E-05-1.54339E-03-4.10365E-05-9.34482E-05



 n o d a l   p r i n t   o u t   f o r   t i m e  s t e p   12802                              ( at time 6.3998595E+00 )

 nodal point  x-disp     y-disp      z-disp      x-vel       y-vel       z-vel      x-accl      y-accl      z-accl      x-coor      y-coor      z-coor
    22626  3.69381E-03 4.79669E-01-5.13653E-01-1.06601E-03 3.47911E-01-8.33294E-02-5.54485E-03 2.33193E-01 1.33807E-02 4.66307E+00-2.77112E+01-4.54954E+01



 n o d a l   p r i n t   o u t   f o r   t i m e  s t e p   12802                              ( at time 6.3998595E+00 )

 nodal point  x-rot      y-rot       z-rot       x-rot vel   y-rot vel   z-rot vel   x-rot acc   y-rot acc   z-rot acc
    22626 -3.10838E-03-1.91642E-04-1.71421E-04-2.44046E-03-6.28640E-05-9.41318E-05-1.68074E-03-9.44245E-05-1.10573E-04



 n o d a l   p r i n t   o u t   f o r   t i m e  s t e p   13002                              ( at time 6.4998495E+00 )

 nodal point  x-disp     y-disp      z-disp      x-vel       y-vel       z-vel      x-accl      y-accl      z-accl      x-coor      y-coor      z-coor
    22626  3.64042E-03 5.15634E-01-5.21855E-01-2.58943E-04 3.71531E-01-8.12054E-02 8.07153E-03 2.36217E-01 2.12417E-02 4.66302E+00-2.76752E+01-4.55036E+01



 n o d a l   p r i n t   o u t   f o r   t i m e  s t e p   13002                              ( at time 6.4998495E+00 )

 nodal point  x-rot      y-rot       z-rot       x-rot vel   y-rot vel   z-rot vel   x-rot acc   y-rot acc   z-rot acc
    22626 -3.36023E-03-1.97528E-04-1.79956E-04-2.61273E-03-5.33402E-05-7.63446E-05-1.72291E-03 9.52478E-05 1.77890E-04



 n o d a l   p r i n t   o u t   f o r   t i m e  s t e p   13202                              ( at time 6.5998395E+00 )

 nodal point  x-disp     y-disp      z-disp      x-vel       y-vel       z-vel      x-accl      y-accl      z-accl      x-coor      y-coor      z-coor
    22626  3.59318E-03 5.53967E-01-5.29845E-01-3.15302E-04 3.95487E-01-7.82888E-02-5.63642E-04 2.39587E-01 2.91686E-02 4.66297E+00-2.76369E+01-4.55116E+01



 n o d a l   p r i n t   o u t   f o r   t i m e  s t e p   13202                              ( at time 6.5998395E+00 )

 nodal point  x-rot      y-rot       z-rot       x-rot vel   y-rot vel   z-rot vel   x-rot acc   y-rot acc   z-rot acc
    22626 -3.62914E-03-2.03196E-04-1.88415E-04-2.77099E-03-5.74425E-05-9.35167E-05-1.58272E-03-4.10265E-05-1.71737E-04



 n o d a l   p r i n t   o u t   f o r   t i m e  s t e p   13402                              ( at time 6.6998295E+00 )

 nodal point  x-disp     y-disp      z-disp      x-vel       y-vel       z-vel      x-accl      y-accl      z-accl      x-coor      y-coor      z-coor
    22626  3.50822E-03 5.94735E-01-5.37532E-01-1.03928E-03 4.19924E-01-7.60076E-02-7.24053E-03 2.44396E-01 2.28149E-02 4.66288E+00-2.75961E+01-4.55193E+01



 n o d a l   p r i n t   o u t   f o r   t i m e  s t e p   13402                              ( at time 6.6998295E+00 )

 nodal point  x-rot      y-rot       z-rot       x-rot vel   y-rot vel   z-rot vel   x-rot acc   y-rot acc   z-rot acc
    22626 -3.91355E-03-2.09244E-04-1.97656E-04-2.93343E-03-5.66433E-05-8.56706E-05-1.62462E-03 7.99254E-06 7.84692E-05



 n o d a l   p r i n t   o u t   f o r   t i m e  s t e p   13602                              ( at time 6.7998195E+00 )

 nodal point  x-disp     y-disp      z-disp      x-vel       y-vel       z-vel      x-accl      y-accl      z-accl      x-coor      y-coor      z-coor
    22626  3.42962E-03 6.37982E-01-5.45078E-01-9.38841E-04 4.44744E-01-7.42713E-02 1.00451E-03 2.48226E-01 1.73644E-02 4.66280E+00-2.75528E+01-4.55268E+01



 n o d a l   p r i n t   o u t   f o r   t i m e  s t e p   13602                              ( at time 6.7998195E+00 )

 nodal point  x-rot      y-rot       z-rot       x-rot vel   y-rot vel   z-rot vel   x-rot acc   y-rot acc   z-rot acc
    22626 -4.21603E-03-2.14277E-04-2.05916E-04-3.12108E-03-5.67770E-05-8.21242E-05-1.87665E-03-1.33749E-06 3.54671E-05



 n o d a l   p r i n t   o u t   f o r   t i m e  s t e p   13802                              ( at time 6.8998095E+00 )

 nodal point  x-disp     y-disp      z-disp      x-vel       y-vel       z-vel      x-accl      y-accl      z-accl      x-coor      y-coor      z-coor
    22626  3.34584E-03 6.83712E-01-5.52354E-01-9.40244E-04 4.70216E-01-7.08534E-02-1.40277E-05 2.54744E-01 3.41825E-02 4.66272E+00-2.75071E+01-4.55341E+01



 n o d a l   p r i n t   o u t   f o r   t i m e  s t e p   13802                              ( at time 6.8998095E+00 )

 nodal point  x-rot      y-rot       z-rot       x-rot vel   y-rot vel   z-rot vel   x-rot acc   y-rot acc   z-rot acc
    22626 -4.53610E-03-2.20055E-04-2.14613E-04-3.28801E-03-5.53049E-05-8.96495E-05-1.66951E-03 1.47223E-05-7.52607E-05



 n o d a l   p r i n t   o u t   f o r   t i m e  s t e p   14002                              ( at time 6.9997995E+00 )

 nodal point  x-disp     y-disp      z-disp      x-vel       y-vel       z-vel      x-accl      y-accl      z-accl      x-coor      y-coor      z-coor
    22626  3.20995E-03 7.31974E-01-5.59260E-01-1.25934E-03 4.95585E-01-6.73853E-02-3.19126E-03 2.53719E-01 3.46843E-02 4.66258E+00-2.74589E+01-4.55410E+01



 n o d a l   p r i n t   o u t   f o r   t i m e  s t e p   14002                              ( at time 6.9997995E+00 )

 nodal point  x-rot      y-rot       z-rot       x-rot vel   y-rot vel   z-rot vel   x-rot acc   y-rot acc   z-rot acc
    22626 -4.87323E-03-2.25542E-04-2.23271E-04-3.47138E-03-4.93006E-05-8.73078E-05-1.83385E-03 6.00496E-05 2.34202E-05



 n o d a l   p r i n t   o u t   f o r   t i m e  s t e p   14202                              ( at time 7.0997895E+00 )

 nodal point  x-disp     y-disp      z-disp      x-vel       y-vel       z-vel      x-accl      y-accl      z-accl      x-coor      y-coor      z-coor
    22626  3.11364E-03 7.82840E-01-5.65837E-01-9.32644E-04 5.22095E-01-6.39783E-02 3.26726E-03 2.65122E-01 3.40736E-02 4.66249E+00-2.74080E+01-4.55476E+01



 n o d a l   p r i n t   o u t   f o r   t i m e  s t e p   14202                              ( at time 7.0997895E+00 )

 nodal point  x-rot      y-rot       z-rot       x-rot vel   y-rot vel   z-rot vel   x-rot acc   y-rot acc   z-rot acc
    22626 -5.22904E-03-2.30105E-04-2.31667E-04-3.64698E-03-4.51191E-05-8.53862E-05-1.75619E-03 4.18191E-05 1.92175E-05



 n o d a l   p r i n t   o u t   f o r   t i m e  s t e p   14402                              ( at time 7.1997794E+00 )

 nodal point  x-disp     y-disp      z-disp      x-vel       y-vel       z-vel      x-accl      y-accl      z-accl      x-coor      y-coor      z-coor
    22626  3.01568E-03 8.36344E-01-5.71983E-01-1.25093E-03 5.47722E-01-5.91072E-02-3.18317E-03 2.56295E-01 4.87158E-02 4.66239E+00-2.73545E+01-4.55537E+01



 n o d a l   p r i n t   o u t   f o r   t i m e  s t e p   14402                              ( at time 7.1997794E+00 )

 nodal point  x-rot      y-rot       z-rot       x-rot vel   y-rot vel   z-rot vel   x-rot acc   y-rot acc   z-rot acc
    22626 -5.60191E-03-2.34615E-04-2.39875E-04-3.82623E-03-4.55252E-05-7.82208E-05-1.79267E-03-4.06185E-06 7.16608E-05



 n o d a l   p r i n t   o u t   f o r   t i m e  s t e p   14602                              ( at time 7.2997694E+00 )

 nodal point  x-disp     y-disp      z-disp      x-vel       y-vel       z-vel      x-accl      y-accl      z-accl      x-coor      y-coor      z-coor
    22626  2.89896E-03 8.92401E-01-5.77603E-01-1.15768E-03 5.73566E-01-5.31879E-02 9.32587E-04 2.58463E-01 5.91994E-02 4.66227E+00-2.72984E+01-4.55593E+01



 n o d a l   p r i n t   o u t   f o r   t i m e  s t e p   14602                              ( at time 7.2997694E+00 )

 nodal point  x-rot      y-rot       z-rot       x-rot vel   y-rot vel   z-rot vel   x-rot acc   y-rot acc   z-rot acc
    22626 -5.99441E-03-2.39306E-04-2.47934E-04-4.02133E-03-3.94739E-05-7.39908E-05-1.95122E-03 6.05193E-05 4.23050E-05



 n o d a l   p r i n t   o u t   f o r   t i m e  s t e p   14802                              ( at time 7.3997594E+00 )

 nodal point  x-disp     y-disp      z-disp      x-vel       y-vel       z-vel      x-accl      y-accl      z-accl      x-coor      y-coor      z-coor
    22626  2.80377E-03 9.51084E-01-5.82592E-01-8.06549E-04 5.99705E-01-4.61768E-02 3.51166E-03 2.61421E-01 7.01181E-02 4.66218E+00-2.72397E+01-4.55643E+01



 n o d a l   p r i n t   o u t   f o r   t i m e  s t e p   14802                              ( at time 7.3997594E+00 )

 nodal point  x-rot      y-rot       z-rot       x-rot vel   y-rot vel   z-rot vel   x-rot acc   y-rot acc   z-rot acc
    22626 -6.40550E-03-2.42443E-04-2.55465E-04-4.19823E-03-1.87875E-05-7.41455E-05-1.76917E-03 2.06885E-04-1.54724E-06



 n o d a l   p r i n t   o u t   f o r   t i m e  s t e p   15002                              ( at time 7.4997494E+00 )

 nodal point  x-disp     y-disp      z-disp      x-vel       y-vel       z-vel      x-accl      y-accl      z-accl      x-coor      y-coor      z-coor
    22626  2.70509E-03 1.01233E+00-5.86851E-01-9.09105E-04 6.25456E-01-3.91008E-02-1.02566E-03 2.57534E-01 7.07661E-02 4.66208E+00-2.71785E+01-4.55686E+01



 n o d a l   p r i n t   o u t   f o r   t i m e  s t e p   15002                              ( at time 7.4997494E+00 )

 nodal point  x-rot      y-rot       z-rot       x-rot vel   y-rot vel   z-rot vel   x-rot acc   y-rot acc   z-rot acc
    22626 -6.83489E-03-2.45350E-04-2.62960E-04-4.39816E-03-3.81401E-05-7.64684E-05-1.99946E-03-1.93545E-04-2.32311E-05



 n o d a l   p r i n t   o u t   f o r   t i m e  s t e p   15202                              ( at time 7.5997394E+00 )

 nodal point  x-disp     y-disp      z-disp      x-vel       y-vel       z-vel      x-accl      y-accl      z-accl      x-coor      y-coor      z-coor
    22626  2.60591E-03 1.07619E+00-5.90384E-01-1.51206E-03 6.51842E-01-3.14168E-02-6.03012E-03 2.63882E-01 7.68484E-02 4.66198E+00-2.71146E+01-4.55721E+01



 n o d a l   p r i n t   o u t   f o r   t i m e  s t e p   15202                              ( at time 7.5997394E+00 )

 nodal point  x-rot      y-rot       z-rot       x-rot vel   y-rot vel   z-rot vel   x-rot acc   y-rot acc   z-rot acc
    22626 -7.28375E-03-2.48550E-04-2.70335E-04-4.58629E-03-2.03678E-05-7.04995E-05-1.88155E-03 1.77741E-04 5.96950E-05



 n o d a l   p r i n t   o u t   f o r   t i m e  s t e p   15402                              ( at time 7.6997294E+00 )

 nodal point  x-disp     y-disp      z-disp      x-vel       y-vel       z-vel      x-accl      y-accl      z-accl      x-coor      y-coor      z-coor
    22626  2.51133E-03 1.14273E+00-5.93176E-01-3.59775E-04 6.78990E-01-2.43962E-02 1.15240E-02 2.71513E-01 7.02130E-02 4.66189E+00-2.70481E+01-4.55749E+01



 n o d a l   p r i n t   o u t   f o r   t i m e  s t e p   15402                              ( at time 7.6997294E+00 )

 nodal point  x-rot      y-rot       z-rot       x-rot vel   y-rot vel   z-rot vel   x-rot acc   y-rot acc   z-rot acc
    22626 -7.75187E-03-2.49639E-04-2.77377E-04-4.78901E-03-1.55076E-05-6.91899E-05-2.02735E-03 4.86075E-05 1.30970E-05



 n o d a l   p r i n t   o u t   f o r   t i m e  s t e p   15602                              ( at time 7.7997194E+00 )

 nodal point  x-disp     y-disp      z-disp      x-vel       y-vel       z-vel      x-accl      y-accl      z-accl      x-coor      y-coor      z-coor
    22626  2.41922E-03 1.21192E+00-5.95196E-01-1.21230E-03 7.05310E-01-1.55014E-02-8.52607E-03 2.63226E-01 8.89565E-02 4.66179E+00-2.69789E+01-4.55769E+01



 n o d a l   p r i n t   o u t   f o r   t i m e  s t e p   15602                              ( at time 7.7997194E+00 )

 nodal point  x-rot      y-rot       z-rot       x-rot vel   y-rot vel   z-rot vel   x-rot acc   y-rot acc   z-rot acc
    22626 -8.24016E-03-2.51662E-04-2.84139E-04-4.97502E-03-1.46274E-05-6.38916E-05-1.86034E-03 8.80202E-06 5.29883E-05



 n o d a l   p r i n t   o u t   f o r   t i m e  s t e p   15802                              ( at time 7.8997094E+00 )

 nodal point  x-disp     y-disp      z-disp      x-vel       y-vel       z-vel      x-accl      y-accl      z-accl      x-coor      y-coor      z-coor
    22626  2.29749E-03 1.28381E+00-5.96316E-01-1.16917E-03 7.32791E-01-6.88180E-03 4.31313E-04 2.74834E-01 8.62051E-02 4.66167E+00-2.69070E+01-4.55780E+01



 n o d a l   p r i n t   o u t   f o r   t i m e  s t e p   15802                              ( at time 7.8997094E+00 )

 nodal point  x-rot      y-rot       z-rot       x-rot vel   y-rot vel   z-rot vel   x-rot acc   y-rot acc   z-rot acc
    22626 -8.74697E-03-2.52599E-04-2.91375E-04-5.16645E-03-9.18868E-06-7.58598E-05-1.91443E-03 5.43932E-05-1.19695E-04



 n o d a l   p r i n t   o u t   f o r   t i m e  s t e p   16002                              ( at time 7.9996994E+00 )

 nodal point  x-disp     y-disp      z-disp      x-vel       y-vel       z-vel      x-accl      y-accl      z-accl      x-coor      y-coor      z-coor
    22626  2.17711E-03 1.35840E+00-5.96559E-01-1.12326E-03 7.59261E-01 2.56442E-03 4.59095E-04 2.64724E-01 9.44712E-02 4.66155E+00-2.68324E+01-4.55783E+01



 n o d a l   p r i n t   o u t   f o r   t i m e  s t e p   16002                              ( at time 7.9996994E+00 )

 nodal point  x-rot      y-rot       z-rot       x-rot vel   y-rot vel   z-rot vel   x-rot acc   y-rot acc   z-rot acc
    22626 -9.27343E-03-2.52904E-04-2.98856E-04-5.36463E-03-2.68230E-06-7.64813E-05-1.98197E-03 6.50701E-05-6.21558E-06



 n o d a l   p r i n t   o u t   f o r   t i m e  s t e p   16202                              ( at time 8.0996894E+00 )

 nodal point  x-disp     y-disp      z-disp      x-vel       y-vel       z-vel      x-accl      y-accl      z-accl      x-coor      y-coor      z-coor
    22626  2.06902E-03 1.43567E+00-5.95805E-01-1.13628E-03 7.86120E-01 1.26174E-02-1.30225E-04 2.68618E-01 1.00540E-01 4.66144E+00-2.67552E+01-4.55775E+01



 n o d a l   p r i n t   o u t   f o r   t i m e  s t e p   16202                              ( at time 8.0996894E+00 )

 nodal point  x-rot      y-rot       z-rot       x-rot vel   y-rot vel   z-rot vel   x-rot acc   y-rot acc   z-rot acc
    22626 -9.81996E-03-2.53079E-04-3.05434E-04-5.56368E-03-4.83266E-06-7.24774E-05-1.99077E-03-2.15058E-05 4.00431E-05



 n o d a l   p r i n t   o u t   f o r   t i m e  s t e p   16402                              ( at time 8.1996794E+00 )

 nodal point  x-disp     y-disp      z-disp      x-vel       y-vel       z-vel      x-accl      y-accl      z-accl      x-coor      y-coor      z-coor
    22626  1.95266E-03 1.51558E+00-5.94004E-01-1.02024E-03 8.12349E-01 2.40069E-02 1.16057E-03 2.62316E-01 1.13907E-01 4.66133E+00-2.66752E+01-4.55757E+01



 n o d a l   p r i n t   o u t   f o r   t i m e  s t e p   16402                              ( at time 8.1996794E+00 )

 nodal point  x-rot      y-rot       z-rot       x-rot vel   y-rot vel   z-rot vel   x-rot acc   y-rot acc   z-rot acc
    22626 -1.03866E-02-2.53421E-04-3.13413E-04-5.76532E-03-4.51174E-06-8.31192E-05-2.01663E-03 3.20955E-06-1.06428E-04



 n o d a l   p r i n t   o u t   f o r   t i m e  s t e p   16602                              ( at time 8.2996694E+00 )

 nodal point  x-disp     y-disp      z-disp      x-vel       y-vel       z-vel      x-accl      y-accl      z-accl      x-coor      y-coor      z-coor
    22626  1.86633E-03 1.59810E+00-5.90998E-01-4.28883E-04 8.38520E-01 3.62947E-02 5.91416E-03 2.61738E-01 1.22890E-01 4.66124E+00-2.65927E+01-4.55727E+01



 n o d a l   p r i n t   o u t   f o r   t i m e  s t e p   16602                              ( at time 8.2996694E+00 )

 nodal point  x-rot      y-rot       z-rot       x-rot vel   y-rot vel   z-rot vel   x-rot acc   y-rot acc   z-rot acc
    22626 -1.09736E-02-2.54038E-04-3.20726E-04-5.96251E-03-8.83553E-07-6.97908E-05-1.97210E-03 3.62855E-05 1.33297E-04



 n o d a l   p r i n t   o u t   f o r   t i m e  s t e p   16802                              ( at time 8.3996594E+00 )

 nodal point  x-disp     y-disp      z-disp      x-vel       y-vel       z-vel      x-accl      y-accl      z-accl      x-coor      y-coor      z-coor
    22626  1.82825E-03 1.68327E+00-5.86752E-01-2.37794E-04 8.64849E-01 4.89510E-02 1.91108E-03 2.63313E-01 1.26576E-01 4.66120E+00-2.65076E+01-4.55685E+01



 n o d a l   p r i n t   o u t   f o r   t i m e  s t e p   16802                              ( at time 8.3996594E+00 )

 nodal point  x-rot      y-rot       z-rot       x-rot vel   y-rot vel   z-rot vel   x-rot acc   y-rot acc   z-rot acc
    22626 -1.15793E-02-2.54239E-04-3.28213E-04-6.15655E-03-8.13937E-06-8.09571E-05-1.94057E-03-7.25655E-05-1.11674E-04



 n o d a l   p r i n t   o u t   f o r   t i m e  s t e p   17002                              ( at time 8.4996494E+00 )

 nodal point  x-disp     y-disp      z-disp      x-vel       y-vel       z-vel      x-accl      y-accl      z-accl      x-coor      y-coor      z-coor
    22626  1.83195E-03 1.77104E+00-5.81226E-01-2.99347E-04 8.90655E-01 6.19379E-02-6.15587E-04 2.58088E-01 1.29882E-01 4.66121E+00-2.64198E+01-4.55629E+01



 n o d a l   p r i n t   o u t   f o r   t i m e  s t e p   17002                              ( at time 8.4996494E+00 )

 nodal point  x-rot      y-rot       z-rot       x-rot vel   y-rot vel   z-rot vel   x-rot acc   y-rot acc   z-rot acc
    22626 -1.22057E-02-2.55087E-04-3.36257E-04-6.37027E-03-1.10247E-05-7.62916E-05-2.13735E-03-2.88561E-05 4.66602E-05



 n o d a l   p r i n t   o u t   f o r   t i m e  s t e p   17202                              ( at time 8.5996394E+00 )

 nodal point  x-disp     y-disp      z-disp      x-vel       y-vel       z-vel      x-accl      y-accl      z-accl      x-coor      y-coor      z-coor
    22626  1.83208E-03 1.86140E+00-5.74348E-01 5.54700E-04 9.16705E-01 7.59874E-02 8.54133E-03 2.60528E-01 1.40509E-01 4.66121E+00-2.63294E+01-4.55561E+01



 n o d a l   p r i n t   o u t   f o r   t i m e  s t e p   17202                              ( at time 8.5996394E+00 )

 nodal point  x-rot      y-rot       z-rot       x-rot vel   y-rot vel   z-rot vel   x-rot acc   y-rot acc   z-rot acc
    22626 -1.28518E-02-2.56036E-04-3.43734E-04-6.55359E-03-7.60411E-06-7.57122E-05-1.83341E-03 3.42093E-05 5.79458E-06



 n o d a l   p r i n t   o u t   f o r   t i m e  s t e p   17402                              ( at time 8.6996293E+00 )

 nodal point  x-disp     y-disp      z-disp      x-vel       y-vel       z-vel      x-accl      y-accl      z-accl      x-coor      y-coor      z-coor
    22626  1.89059E-03 1.95432E+00-5.66043E-01 5.74964E-04 9.41866E-01 9.04259E-02 2.02652E-04 2.51629E-01 1.44398E-01 4.66127E+00-2.62365E+01-4.55478E+01



 n o d a l   p r i n t   o u t   f o r   t i m e  s t e p   17402                              ( at time 8.6996293E+00 )

 nodal point  x-rot      y-rot       z-rot       x-rot vel   y-rot vel   z-rot vel   x-rot acc   y-rot acc   z-rot acc
    22626 -1.35164E-02-2.56438E-04-3.51017E-04-6.73627E-03 5.36572E-09-6.49090E-05-1.82704E-03 7.61017E-05 1.08041E-04



 n o d a l   p r i n t   o u t   f o r   t i m e  s t e p   17602                              ( at time 8.7996193E+00 )

 nodal point  x-disp     y-disp      z-disp      x-vel       y-vel       z-vel      x-accl      y-accl      z-accl      x-coor      y-coor      z-coor
    22626  1.97281E-03 2.04977E+00-5.56245E-01 1.40311E-03 9.67290E-01 1.06031E-01 8.28227E-03 2.54273E-01 1.56065E-01 4.66135E+00-2.61411E+01-4.55380E+01



 n o d a l   p r i n t   o u t   f o r   t i m e  s t e p   17602                              ( at time 8.7996193E+00 )

 nodal point  x-rot      y-rot       z-rot       x-rot vel   y-rot vel   z-rot vel   x-rot acc   y-rot acc   z-rot acc
    22626 -1.41994E-02-2.56208E-04-3.57773E-04-6.92176E-03 2.40745E-06-6.87654E-05-1.85508E-03 2.40232E-05-3.85676E-05



 n o d a l   p r i n t   o u t   f o r   t i m e  s t e p   17802                              ( at time 8.8996093E+00 )

 nodal point  x-disp     y-disp      z-disp      x-vel       y-vel       z-vel      x-accl      y-accl      z-accl      x-coor      y-coor      z-coor
    22626  2.14187E-03 2.14771E+00-5.44824E-01 1.91602E-03 9.91916E-01 1.22009E-01 5.12961E-03 2.46287E-01 1.59801E-01 4.66152E+00-2.60431E+01-4.55265E+01



 n o d a l   p r i n t   o u t   f o r   t i m e  s t e p   17802                              ( at time 8.8996093E+00 )

 nodal point  x-rot      y-rot       z-rot       x-rot vel   y-rot vel   z-rot vel   x-rot acc   y-rot acc   z-rot acc
    22626 -1.48998E-02-2.56259E-04-3.64413E-04-7.09643E-03-5.53302E-06-5.95509E-05-1.74679E-03-7.94127E-05 9.21540E-05



 n o d a l   p r i n t   o u t   f o r   t i m e  s t e p   18002                              ( at time 8.9995993E+00 )

 nodal point  x-disp     y-disp      z-disp      x-vel       y-vel       z-vel      x-accl      y-accl      z-accl      x-coor      y-coor      z-coor
    22626  2.39747E-03 2.24807E+00-5.31801E-01 3.16309E-03 1.01479E+00 1.38723E-01 1.24720E-02 2.28805E-01 1.67150E-01 4.66177E+00-2.59428E+01-4.55135E+01



 n o d a l   p r i n t   o u t   f o r   t i m e  s t e p   18002                              ( at time 8.9995993E+00 )

 nodal point  x-rot      y-rot       z-rot       x-rot vel   y-rot vel   z-rot vel   x-rot acc   y-rot acc   z-rot acc
    22626 -1.56182E-02-2.56287E-04-3.69484E-04-7.26593E-03 5.88535E-06-4.59377E-05-1.69521E-03 1.14195E-04 1.36146E-04



 n o d a l   p r i n t   o u t   f o r   t i m e  s t e p   18202                              ( at time 9.0995893E+00 )

 nodal point  x-disp     y-disp      z-disp      x-vel       y-vel       z-vel      x-accl      y-accl      z-accl      x-coor      y-coor      z-coor
    22626  2.77618E-03 2.35077E+00-5.17030E-01 4.18562E-03 1.03861E+00 1.56686E-01 1.02263E-02 2.38213E-01 1.79652E-01 4.66215E+00-2.58401E+01-4.54987E+01



 n o d a l   p r i n t   o u t   f o r   t i m e  s t e p   18202                              ( at time 9.0995893E+00 )

 nodal point  x-rot      y-rot       z-rot       x-rot vel   y-rot vel   z-rot vel   x-rot acc   y-rot acc   z-rot acc
    22626 -1.63530E-02-2.54928E-04-3.74056E-04-7.42935E-03 2.35646E-05-4.14108E-05-1.63436E-03 1.76810E-04 4.52735E-05



 n o d a l   p r i n t   o u t   f o r   t i m e  s t e p   18402                              ( at time 9.1995793E+00 )

 nodal point  x-disp     y-disp      z-disp      x-vel       y-vel       z-vel      x-accl      y-accl      z-accl      x-coor      y-coor      z-coor
    22626  3.19380E-03 2.45574E+00-5.00369E-01 4.33537E-03 1.06068E+00 1.76482E-01 1.49769E-03 2.20647E-01 1.97978E-01 4.66257E+00-2.57351E+01-4.54821E+01



 n o d a l   p r i n t   o u t   f o r   t i m e  s t e p   18402                              ( at time 9.1995793E+00 )

 nodal point  x-rot      y-rot       z-rot       x-rot vel   y-rot vel   z-rot vel   x-rot acc   y-rot acc   z-rot acc
    22626 -1.71046E-02-2.52647E-04-3.77001E-04-7.60372E-03 2.54485E-05-1.75090E-05-1.74389E-03 1.88406E-05 2.39042E-04



 n o d a l   p r i n t   o u t   f o r   t i m e  s t e p   18602                              ( at time 9.2995693E+00 )

 nodal point  x-disp     y-disp      z-disp      x-vel       y-vel       z-vel      x-accl      y-accl      z-accl      x-coor      y-coor      z-coor
    22626  3.74412E-03 2.56291E+00-4.81732E-01 6.58580E-03 1.08278E+00 1.96409E-01 2.25065E-02 2.21030E-01 1.99295E-01 4.66312E+00-2.56279E+01-4.54635E+01



 n o d a l   p r i n t   o u t   f o r   t i m e  s t e p   18602                              ( at time 9.2995693E+00 )

 nodal point  x-rot      y-rot       z-rot       x-rot vel   y-rot vel   z-rot vel   x-rot acc   y-rot acc   z-rot acc
    22626 -1.78733E-02-2.49089E-04-3.78101E-04-7.76287E-03 4.86332E-05-6.59286E-06-1.59160E-03 2.31871E-04 1.09172E-04



 n o d a l   p r i n t   o u t   f o r   t i m e  s t e p   18802                              ( at time 9.3995593E+00 )

 nodal point  x-disp     y-disp      z-disp      x-vel       y-vel       z-vel      x-accl      y-accl      z-accl      x-coor      y-coor      z-coor
    22626  4.46419E-03 2.67222E+00-4.61046E-01 7.83112E-03 1.10298E+00 2.17813E-01 1.24545E-02 2.02090E-01 2.14058E-01 4.66384E+00-2.55186E+01-4.54428E+01



 n o d a l   p r i n t   o u t   f o r   t i m e  s t e p   18802                              ( at time 9.3995593E+00 )

 nodal point  x-rot      y-rot       z-rot       x-rot vel   y-rot vel   z-rot vel   x-rot acc   y-rot acc   z-rot acc
    22626 -1.86576E-02-2.43468E-04-3.77180E-04-7.92602E-03 6.30632E-05 2.26051E-05-1.63168E-03 1.44315E-04 2.92009E-04



 n o d a l   p r i n t   o u t   f o r   t i m e  s t e p   19002                              ( at time 9.4995493E+00 )

 nodal point  x-disp     y-disp      z-disp      x-vel       y-vel       z-vel      x-accl      y-accl      z-accl      x-coor      y-coor      z-coor
    22626  5.32294E-03 2.78346E+00-4.38081E-01 9.23283E-03 1.12225E+00 2.41391E-01 1.40185E-02 1.92657E-01 2.35810E-01 4.66470E+00-2.54074E+01-4.54198E+01



 n o d a l   p r i n t   o u t   f o r   t i m e  s t e p   19002                              ( at time 9.4995493E+00 )

 nodal point  x-rot      y-rot       z-rot       x-rot vel   y-rot vel   z-rot vel   x-rot acc   y-rot acc   z-rot acc
    22626 -1.94585E-02-2.37150E-04-3.74304E-04-8.09359E-03 6.52994E-05 3.26802E-05-1.67592E-03 2.23642E-05 1.00761E-04



 n o d a l   p r i n t   o u t   f o r   t i m e  s t e p   19202                              ( at time 9.5995393E+00 )

 nodal point  x-disp     y-disp      z-disp      x-vel       y-vel       z-vel      x-accl      y-accl      z-accl      x-coor      y-coor      z-coor
    22626  6.34929E-03 2.89662E+00-4.12728E-01 1.09114E-02 1.14085E+00 2.66261E-01 1.67868E-02 1.86060E-01 2.48717E-01 4.66572E+00-2.52942E+01-4.53944E+01



 n o d a l   p r i n t   o u t   f o r   t i m e  s t e p   19202                              ( at time 9.5995393E+00 )

 nodal point  x-rot      y-rot       z-rot       x-rot vel   y-rot vel   z-rot vel   x-rot acc   y-rot acc   z-rot acc
    22626 -2.02762E-02-2.28647E-04-3.69620E-04-8.25612E-03 9.74746E-05 5.57177E-05-1.62544E-03 3.21781E-04 2.30397E-04



 n o d a l   p r i n t   o u t   f o r   t i m e  s t e p   19402                              ( at time 9.6995293E+00 )

 nodal point  x-disp     y-disp      z-disp      x-vel       y-vel       z-vel      x-accl      y-accl      z-accl      x-coor      y-coor      z-coor
    22626  7.50883E-03 3.01153E+00-3.84793E-01 1.25904E-02 1.15744E+00 2.92233E-01 1.67917E-02 1.65886E-01 2.59750E-01 4.66688E+00-2.51793E+01-4.53665E+01



 n o d a l   p r i n t   o u t   f o r   t i m e  s t e p   19402                              ( at time 9.6995293E+00 )

 nodal point  x-rot      y-rot       z-rot       x-rot vel   y-rot vel   z-rot vel   x-rot acc   y-rot acc   z-rot acc
    22626 -2.11100E-02-2.18406E-04-3.62539E-04-8.41796E-03 1.07024E-04 7.90126E-05-1.61851E-03 9.55083E-05 2.32972E-04



 n o d a l   p r i n t   o u t   f o r   t i m e  s t e p   19602                              ( at time 9.7995193E+00 )

 nodal point  x-disp     y-disp      z-disp      x-vel       y-vel       z-vel      x-accl      y-accl      z-accl      x-coor      y-coor      z-coor
    22626  8.79419E-03 3.12815E+00-3.54282E-01 1.32810E-02 1.17508E+00 3.18081E-01 6.90736E-03 1.76393E-01 2.58502E-01 4.66817E+00-2.50627E+01-4.53360E+01



 n o d a l   p r i n t   o u t   f o r   t i m e  s t e p   19602                              ( at time 9.7995193E+00 )

 nodal point  x-rot      y-rot       z-rot       x-rot vel   y-rot vel   z-rot vel   x-rot acc   y-rot acc   z-rot acc
    22626 -2.19599E-02-2.06453E-04-3.53743E-04-8.58262E-03 1.28612E-04 9.91587E-05-1.64686E-03 2.15893E-04 2.01482E-04



 n o d a l   p r i n t   o u t   f o r   t i m e  s t e p   19802                              ( at time 9.8995093E+00 )

 nodal point  x-disp     y-disp      z-disp      x-vel       y-vel       z-vel      x-accl      y-accl      z-accl      x-coor      y-coor      z-coor
    22626  1.02712E-02 3.24641E+00-3.21087E-01 1.59173E-02 1.19001E+00 3.46053E-01 2.63657E-02 1.49343E-01 2.79752E-01 4.66965E+00-2.49444E+01-4.53028E+01



 n o d a l   p r i n t   o u t   f o r   t i m e  s t e p   19802                              ( at time 9.8995093E+00 )

 nodal point  x-rot      y-rot       z-rot       x-rot vel   y-rot vel   z-rot vel   x-rot acc   y-rot acc   z-rot acc
    22626 -2.28260E-02-1.92046E-04-3.42970E-04-8.74153E-03 1.51442E-04 1.20030E-04-1.58920E-03 2.28324E-04 2.08731E-04



 n o d a l   p r i n t   o u t   f o r   t i m e  s t e p   20003                              ( at time 9.9999992E+00 )

 nodal point  x-disp     y-disp      z-disp      x-vel       y-vel       z-vel      x-accl      y-accl      z-accl      x-coor      y-coor      z-coor
[...]
    22626 -2.04753E-01 3.00228E-03 3.83900E-03-1.95114E-02 1.85057E-04 3.36318E-04-1.10651E-04 1.51264E-04-9.03664E-05



 n o d a l   p r i n t   o u t   f o r   t i m e  s t e p   45205                              ( at time 2.2599738E+01 )

 nodal point  x-disp     y-disp      z-disp      x-vel       y-vel       z-vel      x-accl      y-accl      z-accl      x-coor      y-coor      z-coor
    22626  6.52258E-01 2.14771E+01 1.80977E+01 4.90437E-02 1.79307E+00 8.78867E-01 5.87368E-03 2.00695E-02-1.03016E-01 5.31163E+00-6.71376E+00-2.68840E+01



 n o d a l   p r i n t   o u t   f o r   t i m e  s t e p   45205                              ( at time 2.2599738E+01 )

 nodal point  x-rot      y-rot       z-rot       x-rot vel   y-rot vel   z-rot vel   x-rot acc   y-rot acc   z-rot acc
    22626 -2.06705E-01 3.02213E-03 3.87329E-03-1.95380E-02 2.09622E-04 3.45511E-04-2.66364E-04 2.45675E-04 9.19419E-05



 n o d a l   p r i n t   o u t   f o r   t i m e  s t e p   45405                              ( at time 2.2699728E+01 )

 nodal point  x-disp     y-disp      z-disp      x-vel       y-vel       z-vel      x-accl      y-accl      z-accl      x-coor      y-coor      z-coor
    22626  6.57120E-01 2.16564E+01 1.81851E+01 4.81971E-02 1.79460E+00 8.68956E-01-8.46670E-03 1.52796E-02-9.91210E-02 5.31649E+00-6.53441E+00-2.67966E+01



 n o d a l   p r i n t   o u t   f o r   t i m e  s t e p   45405                              ( at time 2.2699728E+01 )

 nodal point  x-rot      y-rot       z-rot       x-rot vel   y-rot vel   z-rot vel   x-rot acc   y-rot acc   z-rot acc
    22626 -2.08660E-01 3.04376E-03 3.90810E-03-1.95620E-02 2.22642E-04 3.56736E-04-2.39525E-04 1.30217E-04 1.12267E-04



 n o d a l   p r i n t   o u t   f o r   t i m e  s t e p   45605                              ( at time 2.2799718E+01 )

 nodal point  x-disp     y-disp      z-disp      x-vel       y-vel       z-vel      x-accl      y-accl      z-accl      x-coor      y-coor      z-coor
    22626  6.61879E-01 2.18359E+01 1.82715E+01 4.69896E-02 1.79604E+00 8.60108E-01-1.20769E-02 1.44066E-02-8.84846E-02 5.32125E+00-6.35492E+00-2.67102E+01



 n o d a l   p r i n t   o u t   f o r   t i m e  s t e p   45605                              ( at time 2.2799718E+01 )

 nodal point  x-rot      y-rot       z-rot       x-rot vel   y-rot vel   z-rot vel   x-rot acc   y-rot acc   z-rot acc
    22626 -2.10617E-01 3.06589E-03 3.94287E-03-1.95734E-02 2.19791E-04 3.42867E-04-1.14656E-04-2.85180E-05-1.38704E-04



 n o d a l   p r i n t   o u t   f o r   t i m e  s t e p   45805                              ( at time 2.2899708E+01 )

 nodal point  x-disp     y-disp      z-disp      x-vel       y-vel       z-vel      x-accl      y-accl      z-accl      x-coor      y-coor      z-coor
    22626  6.66544E-01 2.20155E+01 1.83571E+01 4.69732E-02 1.79629E+00 8.51750E-01-1.63298E-04 2.53348E-03-8.35851E-02 5.32592E+00-6.17532E+00-2.66246E+01



 n o d a l   p r i n t   o u t   f o r   t i m e  s t e p   45805                              ( at time 2.2899708E+01 )

 nodal point  x-rot      y-rot       z-rot       x-rot vel   y-rot vel   z-rot vel   x-rot acc   y-rot acc   z-rot acc
    22626 -2.12575E-01 3.08813E-03 3.97710E-03-1.95986E-02 2.33233E-04 3.46442E-04-2.51746E-04 1.34431E-04 3.57475E-05



 n o d a l   p r i n t   o u t   f o r   t i m e  s t e p   46005                              ( at time 2.2999698E+01 )

 nodal point  x-disp     y-disp      z-disp      x-vel       y-vel       z-vel      x-accl      y-accl      z-accl      x-coor      y-coor      z-coor
    22626  6.71280E-01 2.21952E+01 1.84419E+01 4.71345E-02 1.79697E+00 8.45065E-01 1.61309E-03 6.83847E-03-6.68629E-02 5.33066E+00-5.99565E+00-2.65398E+01



 n o d a l   p r i n t   o u t   f o r   t i m e  s t e p   46005                              ( at time 2.2999698E+01 )

 nodal point  x-rot      y-rot       z-rot       x-rot vel   y-rot vel   z-rot vel   x-rot acc   y-rot acc   z-rot acc
    22626 -2.14534E-01 3.11317E-03 4.01259E-03-1.95984E-02 2.60059E-04 3.63472E-04 1.43437E-06 2.68284E-04 1.70321E-04



 n o d a l   p r i n t   o u t   f o r   t i m e  s t e p   46205                              ( at time 2.3099688E+01 )

 nodal point  x-disp     y-disp      z-disp      x-vel       y-vel       z-vel      x-accl      y-accl      z-accl      x-coor      y-coor      z-coor
    22626  6.75951E-01 2.23749E+01 1.85261E+01 4.64203E-02 1.79715E+00 8.39604E-01-7.14307E-03 1.75138E-03-5.46087E-02 5.33533E+00-5.81595E+00-2.64556E+01



 n o d a l   p r i n t   o u t   f o r   t i m e  s t e p   46205                              ( at time 2.3099688E+01 )

 nodal point  x-rot      y-rot       z-rot       x-rot vel   y-rot vel   z-rot vel   x-rot acc   y-rot acc   z-rot acc
    22626 -2.16494E-01 3.13754E-03 4.04746E-03-1.96118E-02 2.33018E-04 3.38869E-04-1.33548E-04-2.70434E-04-2.46061E-04



 n o d a l   p r i n t   o u t   f o r   t i m e  s t e p   46405                              ( at time 2.3199678E+01 )

 nodal point  x-disp     y-disp      z-disp      x-vel       y-vel       z-vel      x-accl      y-accl      z-accl      x-coor      y-coor      z-coor
    22626  6.80537E-01 2.25546E+01 1.86098E+01 4.54435E-02 1.79772E+00 8.35101E-01-9.76857E-03 5.73211E-03-4.50420E-02 5.33991E+00-5.63622E+00-2.63719E+01



 n o d a l   p r i n t   o u t   f o r   t i m e  s t e p   46405                              ( at time 2.3199678E+01 )

 nodal point  x-rot      y-rot       z-rot       x-rot vel   y-rot vel   z-rot vel   x-rot acc   y-rot acc   z-rot acc
    22626 -2.18455E-01 3.16125E-03 4.08131E-03-1.96088E-02 2.48040E-04 3.42832E-04 2.96374E-05 1.50229E-04 3.96337E-05



 n o d a l   p r i n t   o u t   f o r   t i m e  s t e p   46605                              ( at time 2.3299668E+01 )

 nodal point  x-disp     y-disp      z-disp      x-vel       y-vel       z-vel      x-accl      y-accl      z-accl      x-coor      y-coor      z-coor
    22626  6.85129E-01 2.27343E+01 1.86932E+01 4.66636E-02 1.79709E+00 8.32330E-01 1.22025E-02-6.29733E-03-2.77109E-02 5.34450E+00-5.45653E+00-2.62885E+01



 n o d a l   p r i n t   o u t   f o r   t i m e  s t e p   46605                              ( at time 2.3299668E+01 )

 nodal point  x-rot      y-rot       z-rot       x-rot vel   y-rot vel   z-rot vel   x-rot acc   y-rot acc   z-rot acc
    22626 -2.20415E-01 3.18663E-03 4.11549E-03-1.95974E-02 2.52719E-04 3.38909E-04 1.14603E-04 4.68036E-05-3.92366E-05



 n o d a l   p r i n t   o u t   f o r   t i m e  s t e p   46805                              ( at time 2.3399658E+01 )

 nodal point  x-disp     y-disp      z-disp      x-vel       y-vel       z-vel      x-accl      y-accl      z-accl      x-coor      y-coor      z-coor
    22626  6.89809E-01 2.29140E+01 1.87763E+01 4.62361E-02 1.79606E+00 8.30092E-01-4.27613E-03-1.03042E-02-2.23788E-02 5.34918E+00-5.27687E+00-2.62054E+01



 n o d a l   p r i n t   o u t   f o r   t i m e  s t e p   46805                              ( at time 2.3399658E+01 )

 nodal point  x-rot      y-rot       z-rot       x-rot vel   y-rot vel   z-rot vel   x-rot acc   y-rot acc   z-rot acc
    22626 -2.22375E-01 3.21210E-03 4.14909E-03-1.95956E-02 2.49483E-04 3.30863E-04 1.81438E-05-3.23658E-05-8.04591E-05



 n o d a l   p r i n t   o u t   f o r   t i m e  s t e p   47005                              ( at time 2.3499648E+01 )

 nodal point  x-disp     y-disp      z-disp      x-vel       y-vel       z-vel      x-accl      y-accl      z-accl      x-coor      y-coor      z-coor
    22626  6.94386E-01 2.30936E+01 1.88592E+01 4.58275E-02 1.79601E+00 8.28225E-01-4.08624E-03-5.60335E-04-1.86711E-02 5.35376E+00-5.09727E+00-2.61226E+01



 n o d a l   p r i n t   o u t   f o r   t i m e  s t e p   47005                              ( at time 2.3499648E+01 )

 nodal point  x-rot      y-rot       z-rot       x-rot vel   y-rot vel   z-rot vel   x-rot acc   y-rot acc   z-rot acc
    22626 -2.24333E-01 3.23601E-03 4.18218E-03-1.95798E-02 2.32076E-04 3.26447E-04 1.57278E-04-1.74085E-04-4.41732E-05



 n o d a l   p r i n t   o u t   f o r   t i m e  s t e p   47205                              ( at time 2.3599638E+01 )

 nodal point  x-disp     y-disp      z-disp      x-vel       y-vel       z-vel      x-accl      y-accl      z-accl      x-coor      y-coor      z-coor
    22626  6.98999E-01 2.32731E+01 1.89420E+01 4.68543E-02 1.79426E+00 8.29250E-01 1.02692E-02-1.74291E-02 1.02496E-02 5.35837E+00-4.91777E+00-2.60397E+01



 n o d a l   p r i n t   o u t   f o r   t i m e  s t e p   47205                              ( at time 2.3599638E+01 )

 nodal point  x-rot      y-rot       z-rot       x-rot vel   y-rot vel   z-rot vel   x-rot acc   y-rot acc   z-rot acc
    22626 -2.26290E-01 3.25913E-03 4.21419E-03-1.95662E-02 2.35053E-04 3.24701E-04 1.36752E-04 2.97657E-05-1.74599E-05



 n o d a l   p r i n t   o u t   f o r   t i m e  s t e p   47405                              ( at time 2.3699628E+01 )

 nodal point  x-disp     y-disp      z-disp      x-vel       y-vel       z-vel      x-accl      y-accl      z-accl      x-coor      y-coor      z-coor
    22626  7.03685E-01 2.34524E+01 1.90249E+01 4.65956E-02 1.79382E+00 8.28661E-01-2.58685E-03-4.40996E-03-5.89604E-03 5.36306E+00-4.73840E+00-2.59568E+01



 n o d a l   p r i n t   o u t   f o r   t i m e  s t e p   47405                              ( at time 2.3699628E+01 )

 nodal point  x-rot      y-rot       z-rot       x-rot vel   y-rot vel   z-rot vel   x-rot acc   y-rot acc   z-rot acc
    22626 -2.28244E-01 3.28389E-03 4.24713E-03-1.95408E-02 2.43201E-04 3.22953E-04 2.53529E-04 8.14889E-05-1.74758E-05



 n o d a l   p r i n t   o u t   f o r   t i m e  s t e p   47605                              ( at time 2.3799618E+01 )

 nodal point  x-disp     y-disp      z-disp      x-vel       y-vel       z-vel      x-accl      y-accl      z-accl      x-coor      y-coor      z-coor
    22626  7.08333E-01 2.36317E+01 1.91079E+01 4.66391E-02 1.79227E+00 8.31144E-01 4.34678E-04-1.54810E-02 2.48329E-02 5.36771E+00-4.55910E+00-2.58738E+01



 n o d a l   p r i n t   o u t   f o r   t i m e  s t e p   47605                              ( at time 2.3799618E+01 )

 nodal point  x-rot      y-rot       z-rot       x-rot vel   y-rot vel   z-rot vel   x-rot acc   y-rot acc   z-rot acc
    22626 -2.30196E-01 3.30670E-03 4.27927E-03-1.95055E-02 2.17169E-04 3.18203E-04 3.53681E-04-2.60344E-04-4.75053E-05



 n o d a l   p r i n t   o u t   f o r   t i m e  s t e p   47805                              ( at time 2.3899608E+01 )

 nodal point  x-disp     y-disp      z-disp      x-vel       y-vel       z-vel      x-accl      y-accl      z-accl      x-coor      y-coor      z-coor
    22626  7.12929E-01 2.38108E+01 1.91911E+01 4.53133E-02 1.78985E+00 8.32806E-01-1.32593E-02-2.42291E-02 1.66300E-02 5.37230E+00-4.38000E+00-2.57907E+01



 n o d a l   p r i n t   o u t   f o r   t i m e  s t e p   47805                              ( at time 2.3899608E+01 )

 nodal point  x-rot      y-rot       z-rot       x-rot vel   y-rot vel   z-rot vel   x-rot acc   y-rot acc   z-rot acc
    22626 -2.32145E-01 3.32804E-03 4.31084E-03-1.94703E-02 2.16522E-04 3.22906E-04 3.51122E-04-6.47285E-06 4.70271E-05



 n o d a l   p r i n t   o u t   f o r   t i m e  s t e p   48005                              ( at time 2.3999598E+01 )

 nodal point  x-disp     y-disp      z-disp      x-vel       y-vel       z-vel      x-accl      y-accl      z-accl      x-coor      y-coor      z-coor
    22626  7.17608E-01 2.39898E+01 1.92745E+01 4.79380E-02 1.78906E+00 8.36178E-01 2.62506E-02-7.88061E-03 3.37227E-02 5.37698E+00-4.20106E+00-2.57072E+01



 n o d a l   p r i n t   o u t   f o r   t i m e  s t e p   48005                              ( at time 2.3999598E+01 )

 nodal point  x-rot      y-rot       z-rot       x-rot vel   y-rot vel   z-rot vel   x-rot acc   y-rot acc   z-rot acc
    22626 -2.34089E-01 3.35008E-03 4.34263E-03-1.94261E-02 2.20590E-04 3.09269E-04 4.42446E-04 4.06816E-05-1.36377E-04



 n o d a l   p r i n t   o u t   f o r   t i m e  s t e p   48205                              ( at time 2.4099588E+01 )

 nodal point  x-disp     y-disp      z-disp      x-vel       y-vel       z-vel      x-accl      y-accl      z-accl      x-coor      y-coor      z-coor
    22626  7.22293E-01 2.41685E+01 1.93583E+01 4.61631E-02 1.78641E+00 8.40282E-01-1.77510E-02-2.64872E-02 4.10422E-02 5.38167E+00-4.02232E+00-2.56234E+01



 n o d a l   p r i n t   o u t   f o r   t i m e  s t e p   48205                              ( at time 2.4099588E+01 )

 nodal point  x-rot      y-rot       z-rot       x-rot vel   y-rot vel   z-rot vel   x-rot acc   y-rot acc   z-rot acc
    22626 -2.36030E-01 3.37129E-03 4.37427E-03-1.93948E-02 1.98706E-04 3.10402E-04 3.13363E-04-2.18852E-04 1.13274E-05



 n o d a l   p r i n t   o u t   f o r   t i m e  s t e p   48405                              ( at time 2.4199578E+01 )

 nodal point  x-disp     y-disp      z-disp      x-vel       y-vel       z-vel      x-accl      y-accl      z-accl      x-coor      y-coor      z-coor
    22626  7.26966E-01 2.43470E+01 1.94425E+01 4.66357E-02 1.78418E+00 8.44050E-01 4.72620E-03-2.23173E-02 3.76821E-02 5.38634E+00-3.84381E+00-2.55392E+01



 n o d a l   p r i n t   o u t   f o r   t i m e  s t e p   48405                              ( at time 2.4199578E+01 )

 nodal point  x-rot      y-rot       z-rot       x-rot vel   y-rot vel   z-rot vel   x-rot acc   y-rot acc   z-rot acc
    22626 -2.37966E-01 3.38899E-03 4.40411E-03-1.93290E-02 1.61965E-04 2.99971E-04 6.57475E-04-3.67455E-04-1.04327E-04



 n o d a l   p r i n t   o u t   f o r   t i m e  s t e p   48605                              ( at time 2.4299568E+01 )

 nodal point  x-disp     y-disp      z-disp      x-vel       y-vel       z-vel      x-accl      y-accl      z-accl      x-coor      y-coor      z-coor
    22626  7.31714E-01 2.45252E+01 1.95272E+01 4.83325E-02 1.78135E+00 8.49831E-01 1.69699E-02-2.82945E-02 5.78176E-02 5.39109E+00-3.66558E+00-2.54545E+01



 n o d a l   p r i n t   o u t   f o r   t i m e  s t e p   48605                              ( at time 2.4299568E+01 )

 nodal point  x-rot      y-rot       z-rot       x-rot vel   y-rot vel   z-rot vel   x-rot acc   y-rot acc   z-rot acc
    22626 -2.39897E-01 3.40578E-03 4.43389E-03-1.92814E-02 1.77793E-04 2.97073E-04 4.76192E-04 1.58291E-04-2.89796E-05



 n o d a l   p r i n t   o u t   f o r   t i m e  s t e p   48805                              ( at time 2.4399558E+01 )

 nodal point  x-disp     y-disp      z-disp      x-vel       y-vel       z-vel      x-accl      y-accl      z-accl      x-coor      y-coor      z-coor
    22626  7.36567E-01 2.47032E+01 1.96125E+01 4.85905E-02 1.77774E+00 8.56254E-01 2.57981E-03-3.61345E-02 6.42317E-02 5.39594E+00-3.48760E+00-2.53693E+01



 n o d a l   p r i n t   o u t   f o r   t i m e  s t e p   48805                              ( at time 2.4399558E+01 )

 nodal point  x-rot      y-rot       z-rot       x-rot vel   y-rot vel   z-rot vel   x-rot acc   y-rot acc   z-rot acc
    22626 -2.41824E-01 3.42247E-03 4.46423E-03-1.92428E-02 1.60861E-04 2.96139E-04 3.85733E-04-1.69331E-04-9.33562E-06



 n o d a l   p r i n t   o u t   f o r   t i m e  s t e p   49006                              ( at time 2.4500048E+01 )

 nodal point  x-disp     y-disp      z-disp      x-vel       y-vel       z-vel      x-accl      y-accl      z-accl      x-coor      y-coor      z-coor
    22626  7.41404E-01 2.48817E+01 1.96988E+01 4.73688E-02 1.77521E+00 8.62951E-01-1.21572E-02-2.52029E-02 6.66514E-02 5.40078E+00-3.30911E+00-2.52829E+01



 n o d a l   p r i n t   o u t   f o r   t i m e  s t e p   49006                              ( at time 2.4500048E+01 )

 nodal point  x-rot      y-rot       z-rot       x-rot vel   y-rot vel   z-rot vel   x-rot acc   y-rot acc   z-rot acc
    22626 -2.43755E-01 3.43735E-03 4.49320E-03-1.91871E-02 1.33353E-04 2.90211E-04 5.54334E-04-2.73746E-04-5.89974E-05



 n o d a l   p r i n t   o u t   f o r   t i m e  s t e p   49206                              ( at time 2.4600038E+01 )

 nodal point  x-disp     y-disp      z-disp      x-vel       y-vel       z-vel      x-accl      y-accl      z-accl      x-coor      y-coor      z-coor
    22626  7.46160E-01 2.50590E+01 1.97855E+01 4.86009E-02 1.77031E+00 8.70754E-01 1.23218E-02-4.90186E-02 7.80278E-02 5.40554E+00-3.13182E+00-2.51962E+01



 n o d a l   p r i n t   o u t   f o r   t i m e  s t e p   49206                              ( at time 2.4600038E+01 )

 nodal point  x-rot      y-rot       z-rot       x-rot vel   y-rot vel   z-rot vel   x-rot acc   y-rot acc   z-rot acc
    22626 -2.45670E-01 3.45203E-03 4.52261E-03-1.91445E-02 1.58985E-04 2.85871E-04 4.26175E-04 2.56349E-04-4.34054E-05



 n o d a l   p r i n t   o u t   f o r   t i m e  s t e p   49406                              ( at time 2.4700028E+01 )

 nodal point  x-disp     y-disp      z-disp      x-vel       y-vel       z-vel      x-accl      y-accl      z-accl      x-coor      y-coor      z-coor
    22626  7.50988E-01 2.52359E+01 1.98730E+01 4.82409E-02 1.76748E+00 8.78300E-01-3.60052E-03-2.82784E-02 7.54726E-02 5.41036E+00-2.95493E+00-2.51087E+01



 n o d a l   p r i n t   o u t   f o r   t i m e  s t e p   49406                              ( at time 2.4700028E+01 )

 nodal point  x-rot      y-rot       z-rot       x-rot vel   y-rot vel   z-rot vel   x-rot acc   y-rot acc   z-rot acc
    22626 -2.47581E-01 3.46866E-03 4.55227E-03-1.90911E-02 1.67675E-04 3.02110E-04 5.34638E-04 8.69065E-05 1.62416E-04



 n o d a l   p r i n t   o u t   f o r   t i m e  s t e p   49606                              ( at time 2.4800018E+01 )

 nodal point  x-disp     y-disp      z-disp      x-vel       y-vel       z-vel      x-accl      y-accl      z-accl      x-coor      y-coor      z-coor
    22626  7.55789E-01 2.54124E+01 1.99613E+01 4.66054E-02 1.76242E+00 8.87153E-01-1.63563E-02-5.05959E-02 8.85341E-02 5.41516E+00-2.77845E+00-2.50205E+01



 n o d a l   p r i n t   o u t   f o r   t i m e  s t e p   49606                              ( at time 2.4800018E+01 )

 nodal point  x-rot      y-rot       z-rot       x-rot vel   y-rot vel   z-rot vel   x-rot acc   y-rot acc   z-rot acc
    22626 -2.49487E-01 3.48538E-03 4.58211E-03-1.90264E-02 1.66206E-04 3.02076E-04 6.46341E-04-1.46925E-05-3.44039E-07



 n o d a l   p r i n t   o u t   f o r   t i m e  s t e p   49806                              ( at time 2.4900008E+01 )

 nodal point  x-disp     y-disp      z-disp      x-vel       y-vel       z-vel      x-accl      y-accl      z-accl      x-coor      y-coor      z-coor
    22626  7.60480E-01 2.55884E+01 2.00504E+01 4.74602E-02 1.75843E+00 8.96324E-01 8.54922E-03-3.98883E-02 9.17250E-02 5.41986E+00-2.60242E+00-2.49313E+01



 n o d a l   p r i n t   o u t   f o r   t i m e  s t e p   49806                              ( at time 2.4900008E+01 )

 nodal point  x-rot      y-rot       z-rot       x-rot vel   y-rot vel   z-rot vel   x-rot acc   y-rot acc   z-rot acc
    22626 -2.51386E-01 3.50161E-03 4.61157E-03-1.89582E-02 1.72416E-04 2.83844E-04 6.82623E-04 6.21057E-05-1.82338E-04



 n o d a l   p r i n t   o u t   f o r   t i m e  s t e p   50006                              ( at time 2.4999998E+01 )

 nodal point  x-disp     y-disp      z-disp      x-vel       y-vel       z-vel      x-accl      y-accl      z-accl      x-coor      y-coor      z-coor
    22626  7.65219E-01 2.57640E+01 2.01405E+01 4.77654E-02 1.75367E+00 9.05557E-01 3.05256E-03-4.76642E-02 9.23408E-02 5.42459E+00-2.42680E+00-2.48413E+01



 n o d a l   p r i n t   o u t   f o r   t i m e  s t e p   50006                              ( at time 2.4999998E+01 )

 nodal point  x-rot      y-rot       z-rot       x-rot vel   y-rot vel   z-rot vel   x-rot acc   y-rot acc   z-rot acc
    22626 -2.53280E-01 3.51869E-03 4.64112E-03-1.89050E-02 1.74923E-04 3.07895E-04 5.31797E-04 2.50718E-05 2.40533E-04
