 LSTC 50th% Full_FE H-III Dummy (Beta Version, February 17, 2019)        
                    ls-dyna smp s R16 R16.0_619_d222963 date 03/18/2025

{BEGIN LEGEND}
 Entity #        Title
        1     Upper_Neck_Force_INJURY                                              
{END LEGEND}



 line#1  section#     time        x-force     y-force     z-force    magnitude
 line#2  resultant  moments       x-moment    y-moment    z-moment   magnitude
 line#3  centroids                x           y           z            area  
           1    0.00000E+00     0.0000E+00  0.0000E+00  0.0000E+00  0.0000E+00
ac ID =   33377                 0.0000E+00  0.0000E+00  0.0000E+00  0.0000E+00
                               -3.7437E-01  1.0501E+01 -4.6940E+01  0.0000E+00

           1    1.00490E-01     1.3598E-04 -4.9878E-03  2.5982E-01  2.5987E-01
ac ID =   33377                 4.2550E-01 -1.2522E+00 -2.7105E-02  1.3228E+00
                               -3.7387E-01  1.0590E+01 -4.6886E+01  2.5147E+03

           1    2.00480E-01    -4.4360E-02  4.3378E-04  4.4147E-01  4.4369E-01
ac ID =   33377                 3.0784E-01 -1.5970E+00  2.1079E-02  1.6266E+00
                               -3.7386E-01  1.0591E+01 -4.6888E+01  2.5147E+03

           1    3.00470E-01     1.4699E-02 -3.1318E-03  2.1749E-01  2.1801E-01
ac ID =   33377                 2.8474E-02 -3.4043E-01  6.8983E-02  3.4852E-01
                               -3.7382E-01  1.0591E+01 -4.6889E+01  2.5147E+03

           1    4.00460E-01     2.8004E-03  1.0412E-02  8.8241E-02  8.8897E-02
ac ID =   33377                -5.0068E-01 -9.4654E-01  3.7193E-05  1.0708E+00
                               -3.7383E-01  1.0592E+01 -4.6890E+01  2.5147E+03

           1    5.00450E-01    -4.0699E-02  4.3072E-03  1.6176E-01  1.6685E-01
ac ID =   33377                -3.9537E-01 -1.5054E+00 -1.1024E-01  1.5603E+00
                               -3.7385E-01  1.0594E+01 -4.6893E+01  2.5147E+03

           1    6.00440E-01    -1.1873E-02  4.0435E-03  3.4411E-01  3.4434E-01
ac ID =   33377                 9.8424E-02 -1.3362E+00 -3.7780E-02  1.3403E+00
                               -3.7385E-01  1.0595E+01 -4.6897E+01  2.5147E+03

           1    7.00430E-01     1.5375E-03 -5.2051E-03  2.9724E-01  2.9729E-01
ac ID =   33377                 1.2503E-01 -5.4147E-01  9.0361E-02  5.6302E-01
                               -3.7389E-01  1.0597E+01 -4.6901E+01  2.5147E+03

           1    8.00420E-01    -3.0351E-02 -9.9294E-04  1.0251E-01  1.0691E-01
ac ID =   33377                 6.3373E-02 -1.0668E+00  4.4988E-02  1.0696E+00
                               -3.7393E-01  1.0599E+01 -4.6905E+01  2.5147E+03

           1    9.00410E-01    -3.9574E-02  7.8387E-04  6.4562E-02  7.5729E-02
ac ID =   33377                 8.9868E-02 -1.0849E+00 -9.9046E-03  1.0887E+00
                               -3.7397E-01  1.0601E+01 -4.6909E+01  2.5147E+03

           1    1.00040E+00     1.2878E-02 -2.8459E-03  2.2555E-01  2.2594E-01
ac ID =   33377                 3.2657E-01 -3.6333E-01 -5.5055E-02  4.9162E-01
                               -3.7397E-01  1.0604E+01 -4.6915E+01  2.5147E+03

           1    1.10039E+00     1.7136E-07 -1.6186E-03  2.7877E-01  2.7877E-01
ac ID =   33377                 2.9263E-01 -9.4239E-01 -6.0438E-02  9.8862E-01
                               -3.7395E-01  1.0607E+01 -4.6921E+01  2.5147E+03

           1    1.20038E+00    -3.1426E-02  1.7700E-03  1.3481E-01  1.3843E-01
ac ID =   33377                -1.8392E-01 -1.1695E+00  1.4963E-02  1.1839E+00
                               -3.7393E-01  1.0609E+01 -4.6926E+01  2.5147E+03

           1    1.30037E+00    -1.5944E-02  8.8795E-03  8.5237E-02  8.7169E-02
ac ID =   33377                -4.5407E-01 -1.1061E+00  1.6238E-03  1.1957E+00
                               -3.7389E-01  1.0612E+01 -4.6932E+01  2.5147E+03

           1    1.40036E+00     4.1647E-03  7.0759E-03  1.8733E-01  1.8751E-01
ac ID =   33377                -3.6187E-01 -1.0001E+00  7.6152E-02  1.0663E+00
                               -3.7382E-01  1.0615E+01 -4.6940E+01  2.5147E+03

           1    1.50035E+00    -2.6339E-02  2.0877E-03  3.4357E-01  3.4458E-01
ac ID =   33377                -6.0986E-02 -1.7307E+00 -2.1222E-02  1.7319E+00
                               -3.7375E-01  1.0619E+01 -4.6947E+01  2.5147E+03

           1    1.60034E+00    -1.9766E-02  6.2737E-03  2.3338E-01  2.3430E-01
ac ID =   33377                -2.3870E-01 -1.5016E+00  2.1299E-02  1.5206E+00
                               -3.7370E-01  1.0622E+01 -4.6955E+01  2.5147E+03

           1    1.70033E+00    -6.7042E-03  8.1026E-03  6.8131E-02  6.8938E-02
ac ID =   33377                -3.0817E-01 -7.4197E-01  1.2106E-01  8.1249E-01
                               -3.7361E-01  1.0626E+01 -4.6962E+01  2.5147E+03

           1    1.80032E+00    -2.0863E-02 -5.5091E-03  8.5842E-02  8.8513E-02
ac ID =   33377                 1.5687E-01 -1.2259E+00  6.7368E-02  1.2377E+00
                               -3.7348E-01  1.0629E+01 -4.6971E+01  2.5147E+03

           1    1.90031E+00    -1.3039E-02 -3.3761E-03  2.0088E-01  2.0134E-01
ac ID =   33377                 2.1563E-01 -1.0123E+00 -4.0384E-02  1.0358E+00
                               -3.7336E-01  1.0634E+01 -4.6980E+01  2.5147E+03

           1    2.00030E+00    -6.1112E-03  9.8709E-03  1.6536E-01  1.6577E-01
ac ID =   33377                -6.9872E-02 -6.9135E-01 -6.5778E-02  6.9797E-01
                               -3.7326E-01  1.0638E+01 -4.6989E+01  2.5147E+03

           1    2.10029E+00    -3.2587E-02  1.0301E-02  8.6256E-03  3.5248E-02
ac ID =   33377                -3.0760E-01 -1.0211E+00  6.6806E-02  1.0685E+00
                               -3.7307E-01  1.0642E+01 -4.6998E+01  2.5147E+03

           1    2.20028E+00    -2.7516E-02  3.6026E-03  1.8295E-02  3.3238E-02
ac ID =   33377                -3.6722E-01 -1.2148E+00  2.5726E-02  1.2694E+00
                               -3.7280E-01  1.0646E+01 -4.7007E+01  2.5147E+03

           1    2.30027E+00    -3.3449E-03  5.0277E-03  1.6385E-01  1.6397E-01
ac ID =   33377                -3.5230E-01 -1.1027E+00 -5.8782E-02  1.1591E+00
                               -3.7255E-01  1.0651E+01 -4.7018E+01  2.5147E+03

           1    2.40026E+00    -1.7893E-02 -1.8643E-05  1.9816E-01  1.9896E-01
ac ID =   33377                -3.8148E-01 -1.4697E+00  1.6254E-01  1.5271E+00
                               -3.7238E-01  1.0655E+01 -4.7028E+01  2.5147E+03

           1    2.50025E+00    -2.4528E-02  2.3388E-03  1.2974E-02  2.7847E-02
ac ID =   33377                -3.5170E-01 -1.1854E+00  8.9952E-02  1.2397E+00
                               -3.7226E-01  1.0659E+01 -4.7038E+01  2.5147E+03

           1    2.60024E+00    -1.4342E-02  1.6756E-03 -6.4282E-02  6.5884E-02
ac ID =   33377                -1.0391E-01 -5.0943E-01 -4.3163E-02  5.2171E-01
                               -3.7216E-01  1.0664E+01 -4.7048E+01  2.5147E+03

           1    2.70023E+00    -2.8555E-02  1.1803E-02  2.9922E-02  4.3012E-02
ac ID =   33377                -2.7700E-01 -7.8877E-01 -1.4757E-02  8.3612E-01
                               -3.7201E-01  1.0669E+01 -4.7059E+01  2.5147E+03

           1    2.80022E+00    -1.0444E-02  1.2377E-03  7.9196E-02  7.9892E-02
ac ID =   33377                 1.3356E-01 -7.7899E-01 -6.0213E-02  7.9264E-01
                               -3.7180E-01  1.0673E+01 -4.7070E+01  2.5147E+03

           1    2.90021E+00    -7.1455E-03 -6.7298E-03  6.2263E-04  9.8354E-03
ac ID =   33377                 6.4943E-02 -3.1551E-01 -1.1738E-01  3.4284E-01
                               -3.7156E-01  1.0677E+01 -4.7080E+01  2.5147E+03

           1    3.00020E+00    -1.1594E-02 -1.9903E-03 -7.2128E-02  7.3081E-02
ac ID =   33377                -4.3351E-01 -5.3176E-01 -1.2307E-01  6.9703E-01
                               -3.7132E-01  1.0682E+01 -4.7091E+01  2.5147E+03

           1    3.10019E+00    -1.3688E-02  7.4780E-03  7.5569E-03  1.7331E-02
ac ID =   33377                -5.2661E-01 -6.2349E-01 -1.4636E-01  8.2914E-01
                               -3.7113E-01  1.0686E+01 -4.7102E+01  2.5147E+03

           1    3.20018E+00    -4.0646E-03 -5.6971E-06  1.0375E-01  1.0383E-01
ac ID =   33377                -1.1253E-01 -9.5255E-01 -7.8313E-02  9.6237E-01
                               -3.7096E-01  1.0691E+01 -4.7114E+01  2.5147E+03

           1    3.30017E+00    -3.2919E-03  3.9429E-03  3.0310E-02  3.0742E-02
ac ID =   33377                -3.4322E-01 -7.0961E-01 -1.1927E-01  7.9723E-01
                               -3.7080E-01  1.0695E+01 -4.7125E+01  2.5147E+03

           1    3.40016E+00    -1.1598E-02  1.4263E-02 -9.2445E-02  9.4255E-02
ac ID =   33377                -5.3828E-01 -6.5202E-01  2.9920E-02  8.4603E-01
                               -3.7062E-01  1.0700E+01 -4.7136E+01  2.5147E+03

           1    3.50015E+00    -1.2820E-02  1.0569E-02 -1.1225E-01  1.1347E-01
ac ID =   33377                -4.0852E-01 -4.7856E-01  1.2048E-02  6.2933E-01
                               -3.7042E-01  1.0704E+01 -4.7148E+01  2.5147E+03

           1    3.60014E+00    -5.4339E-03 -4.0120E-03 -2.2007E-02  2.3020E-02
ac ID =   33377                 2.2703E-02  8.0707E-03 -2.0915E-01  2.1054E-01
                               -3.7014E-01  1.0708E+01 -4.7159E+01  2.5147E+03

           1    3.70013E+00     6.6110E-03 -4.5736E-03 -2.8713E-02  2.9817E-02
ac ID =   33377                 5.2968E-02  1.8671E-01 -2.4631E-01  3.1358E-01
                               -3.6991E-01  1.0713E+01 -4.7171E+01  2.5147E+03

           1    3.80012E+00    -1.4971E-02  4.9074E-03 -1.0869E-01  1.0983E-01
ac ID =   33377                -2.1465E-01  1.1707E-01  5.8068E-02  2.5130E-01
                               -3.6969E-01  1.0717E+01 -4.7182E+01  2.5147E+03

           1    3.90011E+00     1.6599E-02  1.1849E-02 -1.7925E-01  1.8041E-01
ac ID =   33377                -2.9662E-01  6.6356E-01  1.5180E-01  7.4253E-01
                               -3.6944E-01  1.0721E+01 -4.7193E+01  2.5147E+03

           1    4.00010E+00     3.6033E-03  1.9442E-04 -1.2742E-01  1.2747E-01
ac ID =   33377                -3.4539E-01  4.2003E-01 -1.2405E-02  5.4394E-01
                               -3.6911E-01  1.0725E+01 -4.7205E+01  2.5147E+03

           1    4.10009E+00     1.2559E-03 -9.2486E-04 -9.1405E-02  9.1419E-02
ac ID =   33377                -2.5678E-01  1.3412E-02 -4.3916E-02  2.6085E-01
                               -3.6876E-01  1.0729E+01 -4.7216E+01  2.5147E+03

           1    4.20008E+00     1.8835E-03 -4.8449E-03 -1.4637E-01  1.4646E-01
ac ID =   33377                -3.0229E-01  1.9255E-01 -9.5651E-02  3.7095E-01
                               -3.6851E-01  1.0733E+01 -4.7227E+01  2.5147E+03

           1    4.30007E+00     2.3153E-02 -2.2675E-03 -2.5509E-01  2.5615E-01
ac ID =   33377                -7.8473E-02  6.8353E-01  6.3015E-02  6.9090E-01
                               -3.6835E-01  1.0737E+01 -4.7238E+01  2.5147E+03

           1    4.40006E+00     2.6769E-02  2.0686E-03 -2.2953E-01  2.3110E-01
ac ID =   33377                -1.5691E-01  1.0451E+00  1.5089E-01  1.0676E+00
                               -3.6819E-01  1.0742E+01 -4.7249E+01  2.5147E+03

           1    4.50005E+00     1.2726E-02 -1.3396E-03 -1.3952E-01  1.4010E-01
ac ID =   33377                 1.3028E-01  6.1158E-01 -1.5527E-01  6.4430E-01
                               -3.6803E-01  1.0747E+01 -4.7260E+01  2.5147E+03

           1    4.60004E+00     3.9976E-02 -1.3994E-02 -1.9791E-01  2.0239E-01
ac ID =   33377                 1.9114E-01  1.2261E+00 -2.0061E-01  1.2570E+00
                               -3.6789E-01  1.0752E+01 -4.7271E+01  2.5147E+03

           1    4.70003E+00     4.0609E-02  1.7805E-03 -3.0242E-01  3.0514E-01
ac ID =   33377                -7.2429E-03  1.2194E+00 -2.4250E-01  1.2433E+00
                               -3.6776E-01  1.0757E+01 -4.7282E+01  2.5147E+03

           1    4.80002E+00     4.1845E-02  4.9701E-03 -3.3167E-01  3.3434E-01
ac ID =   33377                -3.6425E-01  9.1582E-01 -3.7303E-02  9.8630E-01
                               -3.6765E-01  1.0764E+01 -4.7293E+01  2.5147E+03

           1    4.90001E+00     5.0967E-02  7.6455E-03 -2.7672E-01  2.8147E-01
ac ID =   33377                -2.4720E-01  1.3003E+00 -4.5382E-02  1.3244E+00
                               -3.6754E-01  1.0772E+01 -4.7305E+01  2.5147E+03

           1    5.00000E+00     5.1641E-02  1.1436E-02 -2.6930E-01  2.7444E-01
ac ID =   33377                -6.5017E-01  1.2063E+00  1.4611E-01  1.3782E+00
                               -3.6734E-01  1.0780E+01 -4.7317E+01  2.5147E+03

           1    5.10049E+00     5.5916E-02  9.2687E-03 -3.7425E-01  3.7851E-01
ac ID =   33377                -6.2385E-01  1.5227E+00 -3.0241E-02  1.6458E+00
                               -3.6713E-01  1.0789E+01 -4.7329E+01  2.5147E+03

           1    5.20048E+00     7.0671E-02  1.1787E-02 -4.2170E-01  4.2775E-01
ac ID =   33377                -4.5753E-01  1.9795E+00 -8.2590E-03  2.0317E+00
                               -3.6691E-01  1.0800E+01 -4.7341E+01  2.5147E+03

           1    5.30047E+00     8.1496E-02  6.3855E-04 -4.0591E-01  4.1401E-01
ac ID =   33377                -3.0367E-01  2.1989E+00  8.1356E-02  2.2212E+00
                               -3.6664E-01  1.0812E+01 -4.7353E+01  2.5147E+03

           1    5.40046E+00     7.6234E-02  1.1621E-02 -3.9668E-01  4.0410E-01
ac ID =   33377                -2.9281E-01  2.1790E+00 -1.2505E-01  2.2022E+00
                               -3.6639E-01  1.0826E+01 -4.7366E+01  2.5147E+03

           1    5.50045E+00     8.9914E-02  1.7498E-03 -4.8809E-01  4.9631E-01
ac ID =   33377                -1.4197E-01  2.6150E+00 -1.1913E-01  2.6215E+00
                               -3.6606E-01  1.0841E+01 -4.7380E+01  2.5147E+03

           1    5.60044E+00     9.1283E-02  5.9447E-03 -5.8573E-01  5.9283E-01
ac ID =   33377                -3.8343E-01  2.8520E+00 -3.6211E-02  2.8779E+00
                               -3.6567E-01  1.0858E+01 -4.7393E+01  2.5147E+03

           1    5.70043E+00     8.7500E-02  4.6269E-03 -5.9829E-01  6.0467E-01
ac ID =   33377                -4.0651E-01  2.6021E+00  1.8656E-01  2.6403E+00
                               -3.6531E-01  1.0876E+01 -4.7407E+01  2.5147E+03

           1    5.80042E+00     1.0799E-01  1.0759E-02 -5.7279E-01  5.8298E-01
ac ID =   33377                -7.1157E-01  3.0199E+00  1.4593E-01  3.1061E+00
                               -3.6495E-01  1.0897E+01 -4.7422E+01  2.5147E+03

           1    5.90041E+00     1.1036E-01 -8.7027E-04 -5.9376E-01  6.0393E-01
ac ID =   33377                -5.1945E-01  3.0393E+00  5.6052E-02  3.0839E+00
                               -3.6460E-01  1.0919E+01 -4.7437E+01  2.5147E+03

           1    6.00040E+00     1.0711E-01  1.0612E-02 -6.6643E-01  6.7507E-01
ac ID =   33377                -7.1374E-01  3.2257E+00  3.7586E-01  3.3251E+00
                               -3.6428E-01  1.0944E+01 -4.7452E+01  2.5147E+03

           1    6.10039E+00     1.2080E-01  2.2856E-03 -6.8648E-01  6.9703E-01
ac ID =   33377                -4.0701E-01  3.3444E+00  2.4534E-01  3.3780E+00
                               -3.6401E-01  1.0970E+01 -4.7468E+01  2.5147E+03

           1    6.20038E+00     1.2128E-01  1.0327E-02 -6.8500E-01  6.9573E-01
ac ID =   33377                -6.3522E-01  3.1946E+00  1.9738E-01  3.2631E+00
                               -3.6374E-01  1.0999E+01 -4.7485E+01  2.5147E+03

           1    6.30037E+00     1.1748E-01 -1.7753E-03 -7.1028E-01  7.1994E-01
ac ID =   33377                -3.3661E-01  3.3612E+00 -1.4309E-01  3.3810E+00
                               -3.6345E-01  1.1030E+01 -4.7501E+01  2.5147E+03

           1    6.40036E+00     1.2039E-01  9.6648E-04 -8.0840E-01  8.1731E-01
ac ID =   33377                -4.2658E-01  3.4736E+00  8.5237E-02  3.5008E+00
                               -3.6319E-01  1.1063E+01 -4.7519E+01  2.5147E+03

           1    6.50035E+00     1.4255E-01  1.8242E-02 -8.7453E-01  8.8626E-01
ac ID =   33377                -8.3234E-01  4.3345E+00  4.0289E-02  4.4139E+00
                               -3.6292E-01  1.1098E+01 -4.7536E+01  2.5147E+03

           1    6.60034E+00     1.4477E-01  8.4773E-03 -8.7772E-01  8.8962E-01
ac ID =   33377                -8.0347E-01  4.2192E+00 -7.4353E-02  4.2956E+00
                               -3.6263E-01  1.1136E+01 -4.7555E+01  2.5147E+03

           1    6.70033E+00     1.3791E-01  5.8349E-03 -8.9078E-01  9.0141E-01
ac ID =   33377                -8.9085E-01  4.4820E+00 -5.5663E-02  4.5700E+00
                               -3.6233E-01  1.1176E+01 -4.7574E+01  2.5147E+03

           1    6.80032E+00     1.5834E-01  4.3728E-03 -9.5015E-01  9.6326E-01
ac ID =   33377                -8.3050E-01  4.6742E+00 -2.0262E-01  4.7518E+00
                               -3.6207E-01  1.1218E+01 -4.7593E+01  2.5147E+03

           1    6.90031E+00     1.5007E-01  1.7615E-02 -1.0284E+00  1.0394E+00
ac ID =   33377                -1.0758E+00  4.9681E+00 -1.5173E-02  5.0832E+00
                               -3.6185E-01  1.1263E+01 -4.7612E+01  2.5147E+03

           1    7.00030E+00     1.5540E-01  8.0793E-03 -1.0462E+00  1.0578E+00
ac ID =   33377                -9.2188E-01  4.9756E+00  2.2595E-01  5.0653E+00
                               -3.6161E-01  1.1311E+01 -4.7632E+01  2.5147E+03

           1    7.10029E+00     1.5763E-01  4.2638E-04 -1.0930E+00  1.1043E+00
ac ID =   33377                -3.9364E-01  5.0568E+00  1.2072E-02  5.0721E+00
                               -3.6135E-01  1.1361E+01 -4.7653E+01  2.5147E+03

           1    7.20028E+00     1.7078E-01  5.6354E-03 -1.1811E+00  1.1934E+00
ac ID =   33377                -9.3309E-01  5.5041E+00 -1.2071E-01  5.5839E+00
                               -3.6113E-01  1.1414E+01 -4.7673E+01  2.5147E+03

           1    7.30027E+00     1.7122E-01  1.5528E-02 -1.2608E+00  1.2725E+00
ac ID =   33377                -7.9271E-01  5.8835E+00 -1.4727E-01  5.9385E+00
                               -3.6097E-01  1.1469E+01 -4.7694E+01  2.5147E+03

           1    7.40026E+00     1.8627E-01 -8.1403E-04 -1.3249E+00  1.3379E+00
ac ID =   33377                -7.2461E-01  6.5131E+00  7.5181E-02  6.5537E+00
                               -3.6070E-01  1.1527E+01 -4.7714E+01  2.5147E+03

           1    7.50025E+00     2.0313E-01  2.2114E-03 -1.3470E+00  1.3622E+00
ac ID =   33377                -7.4271E-01  7.0455E+00  3.1450E-02  7.0846E+00
                               -3.6053E-01  1.1587E+01 -4.7735E+01  2.5147E+03

           1    7.60024E+00     1.9028E-01  1.5725E-02 -1.3870E+00  1.4000E+00
ac ID =   33377                -9.8422E-01  6.9124E+00 -3.3655E-02  6.9822E+00
                               -3.6036E-01  1.1650E+01 -4.7756E+01  2.5147E+03

           1    7.70023E+00     2.0571E-01 -2.6501E-04 -1.4416E+00  1.4562E+00
ac ID =   33377                -7.3078E-01  7.1868E+00 -6.5653E-02  7.2241E+00
                               -3.6014E-01  1.1715E+01 -4.7777E+01  2.5147E+03

           1    7.80022E+00     2.0588E-01  9.3598E-03 -1.4975E+00  1.5116E+00
ac ID =   33377                -7.8590E-01  7.2358E+00 -9.6378E-02  7.2790E+00
                               -3.5999E-01  1.1783E+01 -4.7798E+01  2.5147E+03

           1    7.90021E+00     2.0557E-01  4.4097E-03 -1.5430E+00  1.5566E+00
ac ID =   33377                -8.7226E-01  7.5314E+00 -5.3970E-02  7.5820E+00
                               -3.5982E-01  1.1854E+01 -4.7818E+01  2.5147E+03

           1    8.00020E+00     2.1698E-01  1.2287E-02 -1.6062E+00  1.6208E+00
ac ID =   33377                -8.3418E-01  7.9481E+00  5.8187E-02  7.9920E+00
                               -3.5967E-01  1.1927E+01 -4.7839E+01  2.5147E+03

           1    8.10019E+00     2.3212E-01 -1.2719E-03 -1.6868E+00  1.7027E+00
ac ID =   33377                -6.6693E-01  8.6417E+00 -2.3239E-02  8.6674E+00
                               -3.5949E-01  1.2003E+01 -4.7859E+01  2.5147E+03

           1    8.20018E+00     2.4422E-01  1.2897E-02 -1.7737E+00  1.7905E+00
ac ID =   33377                -7.8609E-01  9.2495E+00  5.0998E-02  9.2830E+00
                               -3.5934E-01  1.2082E+01 -4.7879E+01  2.5147E+03

           1    8.30017E+00     2.3873E-01  1.6610E-02 -1.8269E+00  1.8425E+00
ac ID =   33377                -1.0583E+00  9.4541E+00 -9.9093E-02  9.5137E+00
                               -3.5912E-01  1.2163E+01 -4.7899E+01  2.5147E+03

           1    8.40016E+00     2.6194E-01  4.4395E-03 -1.8704E+00  1.8887E+00
ac ID =   33377                -8.1877E-01  9.9991E+00 -1.8357E-01  1.0034E+01
                               -3.5887E-01  1.2247E+01 -4.7918E+01  2.5147E+03

           1    8.50015E+00     2.6379E-01  1.0972E-02 -1.9354E+00  1.9533E+00
ac ID =   33377                -9.9324E-01  1.0510E+01 -8.3983E-02  1.0557E+01
                               -3.5856E-01  1.2333E+01 -4.7936E+01  2.5147E+03

           1    8.60014E+00     2.5438E-01  6.8289E-03 -2.0241E+00  2.0401E+00
ac ID =   33377                -9.6455E-01  1.0572E+01 -2.3931E-02  1.0615E+01
                               -3.5826E-01  1.2421E+01 -4.7954E+01  2.5147E+03

           1    8.70013E+00     2.7264E-01  7.8280E-03 -2.0906E+00  2.1083E+00
ac ID =   33377                -8.9595E-01  1.1176E+01  1.0005E-01  1.1212E+01
                               -3.5793E-01  1.2513E+01 -4.7972E+01  2.5147E+03

           1    8.80012E+00     2.8391E-01  3.5871E-03 -2.1643E+00  2.1828E+00
ac ID =   33377                -8.7262E-01  1.1478E+01 -1.0993E-01  1.1512E+01
                               -3.5757E-01  1.2606E+01 -4.7988E+01  2.5147E+03

           1    8.90011E+00     2.7655E-01  1.2124E-02 -2.2190E+00  2.2362E+00
ac ID =   33377                -1.0198E+00  1.1787E+01 -1.0844E-01  1.1832E+01
                               -3.5716E-01  1.2703E+01 -4.8004E+01  2.5147E+03

           1    9.00010E+00     2.9107E-01  4.9327E-03 -2.2919E+00  2.3103E+00
ac ID =   33377                -6.8170E-01  1.2317E+01  5.2277E-02  1.2336E+01
                               -3.5668E-01  1.2801E+01 -4.8018E+01  2.5147E+03

           1    9.10009E+00     3.1187E-01  2.1887E-03 -2.3615E+00  2.3820E+00
ac ID =   33377                -6.9913E-01  1.3030E+01  1.1753E-03  1.3049E+01
                               -3.5613E-01  1.2902E+01 -4.8032E+01  2.5147E+03

           1    9.20008E+00     3.0518E-01 -1.4321E-04 -2.4176E+00  2.4368E+00
ac ID =   33377                -5.9719E-01  1.3078E+01  3.0179E-02  1.3092E+01
                               -3.5561E-01  1.3005E+01 -4.8044E+01  2.5147E+03

           1    9.30007E+00     3.0050E-01  1.1893E-02 -2.4624E+00  2.4807E+00
ac ID =   33377                -7.6269E-01  1.3182E+01  3.7667E-02  1.3204E+01
                               -3.5503E-01  1.3110E+01 -4.8055E+01  2.5147E+03

           1    9.40006E+00     3.2147E-01  7.7466E-03 -2.5258E+00  2.5462E+00
ac ID =   33377                -7.1589E-01  1.3806E+01 -9.3438E-02  1.3825E+01
                               -3.5436E-01  1.3217E+01 -4.8065E+01  2.5147E+03

           1    9.50005E+00     3.0878E-01 -2.8701E-04 -2.5748E+00  2.5932E+00
ac ID =   33377                -6.3669E-01  1.3917E+01 -3.1930E-02  1.3932E+01
                               -3.5361E-01  1.3326E+01 -4.8073E+01  2.5147E+03

           1    9.60004E+00     3.1809E-01  6.6645E-03 -2.6304E+00  2.6496E+00
ac ID =   33377                -5.8157E-01  1.4335E+01 -4.3429E-03  1.4347E+01
                               -3.5281E-01  1.3437E+01 -4.8079E+01  2.5147E+03

           1    9.70003E+00     3.2411E-01 -6.6214E-04 -2.6713E+00  2.6909E+00
ac ID =   33377                -7.8850E-01  1.4837E+01  1.2191E-01  1.4858E+01
                               -3.5193E-01  1.3550E+01 -4.8083E+01  2.5147E+03

           1    9.80002E+00     3.3587E-01  6.2021E-03 -2.7092E+00  2.7299E+00
ac ID =   33377                -4.0821E-01  1.4988E+01  6.2388E-02  1.4994E+01
                               -3.5104E-01  1.3664E+01 -4.8085E+01  2.5147E+03

           1    9.90001E+00     3.3919E-01  3.2428E-03 -2.7688E+00  2.7895E+00
ac ID =   33377                -7.3420E-01  1.5620E+01  1.2954E-01  1.5638E+01
                               -3.5001E-01  1.3780E+01 -4.8086E+01  2.5147E+03

           1    1.00005E+01     3.4291E-01  1.2016E-02 -2.8341E+00  2.8548E+00
ac ID =   33377                -7.9826E-01  1.5895E+01  1.8408E-01  1.5916E+01
                               -3.4890E-01  1.3897E+01 -4.8083E+01  2.5147E+03

           1    1.01005E+01     3.5666E-01  2.0088E-03 -2.9022E+00  2.9240E+00
ac ID =   33377                -8.2786E-01  1.6748E+01  2.8651E-01  1.6771E+01
                               -3.4765E-01  1.4016E+01 -4.8079E+01  2.5147E+03

           1    1.02005E+01     3.4917E-01 -2.1501E-03 -2.9395E+00  2.9601E+00
ac ID =   33377                -5.1352E-01  1.6806E+01  3.8026E-01  1.6818E+01
                               -3.4631E-01  1.4135E+01 -4.8072E+01  2.5147E+03

           1    1.03005E+01     3.5485E-01  6.9277E-04 -2.9962E+00  3.0171E+00
ac ID =   33377                -7.6056E-01  1.7234E+01  3.4354E-01  1.7255E+01
                               -3.4495E-01  1.4256E+01 -4.8062E+01  2.5147E+03

           1    1.04005E+01     3.5503E-01  4.7608E-03 -3.0471E+00  3.0677E+00
ac ID =   33377                -7.6499E-01  1.7504E+01  2.9402E-01  1.7523E+01
                               -3.4353E-01  1.4378E+01 -4.8050E+01  2.5147E+03

           1    1.05004E+01     3.7211E-01  2.9568E-03 -3.0650E+00  3.0876E+00
ac ID =   33377                -4.6416E-01  1.7686E+01  1.5075E-01  1.7693E+01
                               -3.4200E-01  1.4500E+01 -4.8034E+01  2.5147E+03

           1    1.06004E+01     3.8090E-01  1.0459E-03 -3.1102E+00  3.1334E+00
ac ID =   33377                -5.7889E-01  1.8227E+01  1.0195E-01  1.8237E+01
                               -3.4036E-01  1.4624E+01 -4.8016E+01  2.5147E+03

           1    1.07004E+01     3.8066E-01  1.2099E-02 -3.1366E+00  3.1596E+00
ac ID =   33377                -6.0588E-01  1.8328E+01  1.7866E-01  1.8339E+01
                               -3.3864E-01  1.4748E+01 -4.7995E+01  2.5147E+03

           1    1.08004E+01     3.8266E-01 -3.1904E-03 -3.1808E+00  3.2037E+00
ac ID =   33377                -6.5363E-01  1.8670E+01  2.2252E-01  1.8683E+01
                               -3.3674E-01  1.4873E+01 -4.7970E+01  2.5147E+03

           1    1.09004E+01     4.0435E-01  1.3562E-02 -3.2296E+00  3.2548E+00
ac ID =   33377                -7.8856E-01  1.9177E+01  4.5200E-02  1.9193E+01
                               -3.3485E-01  1.4999E+01 -4.7943E+01  2.5147E+03

           1    1.10004E+01     3.9263E-01  6.6786E-04 -3.2488E+00  3.2724E+00
ac ID =   33377                -8.0011E-01  1.9429E+01  1.9156E-01  1.9446E+01
                               -3.3282E-01  1.5126E+01 -4.7913E+01  2.5147E+03

           1    1.11004E+01     4.0503E-01  2.0257E-02 -3.2773E+00  3.3023E+00
ac ID =   33377                -8.7531E-01  2.0063E+01  2.3636E-01  2.0083E+01
                               -3.3072E-01  1.5253E+01 -4.7879E+01  2.5147E+03

           1    1.12004E+01     4.1089E-01 -2.5102E-03 -3.2811E+00  3.3068E+00
ac ID =   33377                -5.0250E-01  2.0383E+01 -3.6429E-02  2.0390E+01
                               -3.2850E-01  1.5381E+01 -4.7843E+01  2.5147E+03

           1    1.13004E+01     4.2146E-01  1.1228E-02 -3.2913E+00  3.3181E+00
ac ID =   33377                -4.7767E-01  2.0794E+01 -3.1536E-01  2.0802E+01
                               -3.2622E-01  1.5509E+01 -4.7803E+01  2.5147E+03

           1    1.14004E+01     4.1102E-01  1.1900E-02 -3.2981E+00  3.3237E+00
ac ID =   33377                -5.5076E-01  2.0612E+01 -4.9943E-01  2.0625E+01
                               -3.2383E-01  1.5638E+01 -4.7759E+01  2.5147E+03

           1    1.15003E+01     4.1925E-01  6.9053E-03 -3.2855E+00  3.3122E+00
ac ID =   33377                -4.7366E-01  2.0633E+01  1.8097E-02  2.0639E+01
                               -3.2136E-01  1.5768E+01 -4.7713E+01  2.5147E+03

           1    1.16003E+01     4.3202E-01  3.0876E-04 -3.3053E+00  3.3335E+00
ac ID =   33377                -5.9682E-01  2.1367E+01  1.5463E-01  2.1376E+01
                               -3.1879E-01  1.5897E+01 -4.7663E+01  2.5147E+03

           1    1.17003E+01     4.2139E-01  3.3884E-03 -3.3301E+00  3.3567E+00
ac ID =   33377                -7.6584E-01  2.1407E+01  2.4187E-01  2.1422E+01
                               -3.1613E-01  1.6027E+01 -4.7610E+01  2.5147E+03

           1    1.18003E+01     4.3273E-01  6.4215E-03 -3.3450E+00  3.3729E+00
ac ID =   33377                -8.2803E-01  2.1903E+01 -1.0407E-01  2.1919E+01
                               -3.1347E-01  1.6158E+01 -4.7554E+01  2.5147E+03

           1    1.19003E+01     4.5183E-01  9.5775E-03 -3.3526E+00  3.3829E+00
ac ID =   33377                -8.6812E-01  2.2474E+01 -3.8854E-01  2.2494E+01
                               -3.1074E-01  1.6289E+01 -4.7495E+01  2.5147E+03

           1    1.20003E+01     4.4148E-01  1.2196E-02 -3.3256E+00  3.3548E+00
ac ID =   33377                -9.0272E-01  2.2466E+01 -2.8687E-01  2.2486E+01
                               -3.0790E-01  1.6420E+01 -4.7432E+01  2.5147E+03

           1    1.21003E+01     4.3428E-01  6.2556E-03 -3.3177E+00  3.3460E+00
ac ID =   33377                -4.9277E-01  2.2449E+01 -2.7925E-01  2.2456E+01
                               -3.0504E-01  1.6551E+01 -4.7365E+01  2.5147E+03

           1    1.22003E+01     4.4212E-01  1.2911E-02 -3.2896E+00  3.3193E+00
ac ID =   33377                -3.8719E-01  2.2583E+01 -1.6589E-01  2.2587E+01
                               -3.0209E-01  1.6682E+01 -4.7296E+01  2.5147E+03

           1    1.23003E+01     4.5112E-01  6.9040E-03 -3.2472E+00  3.2784E+00
ac ID =   33377                -2.2476E-01  2.2483E+01 -1.8680E-01  2.2485E+01
                               -2.9904E-01  1.6814E+01 -4.7223E+01  2.5147E+03

           1    1.24003E+01     4.4189E-01  1.4489E-02 -3.2201E+00  3.2503E+00
ac ID =   33377                -7.9836E-01  2.1968E+01  4.2122E-02  2.1982E+01
                               -2.9590E-01  1.6946E+01 -4.7146E+01  2.5147E+03

           1    1.25002E+01     4.6068E-01 -2.1524E-03 -3.2158E+00  3.2486E+00
ac ID =   33377                -3.6763E-01  2.2372E+01  1.2673E-01  2.2376E+01
                               -2.9273E-01  1.7077E+01 -4.7067E+01  2.5147E+03

           1    1.26002E+01     4.1443E-01 -8.3496E-03 -3.1194E+00  3.1469E+00
ac ID =   33377                -3.3099E-01  2.1879E+01  1.3537E-01  2.1882E+01
                               -2.8949E-01  1.7209E+01 -4.6984E+01  2.5147E+03

           1    1.27002E+01     4.1133E-01 -1.4844E-02 -3.0031E+00  3.0311E+00
ac ID =   33377                -1.0660E-01  2.1080E+01 -1.2081E-02  2.1080E+01
                               -2.8635E-01  1.7340E+01 -4.6897E+01  2.5147E+03

           1    1.28002E+01     4.2752E-01  2.3355E-02 -3.0175E+00  3.0477E+00
ac ID =   33377                -4.6355E-01  2.2174E+01 -5.7032E-01  2.2186E+01
                               -2.8328E-01  1.7471E+01 -4.6807E+01  2.5147E+03

           1    1.29002E+01     4.0936E-01  1.6486E-02 -2.9523E+00  2.9806E+00
ac ID =   33377                -6.0381E-01  2.1018E+01 -4.4688E-01  2.1031E+01
                               -2.8004E-01  1.7600E+01 -4.6712E+01  2.5147E+03

           1    1.30002E+01     3.9310E-01 -1.1865E-02 -2.8912E+00  2.9178E+00
ac ID =   33377                 3.9331E-01  2.0273E+01  8.7555E-02  2.0277E+01
                               -2.7677E-01  1.7729E+01 -4.6614E+01  2.5147E+03

           1    1.31002E+01     3.8264E-01  1.7860E-02 -2.7712E+00  2.7975E+00
ac ID =   33377                -3.1152E-01  2.0647E+01  3.9544E-01  2.0653E+01
                               -2.7350E-01  1.7856E+01 -4.6512E+01  2.5147E+03

           1    1.32002E+01     3.8985E-01  6.6448E-03 -2.7035E+00  2.7315E+00
ac ID =   33377                -1.0986E-01  1.9711E+01  1.1715E-02  1.9711E+01
                               -2.7017E-01  1.7983E+01 -4.6406E+01  2.5147E+03

           1    1.33002E+01     4.0674E-01  8.4913E-03 -2.7300E+00  2.7602E+00
ac ID =   33377                -3.8367E-01  2.0635E+01 -7.8200E-01  2.0654E+01
                               -2.6679E-01  1.8109E+01 -4.6297E+01  2.5147E+03

           1    1.34002E+01     3.6754E-01  1.7153E-03 -2.6291E+00  2.6546E+00
ac ID =   33377                -5.6864E-01  1.8987E+01 -7.4242E-01  1.9010E+01
                               -2.6331E-01  1.8233E+01 -4.6184E+01  2.5147E+03

           1    1.35001E+01     3.9363E-01  1.7976E-02 -2.5481E+00  2.5784E+00
ac ID =   33377                -1.5812E-01  1.9726E+01 -4.6106E-01  1.9732E+01
                               -2.5987E-01  1.8358E+01 -4.6068E+01  2.5147E+03

           1    1.36001E+01     3.8113E-01  8.1755E-03 -2.4547E+00  2.4841E+00
ac ID =   33377                -3.6748E-01  1.8510E+01  2.9621E-01  1.8516E+01
                               -2.5626E-01  1.8481E+01 -4.5948E+01  2.5147E+03

           1    1.37001E+01     3.7310E-01  1.2892E-02 -2.4392E+00  2.4676E+00
ac ID =   33377                 1.1732E-01  1.8038E+01 -6.9515E-02  1.8038E+01
                               -2.5267E-01  1.8603E+01 -4.5825E+01  2.5147E+03

           1    1.38001E+01     3.3952E-01 -5.5386E-03 -2.3614E+00  2.3857E+00
ac ID =   33377                -2.7665E-01  1.7530E+01 -3.8369E-02  1.7532E+01
                               -2.4893E-01  1.8725E+01 -4.5700E+01  2.5147E+03

           1    1.39001E+01     3.9390E-01  9.4326E-03 -2.2735E+00  2.3074E+00
ac ID =   33377                 4.2483E-01  1.7433E+01 -1.6903E-01  1.7439E+01
                               -2.4521E-01  1.8846E+01 -4.5571E+01  2.5147E+03

           1    1.40001E+01     3.4626E-01  6.5388E-03 -2.1928E+00  2.2200E+00
ac ID =   33377                 2.4163E-02  1.7012E+01  1.7321E-01  1.7013E+01
                               -2.4143E-01  1.8968E+01 -4.5440E+01  2.5147E+03

           1    1.41001E+01     3.4878E-01  1.1810E-02 -2.0642E+00  2.0935E+00
ac ID =   33377                 1.0314E-01  1.5442E+01  1.4983E-01  1.5443E+01
                               -2.3755E-01  1.9088E+01 -4.5306E+01  2.5147E+03

           1    1.42001E+01     3.6669E-01 -1.0512E-02 -2.0496E+00  2.0821E+00
ac ID =   33377                 2.9912E-02  1.6070E+01 -6.5532E-01  1.6083E+01
                               -2.3370E-01  1.9208E+01 -4.5170E+01  2.5147E+03

           1    1.43001E+01     3.5858E-01  1.1201E-02 -1.9321E+00  1.9652E+00
ac ID =   33377                -1.7603E-01  1.4665E+01  3.9821E-01  1.4671E+01
                               -2.2984E-01  1.9327E+01 -4.5031E+01  2.5147E+03

           1    1.44001E+01     3.1768E-01 -3.5629E-04 -1.7965E+00  1.8244E+00
ac ID =   33377                 2.9202E-01  1.3382E+01  2.4781E-01  1.3388E+01
                               -2.2590E-01  1.9447E+01 -4.4891E+01  2.5147E+03

           1    1.45000E+01     3.4193E-01  1.7340E-03 -1.7373E+00  1.7706E+00
ac ID =   33377                 1.2879E-01  1.3124E+01 -5.3265E-02  1.3125E+01
                               -2.2199E-01  1.9567E+01 -4.4748E+01  2.5147E+03

           1    1.46000E+01     3.4162E-01 -2.0412E-03 -1.6681E+00  1.7027E+00
ac ID =   33377                 4.2757E-01  1.2296E+01 -1.7725E-02  1.2304E+01
                               -2.1818E-01  1.9686E+01 -4.4604E+01  2.5147E+03

           1    1.47000E+01     2.8860E-01 -5.6903E-03 -1.5761E+00  1.6023E+00
ac ID =   33377                 2.6919E-01  1.1038E+01  2.1099E-01  1.1044E+01
                               -2.1420E-01  1.9806E+01 -4.4459E+01  2.5147E+03

           1    1.48005E+01     3.0130E-01  2.0185E-02 -1.4934E+00  1.5236E+00
ac ID =   33377                 3.5100E-01  1.0567E+01  5.4309E-01  1.0587E+01
                               -2.1029E-01  1.9927E+01 -4.4311E+01  2.5147E+03

           1    1.49005E+01     2.9320E-01 -1.5827E-02 -1.3620E+00  1.3933E+00
ac ID =   33377                 9.8774E-01  1.0348E+01  5.0578E-01  1.0407E+01
                               -2.0633E-01  2.0047E+01 -4.4163E+01  2.5147E+03

           1    1.50005E+01     2.7568E-01 -1.5014E-03 -1.3051E+00  1.3339E+00
ac ID =   33377                 4.3196E-01  9.4074E+00 -3.5673E-01  9.4240E+00
                               -2.0235E-01  2.0168E+01 -4.4014E+01  2.5147E+03

           1    1.51005E+01     2.5769E-01  1.9318E-02 -1.2492E+00  1.2757E+00
ac ID =   33377                 1.6606E-02  9.0360E+00 -5.6543E-01  9.0537E+00
                               -1.9839E-01  2.0288E+01 -4.3864E+01  2.5147E+03

           1    1.52005E+01     2.6274E-01  1.0105E-02 -1.1002E+00  1.1311E+00
ac ID =   33377                 2.3984E-01  8.6275E+00  1.4946E-01  8.6322E+00
                               -1.9432E-01  2.0410E+01 -4.3713E+01  2.5147E+03

           1    1.53005E+01     2.3838E-01 -6.7754E-03 -1.0081E+00  1.0360E+00
ac ID =   33377                 8.7728E-01  7.6796E+00  2.2425E-01  7.7328E+00
                               -1.9023E-01  2.0532E+01 -4.3561E+01  2.5147E+03

           1    1.54005E+01     2.2077E-01  1.6820E-02 -9.5645E-01  9.8174E-01
ac ID =   33377                -2.0610E-02  6.8025E+00 -1.4186E-01  6.8040E+00
                               -1.8611E-01  2.0654E+01 -4.3409E+01  2.5147E+03

           1    1.55004E+01     2.3130E-01  1.3809E-02 -8.8951E-01  9.1919E-01
ac ID =   33377                 1.7075E-01  6.5982E+00 -8.5313E-01  6.6553E+00
                               -1.8196E-01  2.0777E+01 -4.3256E+01  2.5147E+03

           1    1.56004E+01     1.7520E-01 -1.3068E-02 -7.8337E-01  8.0283E-01
ac ID =   33377                 1.0623E+00  4.9918E+00 -1.1059E-02  5.1036E+00
                               -1.7776E-01  2.0900E+01 -4.3103E+01  2.5147E+03

           1    1.57004E+01     1.7631E-01 -5.6950E-03 -6.4689E-01  6.7051E-01
ac ID =   33377                 8.1891E-01  4.3376E+00  4.1893E-01  4.4341E+00
                               -1.7351E-01  2.1024E+01 -4.2950E+01  2.5147E+03

           1    1.58004E+01     1.8229E-01  1.4216E-02 -5.9601E-01  6.2342E-01
ac ID =   33377                 3.5112E-01  4.5627E+00  2.1060E-01  4.5810E+00
                               -1.6933E-01  2.1148E+01 -4.2796E+01  2.5147E+03

           1    1.59004E+01     1.4442E-01  7.7240E-03 -4.9414E-01  5.1487E-01
ac ID =   33377                 4.5068E-01  3.3761E+00  3.9781E-01  3.4292E+00
                               -1.6508E-01  2.1272E+01 -4.2643E+01  2.5147E+03

           1    1.60004E+01     1.4622E-01 -3.8374E-02 -4.1336E-01  4.4013E-01
ac ID =   33377                 1.4283E+00  3.1892E+00  2.7871E-02  3.4945E+00
                               -1.6082E-01  2.1398E+01 -4.2489E+01  2.5147E+03

           1    1.61004E+01     1.8066E-01  2.7423E-02 -2.8248E-01  3.3643E-01
ac ID =   33377                -3.7496E-01  4.2871E+00  5.2622E-01  4.3356E+00
                               -1.5655E-01  2.1523E+01 -4.2336E+01  2.5147E+03

           1    1.62004E+01     1.2396E-01  7.0256E-03 -1.9703E-01  2.3288E-01
ac ID =   33377                 2.7236E-02  3.7993E+00  4.5265E-01  3.8263E+00
                               -1.5231E-01  2.1650E+01 -4.2183E+01  2.5147E+03

           1    1.63004E+01     1.6197E-01 -1.5737E-02 -1.8441E-01  2.4595E-01
ac ID =   33377                 6.9967E-01  5.5120E+00  2.1349E-01  5.5603E+00
                               -1.4806E-01  2.1776E+01 -4.2030E+01  2.5147E+03

           1    1.64004E+01     1.7026E-01 -4.9916E-03 -1.0707E-01  2.0119E-01
ac ID =   33377                 4.2063E-01  5.9506E+00  2.8286E-01  5.9721E+00
                               -1.4380E-01  2.1903E+01 -4.1878E+01  2.5147E+03

           1    1.65003E+01     1.3003E-01  3.3057E-02  9.6237E-03  1.3451E-01
ac ID =   33377                -1.3343E-01  5.5929E+00  4.3124E-02  5.5946E+00
                               -1.3962E-01  2.2031E+01 -4.1727E+01  2.5147E+03

           1    1.66003E+01     1.5464E-01 -1.9178E-02  7.7390E-02  1.7399E-01
ac ID =   33377                 1.2007E+00  5.9804E+00 -2.3037E-01  6.1041E+00
                               -1.3534E-01  2.2159E+01 -4.1577E+01  2.5147E+03

           1    1.67003E+01     1.6019E-01 -1.2044E-02  1.1860E-01  1.9968E-01
ac ID =   33377                 1.2217E+00  6.7126E+00 -3.4226E-01  6.8314E+00
                               -1.3105E-01  2.2287E+01 -4.1427E+01  2.5147E+03

           1    1.68003E+01     1.4393E-01  1.2774E-02  1.9445E-01  2.4226E-01
ac ID =   33377                 3.6098E-01  7.0981E+00 -4.4545E-02  7.1074E+00
                               -1.2678E-01  2.2415E+01 -4.1279E+01  2.5147E+03

           1    1.69003E+01     1.5835E-01  2.1689E-02  2.6302E-01  3.0778E-01
ac ID =   33377                 3.2848E-01  7.5072E+00 -7.9939E-02  7.5148E+00
                               -1.2254E-01  2.2544E+01 -4.1132E+01  2.5147E+03

           1    1.70003E+01     1.6216E-01 -1.4250E-02  3.7323E-01  4.0718E-01
ac ID =   33377                 8.8105E-01  8.1138E+00 -2.3926E-01  8.1650E+00
                               -1.1815E-01  2.2673E+01 -4.0987E+01  2.5147E+03

           1    1.71003E+01     1.6547E-01 -3.5497E-03  4.0928E-01  4.4148E-01
ac ID =   33377                 3.0511E-01  7.6270E+00 -6.1017E-01  7.6574E+00
                               -1.1382E-01  2.2803E+01 -4.0843E+01  2.5147E+03

           1    1.72003E+01     1.2189E-01  3.1859E-02  4.3049E-01  4.4854E-01
ac ID =   33377                -1.6267E-01  7.3802E+00 -4.1971E-01  7.3939E+00
                               -1.0962E-01  2.2933E+01 -4.0700E+01  2.5147E+03

           1    1.73003E+01     1.5555E-01  7.6292E-04  5.2792E-01  5.5036E-01
ac ID =   33377                 3.9325E-01  7.2361E+00  5.3771E-01  7.2667E+00
                               -1.0526E-01  2.3063E+01 -4.0560E+01  2.5147E+03

           1    1.74003E+01     1.5739E-01 -2.3938E-02  5.9646E-01  6.1735E-01
ac ID =   33377                 1.5333E+00  7.1317E+00  3.9241E-01  7.3052E+00
                               -1.0098E-01  2.3193E+01 -4.0421E+01  2.5147E+03

           1    1.75002E+01     1.1592E-01  1.3300E-02  6.3200E-01  6.4268E-01
ac ID =   33377                 3.7553E-02  6.2917E+00  3.7883E-01  6.3032E+00
                               -9.6694E-02  2.3324E+01 -4.0284E+01  2.5147E+03

           1    1.76002E+01     1.1392E-01  8.9284E-03  6.8959E-01  6.9899E-01
ac ID =   33377                 7.2471E-01  6.1591E+00 -2.4214E-01  6.2063E+00
                               -9.2456E-02  2.3455E+01 -4.0149E+01  2.5147E+03

           1    1.77002E+01     1.2609E-01 -2.3005E-02  7.4883E-01  7.5972E-01
ac ID =   33377                 1.5546E+00  5.9332E+00  1.5750E-01  6.1355E+00
                               -8.8095E-02  2.3587E+01 -4.0017E+01  2.5147E+03

           1    1.78002E+01     1.0341E-01  2.1545E-03  8.1878E-01  8.2529E-01
ac ID =   33377                 6.4091E-01  5.0395E+00  4.2220E-01  5.0976E+00
                               -8.3752E-02  2.3719E+01 -3.9886E+01  2.5147E+03

           1    1.79002E+01     7.1213E-02  2.0296E-02  8.6151E-01  8.6469E-01
ac ID =   33377                 1.4434E-03  4.3698E+00  2.8412E-01  4.3790E+00
                               -7.9508E-02  2.3851E+01 -3.9758E+01  2.5147E+03

           1    1.80002E+01     1.1398E-01  8.9319E-04  8.7940E-01  8.8676E-01
ac ID =   33377                 5.7456E-01  4.7511E+00 -9.0965E-02  4.7866E+00
                               -7.5164E-02  2.3984E+01 -3.9632E+01  2.5147E+03

           1    1.81002E+01     5.3375E-02 -2.2433E-02  9.0933E-01  9.1117E-01
ac ID =   33377                 8.4730E-01  3.4299E+00 -1.8479E-02  3.5330E+00
                               -7.0774E-02  2.4118E+01 -3.9509E+01  2.5147E+03

           1    1.82002E+01     5.8966E-02  3.1203E-02  9.7844E-01  9.8071E-01
ac ID =   33377                -6.6314E-02  2.8172E+00  2.3535E-01  2.8278E+00
                               -6.6562E-02  2.4252E+01 -3.9389E+01  2.5147E+03

           1    1.83002E+01     7.7082E-02  1.4747E-02  1.0173E+00  1.0204E+00
ac ID =   33377                 6.2308E-01  2.8108E+00  1.8077E-01  2.8847E+00
                               -6.2313E-02  2.4387E+01 -3.9271E+01  2.5147E+03

           1    1.84002E+01     3.5473E-02 -2.3932E-02  1.0035E+00  1.0044E+00
ac ID =   33377                 1.1730E+00  1.9217E+00  1.0859E-01  2.2540E+00
                               -5.7832E-02  2.4523E+01 -3.9155E+01  2.5147E+03

           1    1.85001E+01     3.6412E-02  7.3223E-03  1.0338E+00  1.0344E+00
ac ID =   33377                 7.9194E-01  1.6105E+00 -4.0686E-01  1.8402E+00
                               -5.3503E-02  2.4659E+01 -3.9042E+01  2.5147E+03

           1    1.86001E+01     4.5090E-02  1.0875E-02  1.0719E+00  1.0729E+00
ac ID =   33377                 7.3748E-01  1.2119E+00 -3.1390E-01  1.4529E+00
                               -4.9135E-02  2.4796E+01 -3.8932E+01  2.5147E+03

           1    1.87001E+01     3.0352E-02 -6.1581E-03  1.1208E+00  1.1212E+00
ac ID =   33377                 1.0120E+00  2.9556E-02 -2.1470E-01  1.0349E+00
                               -4.4678E-02  2.4934E+01 -3.8824E+01  2.5147E+03

           1    1.88001E+01     1.8934E-02  1.4468E-02  1.1211E+00  1.1214E+00
ac ID =   33377                 1.6024E-01 -3.5199E-01 -7.4340E-02  3.9383E-01
                               -4.0116E-02  2.5072E+01 -3.8719E+01  2.5147E+03

           1    1.89001E+01     3.7864E-02  9.0849E-03  1.1087E+00  1.1093E+00
ac ID =   33377                 3.4933E-01 -3.5073E-01  3.1182E-01  5.8504E-01
                               -3.5521E-02  2.5211E+01 -3.8617E+01  2.5147E+03

           1    1.90001E+01     1.0119E-02 -1.2762E-02  1.1619E+00  1.1620E+00
ac ID =   33377                 5.4175E-01 -7.4074E-01  3.0799E-01  9.6802E-01
                               -3.0945E-02  2.5351E+01 -3.8517E+01  2.5147E+03

           1    1.91001E+01     4.3361E-03  1.4918E-02  1.2137E+00  1.2138E+00
ac ID =   33377                 4.2667E-01 -1.4793E+00  2.5835E-01  1.5611E+00
                               -2.6475E-02  2.5491E+01 -3.8421E+01  2.5147E+03

           1    1.92001E+01     2.2408E-02 -5.4800E-03  1.2026E+00  1.2028E+00
ac ID =   33377                 3.5294E-01 -1.4141E+00  3.3631E-01  1.4958E+00
                               -2.1915E-02  2.5633E+01 -3.8327E+01  2.5147E+03

           1    1.93001E+01     8.7035E-03  1.3633E-02  1.2069E+00  1.2070E+00
ac ID =   33377                 8.9330E-01 -2.3597E+00  4.5769E-01  2.5643E+00
                               -1.7506E-02  2.5775E+01 -3.8236E+01  2.5147E+03

           1    1.94001E+01    -1.6184E-02 -2.6347E-02  1.2469E+00  1.2473E+00
ac ID =   33377                 1.3766E+00 -3.4508E+00  1.0815E-01  3.7168E+00
                               -1.3021E-02  2.5918E+01 -3.8148E+01  2.5147E+03

           1    1.95000E+01     1.3086E-02  4.2869E-03  1.2516E+00  1.2517E+00
ac ID =   33377                 7.6201E-01 -2.9998E+00  1.4547E-02  3.0951E+00
                               -8.6016E-03  2.6061E+01 -3.8063E+01  2.5147E+03

           1    1.96000E+01    -3.7141E-03 -1.5439E-02  1.2512E+00  1.2513E+00
ac ID =   33377                 1.1480E+00 -3.6812E+00 -2.9391E-01  3.8673E+00
                               -4.2637E-03  2.6206E+01 -3.7980E+01  2.5147E+03

           1    1.97005E+01    -2.0483E-02  9.4703E-03  1.2303E+00  1.2305E+00
ac ID =   33377                 5.4484E-01 -4.1151E+00  1.4988E-01  4.1537E+00
                                7.6066E-05  2.6351E+01 -3.7900E+01  2.5147E+03

           1    1.98005E+01    -5.0494E-03 -1.5617E-02  1.2270E+00  1.2271E+00
ac ID =   33377                 7.9294E-01 -4.1569E+00  4.8379E-01  4.2594E+00
                                4.4215E-03  2.6497E+01 -3.7824E+01  2.5147E+03

           1    1.99005E+01    -1.1067E-03 -1.6162E-03  1.2589E+00  1.2589E+00
ac ID =   33377                 6.3876E-01 -4.6832E+00  3.5300E-01  4.7397E+00
                                8.6180E-03  2.6644E+01 -3.7750E+01  2.5147E+03

           1    2.00005E+01    -2.2863E-02  8.1372E-03  1.2801E+00  1.2804E+00
ac ID =   33377                 5.0636E-01 -5.1890E+00 -9.8495E-02  5.2146E+00
                                1.2691E-02  2.6791E+01 -3.7680E+01  2.5147E+03

           1    2.01005E+01    -6.6474E-03  6.8764E-03  1.2136E+00  1.2137E+00
ac ID =   33377                 4.8784E-01 -5.1409E+00  2.8698E-02  5.1641E+00
                                1.6810E-02  2.6940E+01 -3.7612E+01  2.5147E+03

           1    2.02005E+01    -1.6318E-02 -1.8331E-02  1.1829E+00  1.1831E+00
ac ID =   33377                 1.2742E+00 -5.2465E+00  2.5338E-02  5.3991E+00
                                2.0894E-02  2.7089E+01 -3.7547E+01  2.5147E+03

           1    2.03005E+01    -1.7918E-02  1.8365E-03  1.2167E+00  1.2169E+00
ac ID =   33377                 6.3015E-01 -5.7000E+00  1.1537E-01  5.7358E+00
                                2.4921E-02  2.7238E+01 -3.7484E+01  2.5147E+03

           1    2.04005E+01    -1.0422E-03  2.2465E-03  1.1953E+00  1.1953E+00
ac ID =   33377                 9.8327E-01 -5.6942E+00 -3.4201E-01  5.7886E+00
                                2.8874E-02  2.7389E+01 -3.7425E+01  2.5147E+03

           1    2.05004E+01    -5.9595E-03 -6.4074E-03  1.1543E+00  1.1544E+00
ac ID =   33377                 1.1288E+00 -5.9628E+00 -1.8052E-01  6.0714E+00
                                3.2891E-02  2.7540E+01 -3.7368E+01  2.5147E+03

           1    2.06004E+01    -7.9531E-03 -4.5387E-03  1.1229E+00  1.1230E+00
ac ID =   33377                 8.2178E-01 -6.0183E+00  2.8160E-01  6.0807E+00
                                3.6912E-02  2.7691E+01 -3.7314E+01  2.5147E+03

           1    2.07004E+01    -1.2341E-02  8.3682E-03  1.1329E+00  1.1330E+00
ac ID =   33377                 2.5456E-01 -6.0900E+00  5.1178E-01  6.1167E+00
                                4.0874E-02  2.7844E+01 -3.7262E+01  2.5147E+03

           1    2.08004E+01    -9.0416E-03  1.7561E-02  1.1181E+00  1.1183E+00
ac ID =   33377                 3.6621E-01 -6.6259E+00  4.0658E-01  6.6484E+00
                                4.4879E-02  2.7997E+01 -3.7213E+01  2.5147E+03

           1    2.09004E+01    -8.1522E-03 -7.7481E-03  1.0947E+00  1.0947E+00
ac ID =   33377                 2.3323E-01 -6.6146E+00  2.4514E-01  6.6233E+00
                                4.9037E-02  2.8151E+01 -3.7167E+01  2.5147E+03

           1    2.10004E+01    -1.9036E-03  7.4580E-03  1.0670E+00  1.0671E+00
ac ID =   33377                 4.4506E-01 -7.2426E+00  1.3929E-01  7.2576E+00
                                5.3037E-02  2.8305E+01 -3.7122E+01  2.5147E+03

           1    2.11004E+01    -2.3584E-02 -9.7381E-04  1.0419E+00  1.0422E+00
ac ID =   33377                 4.5494E-01 -7.7411E+00  9.7926E-02  7.7551E+00
                                5.7025E-02  2.8460E+01 -3.7081E+01  2.5147E+03

           1    2.12004E+01    -3.7384E-03 -7.1693E-03  1.0346E+00  1.0347E+00
ac ID =   33377                 9.9905E-01 -7.4159E+00 -1.1131E-01  7.4837E+00
                                6.0986E-02  2.8615E+01 -3.7041E+01  2.5147E+03

           1    2.13004E+01    -3.3593E-04 -1.3530E-02  9.9745E-01  9.9755E-01
ac ID =   33377                 1.1164E+00 -7.7016E+00 -1.3038E-01  7.7832E+00
                                6.4884E-02  2.8771E+01 -3.7004E+01  2.5147E+03

           1    2.14004E+01    -2.2735E-02 -2.2275E-03  9.5268E-01  9.5296E-01
ac ID =   33377                 1.1637E+00 -8.3840E+00  4.0082E-02  8.4645E+00
                                6.8704E-02  2.8928E+01 -3.6969E+01  2.5147E+03

           1    2.15003E+01     1.9329E-02  1.6574E-03  9.2434E-01  9.2454E-01
ac ID =   33377                 8.2532E-01 -7.7529E+00  4.6190E-02  7.7969E+00
                                7.2529E-02  2.9085E+01 -3.6936E+01  2.5147E+03

           1    2.16003E+01    -4.8863E-03 -2.4102E-03  9.1383E-01  9.1384E-01
ac ID =   33377                 6.5020E-01 -8.3292E+00  4.9087E-02  8.3547E+00
                                7.6390E-02  2.9242E+01 -3.6906E+01  2.5147E+03

           1    2.17003E+01     8.2067E-03  1.0487E-02  8.7770E-01  8.7780E-01
ac ID =   33377                 7.4640E-02 -8.2634E+00  1.5817E-01  8.2653E+00
                                8.0290E-02  2.9400E+01 -3.6877E+01  2.5147E+03

           1    2.18003E+01     8.4184E-03  9.2230E-03  8.1885E-01  8.1895E-01
ac ID =   33377                -3.3001E-02 -8.1371E+00  3.4829E-02  8.1372E+00
                                8.4157E-02  2.9558E+01 -3.6850E+01  2.5147E+03

           1    2.19003E+01     4.1360E-02  6.1947E-03  7.7736E-01  7.7848E-01
ac ID =   33377                 4.9238E-02 -7.8584E+00  1.2235E-01  7.8595E+00
                                8.8016E-02  2.9717E+01 -3.6825E+01  2.5147E+03

           1    2.20003E+01     2.4316E-02  1.5940E-03  7.6858E-01  7.6897E-01
ac ID =   33377                 4.4958E-02 -8.0100E+00  3.7431E-02  8.0102E+00
                                9.1857E-02  2.9876E+01 -3.6801E+01  2.5147E+03

           1    2.21003E+01     3.3222E-02  3.1417E-03  7.1755E-01  7.1832E-01
ac ID =   33377                 4.4404E-01 -7.7474E+00 -1.4456E-01  7.7615E+00
                                9.5566E-02  3.0035E+01 -3.6779E+01  2.5147E+03

           1    2.22003E+01     6.7255E-02 -7.6015E-03  6.6638E-01  6.6980E-01
ac ID =   33377                 9.9702E-01 -7.0113E+00 -2.5108E-01  7.0863E+00
                                9.9264E-02  3.0195E+01 -3.6759E+01  2.5147E+03

           1    2.23003E+01     4.6859E-02 -1.9751E-02  6.1923E-01  6.2131E-01
ac ID =   33377                 1.3217E+00 -7.5366E+00  1.0435E-01  7.6523E+00
                                1.0296E-01  3.0354E+01 -3.6740E+01  2.5147E+03

           1    2.24003E+01     7.1450E-02 -2.1102E-02  5.9552E-01  6.0016E-01
ac ID =   33377                 1.5296E+00 -7.2630E+00  5.1811E-02  7.4225E+00
                                1.0647E-01  3.0514E+01 -3.6722E+01  2.5147E+03

           1    2.25002E+01     7.0306E-02  2.4376E-05  5.6050E-01  5.6490E-01
ac ID =   33377                 9.1762E-01 -7.7147E+00  3.0831E-02  7.7692E+00
                                1.0990E-01  3.0674E+01 -3.6706E+01  2.5147E+03

           1    2.26002E+01     8.8057E-02 -8.6317E-03  4.9761E-01  5.0542E-01
ac ID =   33377                 8.6218E-01 -7.4920E+00  4.1055E-03  7.5415E+00
                                1.1331E-01  3.0834E+01 -3.6691E+01  2.5147E+03

           1    2.27002E+01     7.4324E-02 -3.8115E-03  4.4843E-01  4.5456E-01
ac ID =   33377                 4.9123E-01 -7.8982E+00  1.9545E-01  7.9159E+00
                                1.1664E-01  3.0994E+01 -3.6676E+01  2.5147E+03

           1    2.28002E+01     7.3411E-02  7.4487E-03  4.1614E-01  4.2263E-01
ac ID =   33377                -1.3194E-02 -8.0415E+00  2.0062E-01  8.0440E+00
                                1.1986E-01  3.1154E+01 -3.6663E+01  2.5147E+03

           1    2.29002E+01     8.7548E-02  1.4520E-02  3.7361E-01  3.8400E-01
ac ID =   33377                -4.6619E-02 -8.2418E+00 -1.2253E-01  8.2428E+00
                                1.2299E-01  3.1314E+01 -3.6651E+01  2.5147E+03

           1    2.30002E+01     8.6539E-02 -6.0770E-04  3.3125E-01  3.4237E-01
ac ID =   33377                 3.3521E-01 -8.7336E+00 -1.2085E-01  8.7409E+00
                                1.2619E-01  3.1473E+01 -3.6639E+01  2.5147E+03

           1    2.31002E+01     7.6123E-02 -3.2309E-03  2.8642E-01  2.9638E-01
ac ID =   33377                 7.2165E-01 -9.3357E+00 -4.9149E-02  9.3637E+00
                                1.2931E-01  3.1633E+01 -3.6628E+01  2.5147E+03

           1    2.32002E+01     8.6187E-02 -2.7982E-03  2.2099E-01  2.3722E-01
ac ID =   33377                 8.1572E-01 -9.6089E+00  4.8478E-02  9.6436E+00
                                1.3238E-01  3.1792E+01 -3.6617E+01  2.5147E+03

           1    2.33002E+01     9.3989E-02 -9.6306E-03  2.1023E-01  2.3048E-01
ac ID =   33377                 1.4061E+00 -9.9746E+00 -4.6993E-02  1.0073E+01
                                1.3544E-01  3.1952E+01 -3.6607E+01  2.5147E+03

           1    2.34002E+01     7.2351E-02 -1.4044E-03  1.6103E-01  1.7655E-01
ac ID =   33377                 9.8930E-01 -1.0720E+01  4.1227E-02  1.0765E+01
                                1.3860E-01  3.2111E+01 -3.6597E+01  2.5147E+03

           1    2.35001E+01     8.5276E-02 -2.5175E-03  8.4550E-02  1.2011E-01
ac ID =   33377                 7.5227E-01 -1.0794E+01  9.8988E-02  1.0821E+01
                                1.4170E-01  3.2270E+01 -3.6587E+01  2.5147E+03

           1    2.36001E+01     9.8267E-02  1.0448E-02  3.9246E-02  1.0633E-01
ac ID =   33377                 3.6563E-01 -1.0870E+01 -9.0278E-02  1.0877E+01
                                1.4481E-01  3.2429E+01 -3.6577E+01  2.5147E+03

           1    2.37001E+01     7.8869E-02  9.5105E-03  2.4306E-02  8.3076E-02
ac ID =   33377                -2.4096E-02 -1.1844E+01 -1.1483E-01  1.1845E+01
                                1.4805E-01  3.2587E+01 -3.6567E+01  2.5147E+03

           1    2.38001E+01     9.5269E-02  1.9486E-02 -3.3256E-02  1.0277E-01
ac ID =   33377                -3.6262E-01 -1.1711E+01 -7.8240E-02  1.1716E+01
                                1.5122E-01  3.2745E+01 -3.6557E+01  2.5147E+03

           1    2.39001E+01     9.5128E-02  1.2551E-02 -7.3953E-02  1.2114E-01
ac ID =   33377                -3.3895E-02 -1.2115E+01  1.1642E-01  1.2115E+01
                                1.5440E-01  3.2903E+01 -3.6546E+01  2.5147E+03

           1    2.40001E+01     1.1231E-01  1.0669E-02 -1.2259E-01  1.6660E-01
ac ID =   33377                 5.0352E-02 -1.2022E+01  2.3539E-01  1.2024E+01
                                1.5768E-01  3.3061E+01 -3.6535E+01  2.5147E+03

           1    2.41001E+01     9.0483E-02  1.2132E-02 -1.5122E-01  1.7664E-01
ac ID =   33377                 2.5902E-01 -1.2402E+01  1.4989E-02  1.2405E+01
                                1.6097E-01  3.3219E+01 -3.6523E+01  2.5147E+03

           1    2.42001E+01     1.0943E-01  1.5080E-02 -1.8134E-01  2.1233E-01
ac ID =   33377                 6.3809E-01 -1.2653E+01 -1.5802E-01  1.2670E+01
                                1.6432E-01  3.3376E+01 -3.6511E+01  2.5147E+03

           1    2.43001E+01     1.2308E-01  7.2024E-03 -2.1786E-01  2.5033E-01
ac ID =   33377                 6.8492E-01 -1.2456E+01  5.7418E-02  1.2474E+01
                                1.6780E-01  3.3533E+01 -3.6498E+01  2.5147E+03

           1    2.44001E+01     1.2031E-01  1.0265E-03 -2.7182E-01  2.9726E-01
ac ID =   33377                 4.5265E-01 -1.2471E+01  2.0494E-01  1.2480E+01
                                1.7136E-01  3.3689E+01 -3.6484E+01  2.5147E+03

           1    2.45005E+01     1.1374E-01  1.4158E-02 -3.0115E-01  3.2222E-01
ac ID =   33377                -7.1390E-02 -1.2506E+01  1.1556E-01  1.2506E+01
                                1.7490E-01  3.3846E+01 -3.6469E+01  2.5147E+03

           1    2.46005E+01     1.4397E-01  8.9583E-03 -3.3700E-01  3.6657E-01
ac ID =   33377                 6.8654E-02 -1.2070E+01 -2.1313E-01  1.2072E+01
                                1.7843E-01  3.4001E+01 -3.6453E+01  2.5147E+03

           1    2.47005E+01     1.5326E-01  3.6621E-03 -3.4470E-01  3.7725E-01
ac ID =   33377                -1.3724E-01 -1.2200E+01 -2.0628E-01  1.2202E+01
                                1.8198E-01  3.4156E+01 -3.6437E+01  2.5147E+03

           1    2.48005E+01     1.3499E-01  1.6081E-02 -4.0692E-01  4.2903E-01
ac ID =   33377                -2.1749E-01 -1.2166E+01  2.3501E-01  1.2170E+01
                                1.8546E-01  3.4311E+01 -3.6419E+01  2.5147E+03

           1    2.49005E+01     1.5471E-01  6.6984E-03 -4.3817E-01  4.6473E-01
ac ID =   33377                 3.4125E-01 -1.2115E+01  3.9425E-01  1.2126E+01
                                1.8887E-01  3.4465E+01 -3.6400E+01  2.5147E+03

