 LSTC 50th% Full_FE H-III Dummy (Beta Version, February 17, 2019)        
                    ls-dyna smp s R16 R16.0_619_d222963 date 03/18/2025

{BEGIN LEGEND}
 Entity #        Title
    22626                                                                                     
{END LEGEND}




 n o d a l   p r i n t   o u t   f o r   t i m e  s t e p       1                              ( at time 0.0000000E+00 )

 nodal point  x-disp     y-disp      z-disp      x-vel       y-vel       z-vel      x-accl      y-accl      z-accl      x-coor      y-coor      z-coor
    22626  0.00000E+00 0.00000E+00 0.00000E+00 0.00000E+00 0.00000E+00-3.12000E+00 0.00000E+00 0.00000E+00 0.00000E+00 4.79642E+01-2.20298E+01 7.33850E+00



 n o d a l   p r i n t   o u t   f o r   t i m e  s t e p       1                              ( at time 0.0000000E+00 )

 nodal point  x-rot      y-rot       z-rot       x-rot vel   y-rot vel   z-rot vel   x-rot acc   y-rot acc   z-rot acc
    22626  0.00000E+00 0.00000E+00 0.00000E+00 0.00000E+00 0.00000E+00 0.00000E+00 0.00000E+00 0.00000E+00 0.00000E+00



 n o d a l   p r i n t   o u t   f o r   t i m e  s t e p     201                              ( at time 9.9989993E-02 )

 nodal point  x-disp     y-disp      z-disp      x-vel       y-vel       z-vel      x-accl      y-accl      z-accl      x-coor      y-coor      z-coor
    22626  8.34258E-07-4.04483E-06-3.12016E-01 4.76617E-05-4.96463E-04-3.12074E+00 4.76665E-04-4.96513E-03-7.42748E-03 4.79642E+01-2.20298E+01 7.02648E+00



 n o d a l   p r i n t   o u t   f o r   t i m e  s t e p     201                              ( at time 9.9989993E-02 )

 nodal point  x-rot      y-rot       z-rot       x-rot vel   y-rot vel   z-rot vel   x-rot acc   y-rot acc   z-rot acc
    22626  9.61162E-09 3.04031E-08 5.27046E-08 1.30707E-06 2.72186E-06 5.21215E-06 1.30720E-05 2.72213E-05 5.21267E-05



 n o d a l   p r i n t   o u t   f o r   t i m e  s t e p     401                              ( at time 1.9997999E-01 )

 nodal point  x-disp     y-disp      z-disp      x-vel       y-vel       z-vel      x-accl      y-accl      z-accl      x-coor      y-coor      z-coor
    22626 -5.12696E-05-5.21574E-04-6.23853E-01-1.09656E-03-1.11136E-02-3.11558E+00-1.14434E-02-1.06182E-01 5.16204E-02 4.79641E+01-2.20303E+01 6.71465E+00



 n o d a l   p r i n t   o u t   f o r   t i m e  s t e p     401                              ( at time 1.9997999E-01 )

 nodal point  x-rot      y-rot       z-rot       x-rot vel   y-rot vel   z-rot vel   x-rot acc   y-rot acc   z-rot acc
    22626  4.60393E-07 1.32993E-06 2.50253E-06 2.63971E-06 1.90377E-05 3.49403E-05 1.33278E-05 1.63174E-04 2.97311E-04



 n o d a l   p r i n t   o u t   f o r   t i m e  s t e p     601                              ( at time 2.9996998E-01 )

 nodal point  x-disp     y-disp      z-disp      x-vel       y-vel       z-vel      x-accl      y-accl      z-accl      x-coor      y-coor      z-coor
    22626 -2.45412E-05-1.97629E-03-9.35238E-01 1.66319E-03-1.60463E-02-3.11415E+00 2.76003E-02-4.93316E-02 1.43304E-02 4.79642E+01-2.20318E+01 6.40326E+00



 n o d a l   p r i n t   o u t   f o r   t i m e  s t e p     601                              ( at time 2.9996998E-01 )

 nodal point  x-rot      y-rot       z-rot       x-rot vel   y-rot vel   z-rot vel   x-rot acc   y-rot acc   z-rot acc
    22626  6.75358E-07 2.41186E-06 4.82777E-06 8.30425E-06 5.38389E-06 1.47053E-05 5.66511E-05-1.36551E-04-2.02370E-04



 n o d a l   p r i n t   o u t   f o r   t i m e  s t e p     801                              ( at time 3.9995997E-01 )

 nodal point  x-disp     y-disp      z-disp      x-vel       y-vel       z-vel      x-accl      y-accl      z-accl      x-coor      y-coor      z-coor
    22626  6.14236E-05-3.57322E-03-1.24663E+00 2.50018E-04-1.73706E-02-3.11354E+00-1.41331E-02-1.32446E-02 6.04213E-03 4.79642E+01-2.20334E+01 6.09187E+00



 n o d a l   p r i n t   o u t   f o r   t i m e  s t e p     801                              ( at time 3.9995997E-01 )

 nodal point  x-rot      y-rot       z-rot       x-rot vel   y-rot vel   z-rot vel   x-rot acc   y-rot acc   z-rot acc
    22626  1.58118E-06 3.66830E-06 6.66067E-06 6.26186E-06 2.39251E-05 3.76775E-05-2.04260E-05 1.85430E-04 2.29745E-04



 n o d a l   p r i n t   o u t   f o r   t i m e  s t e p    1001                              ( at time 4.9994997E-01 )

 nodal point  x-disp     y-disp      z-disp      x-vel       y-vel       z-vel      x-accl      y-accl      z-accl      x-coor      y-coor      z-coor
    22626  8.21168E-05-5.62807E-03-1.55782E+00 9.45933E-04-2.38235E-02-3.11085E+00 6.95985E-03-6.45349E-02 2.69106E-02 4.79643E+01-2.20354E+01 5.78068E+00



 n o d a l   p r i n t   o u t   f o r   t i m e  s t e p    1001                              ( at time 4.9994997E-01 )

 nodal point  x-rot      y-rot       z-rot       x-rot vel   y-rot vel   z-rot vel   x-rot acc   y-rot acc   z-rot acc
    22626  1.49897E-06 6.58726E-06 1.17159E-05-4.81113E-06 4.34402E-05 7.10095E-05-1.10741E-04 1.95171E-04 3.33353E-04



 n o d a l   p r i n t   o u t   f o r   t i m e  s t e p    1201                              ( at time 5.9993996E-01 )

 nodal point  x-disp     y-disp      z-disp      x-vel       y-vel       z-vel      x-accl      y-accl      z-accl      x-coor      y-coor      z-coor
    22626  7.14061E-05-8.12922E-03-1.86888E+00-3.88791E-04-2.60428E-02-3.11087E+00-1.33486E-02-2.21959E-02-2.09829E-04 4.79643E+01-2.20379E+01 5.46962E+00



 n o d a l   p r i n t   o u t   f o r   t i m e  s t e p    1201                              ( at time 5.9993996E-01 )

 nodal point  x-rot      y-rot       z-rot       x-rot vel   y-rot vel   z-rot vel   x-rot acc   y-rot acc   z-rot acc
    22626  1.28208E-06 9.74882E-06 1.75042E-05-2.13950E-06 2.52687E-05 5.13012E-05 2.67190E-05-1.81733E-04-1.97102E-04



 n o d a l   p r i n t   o u t   f o r   t i m e  s t e p    1401                              ( at time 6.9992995E-01 )

 nodal point  x-disp     y-disp      z-disp      x-vel       y-vel       z-vel      x-accl      y-accl      z-accl      x-coor      y-coor      z-coor
    22626  5.72361E-05-1.10083E-02-2.17977E+00 8.94978E-04-3.22225E-02-3.10772E+00 1.28390E-02-6.18030E-02 3.15626E-02 4.79642E+01-2.20408E+01 5.15873E+00



 n o d a l   p r i n t   o u t   f o r   t i m e  s t e p    1401                              ( at time 6.9992995E-01 )

 nodal point  x-rot      y-rot       z-rot       x-rot vel   y-rot vel   z-rot vel   x-rot acc   y-rot acc   z-rot acc
    22626  1.12107E-06 1.28136E-05 2.22765E-05-2.42197E-06 3.63919E-05 5.71836E-05-2.82495E-06 1.11242E-04 5.88293E-05



 n o d a l   p r i n t   o u t   f o r   t i m e  s t e p    1601                              ( at time 7.9991994E-01 )

 nodal point  x-disp     y-disp      z-disp      x-vel       y-vel       z-vel      x-accl      y-accl      z-accl      x-coor      y-coor      z-coor
    22626  1.93471E-04-1.45505E-02-2.49039E+00 1.64140E-03-3.66886E-02-3.10607E+00 7.46499E-03-4.46657E-02 1.65264E-02 4.79644E+01-2.20443E+01 4.84811E+00



 n o d a l   p r i n t   o u t   f o r   t i m e  s t e p    1601                              ( at time 7.9991994E-01 )

 nodal point  x-rot      y-rot       z-rot       x-rot vel   y-rot vel   z-rot vel   x-rot acc   y-rot acc   z-rot acc
    22626  1.03034E-06 1.68084E-05 2.89685E-05 3.06894E-06 4.68749E-05 7.29050E-05 5.49146E-05 1.04841E-04 1.57230E-04



 n o d a l   p r i n t   o u t   f o r   t i m e  s t e p    1801                              ( at time 8.9990994E-01 )

 nodal point  x-disp     y-disp      z-disp      x-vel       y-vel       z-vel      x-accl      y-accl      z-accl      x-coor      y-coor      z-coor
    22626  3.01058E-04-1.81808E-02-2.80106E+00-9.35920E-05-3.62789E-02-3.10750E+00-1.73517E-02 4.09805E-03-1.43709E-02 4.79645E+01-2.20480E+01 4.53745E+00



 n o d a l   p r i n t   o u t   f o r   t i m e  s t e p    1801                              ( at time 8.9990994E-01 )

 nodal point  x-rot      y-rot       z-rot       x-rot vel   y-rot vel   z-rot vel   x-rot acc   y-rot acc   z-rot acc
    22626  1.04899E-06 2.06644E-05 3.55518E-05-2.03759E-06 3.46036E-05 6.31936E-05-5.10705E-05-1.22725E-04-9.71242E-05



 n o d a l   p r i n t   o u t   f o r   t i m e  s t e p    2001                              ( at time 9.9989993E-01 )

 nodal point  x-disp     y-disp      z-disp      x-vel       y-vel       z-vel      x-accl      y-accl      z-accl      x-coor      y-coor      z-coor
    22626  2.52870E-04-2.18777E-02-3.11178E+00-3.12166E-04-3.82385E-02-3.10766E+00-2.18595E-03-1.95977E-02-1.60233E-03 4.79644E+01-2.20517E+01 4.22672E+00



 n o d a l   p r i n t   o u t   f o r   t i m e  s t e p    2001                              ( at time 9.9989993E-01 )

 nodal point  x-rot      y-rot       z-rot       x-rot vel   y-rot vel   z-rot vel   x-rot acc   y-rot acc   z-rot acc
    22626  8.69447E-07 2.45317E-05 4.21867E-05-7.08667E-07 4.25237E-05 7.99652E-05 1.32906E-05 7.92085E-05 1.67733E-04



 n o d a l   p r i n t   o u t   f o r   t i m e  s t e p    2201                              ( at time 1.0998899E+00 )

 nodal point  x-disp     y-disp      z-disp      x-vel       y-vel       z-vel      x-accl      y-accl      z-accl      x-coor      y-coor      z-coor
    22626  2.90533E-04-2.58093E-02-3.42249E+00 4.34606E-04-4.00685E-02-3.10723E+00 7.46847E-03-1.83018E-02 4.36350E-03 4.79645E+01-2.20556E+01 3.91601E+00



 n o d a l   p r i n t   o u t   f o r   t i m e  s t e p    2201                              ( at time 1.0998899E+00 )

 nodal point  x-rot      y-rot       z-rot       x-rot vel   y-rot vel   z-rot vel   x-rot acc   y-rot acc   z-rot acc
    22626  9.59700E-07 2.89435E-05 5.01811E-05 5.24678E-06 4.19840E-05 6.77804E-05 5.95605E-05-5.39727E-06-1.21860E-04



 n o d a l   p r i n t   o u t   f o r   t i m e  s t e p    2401                              ( at time 1.1998799E+00 )

 nodal point  x-disp     y-disp      z-disp      x-vel       y-vel       z-vel      x-accl      y-accl      z-accl      x-coor      y-coor      z-coor
    22626  4.04259E-04-2.98021E-02-3.73325E+00 1.48769E-03-3.95544E-02-3.10865E+00 1.05319E-02 5.14115E-03-1.42136E-02 4.79646E+01-2.20596E+01 3.60526E+00



 n o d a l   p r i n t   o u t   f o r   t i m e  s t e p    2401                              ( at time 1.1998799E+00 )

 nodal point  x-rot      y-rot       z-rot       x-rot vel   y-rot vel   z-rot vel   x-rot acc   y-rot acc   z-rot acc
    22626  1.35545E-06 3.25920E-05 5.62177E-05 4.98366E-06 3.44511E-05 5.61961E-05-2.63149E-06-7.53366E-05-1.15854E-04



 n o d a l   p r i n t   o u t   f o r   t i m e  s t e p    2601                              ( at time 1.2998699E+00 )

 nodal point  x-disp     y-disp      z-disp      x-vel       y-vel       z-vel      x-accl      y-accl      z-accl      x-coor      y-coor      z-coor
    22626  4.97608E-04-3.36131E-02-4.04420E+00 4.62020E-04-3.62562E-02-3.11154E+00-1.02578E-02 3.29853E-02-2.88968E-02 4.79647E+01-2.20634E+01 3.29430E+00



 n o d a l   p r i n t   o u t   f o r   t i m e  s t e p    2601                              ( at time 1.2998699E+00 )

 nodal point  x-rot      y-rot       z-rot       x-rot vel   y-rot vel   z-rot vel   x-rot acc   y-rot acc   z-rot acc
    22626  1.63284E-06 3.60528E-05 6.20396E-05-2.73125E-06 3.87901E-05 6.96086E-05-7.71568E-05 4.33937E-05 1.34138E-04



 n o d a l   p r i n t   o u t   f o r   t i m e  s t e p    2801                              ( at time 1.3998599E+00 )

 nodal point  x-disp     y-disp      z-disp      x-vel       y-vel       z-vel      x-accl      y-accl      z-accl      x-coor      y-coor      z-coor
    22626  4.79828E-04-3.69738E-02-4.35552E+00-2.70713E-04-3.11243E-02-3.11530E+00-7.32806E-03 5.13237E-02-3.76811E-02 4.79647E+01-2.20668E+01 2.98298E+00



 n o d a l   p r i n t   o u t   f o r   t i m e  s t e p    2801                              ( at time 1.3998599E+00 )

 nodal point  x-rot      y-rot       z-rot       x-rot vel   y-rot vel   z-rot vel   x-rot acc   y-rot acc   z-rot acc
    22626  1.18554E-06 3.98027E-05 6.88063E-05-4.50192E-06 3.72103E-05 6.15831E-05-1.77085E-05-1.57991E-05-8.02630E-05



 n o d a l   p r i n t   o u t   f o r   t i m e  s t e p    3001                              ( at time 1.4998499E+00 )

 nodal point  x-disp     y-disp      z-disp      x-vel       y-vel       z-vel      x-accl      y-accl      z-accl      x-coor      y-coor      z-coor
    22626  4.80494E-04-3.99885E-02-4.66713E+00 6.41195E-04-2.94578E-02-3.11731E+00 9.11999E-03 1.66675E-02-2.00792E-02 4.79647E+01-2.20698E+01 2.67137E+00



 n o d a l   p r i n t   o u t   f o r   t i m e  s t e p    3001                              ( at time 1.4998499E+00 )

 nodal point  x-rot      y-rot       z-rot       x-rot vel   y-rot vel   z-rot vel   x-rot acc   y-rot acc   z-rot acc
    22626  8.01766E-07 4.29234E-05 7.40739E-05-1.94802E-06 2.41859E-05 4.40850E-05 2.55416E-05-1.30257E-04-1.74999E-04



 n o d a l   p r i n t   o u t   f o r   t i m e  s t e p    3201                              ( at time 1.5998399E+00 )

 nodal point  x-disp     y-disp      z-disp      x-vel       y-vel       z-vel      x-accl      y-accl      z-accl      x-coor      y-coor      z-coor
    22626  5.47155E-04-4.28439E-02-4.97892E+00 4.61712E-04-2.71110E-02-3.11965E+00-1.79501E-03 2.34696E-02-2.34174E-02 4.79647E+01-2.20726E+01 2.35958E+00



 n o d a l   p r i n t   o u t   f o r   t i m e  s t e p    3201                              ( at time 1.5998399E+00 )

 nodal point  x-rot      y-rot       z-rot       x-rot vel   y-rot vel   z-rot vel   x-rot acc   y-rot acc   z-rot acc
    22626  4.66244E-07 4.51927E-05 7.76576E-05-1.68966E-06 2.43285E-05 3.46463E-05 2.58382E-06 1.42578E-06-9.43957E-05



 n o d a l   p r i n t   o u t   f o r   t i m e  s t e p    3401                              ( at time 1.6998299E+00 )

 nodal point  x-disp     y-disp      z-disp      x-vel       y-vel       z-vel      x-accl      y-accl      z-accl      x-coor      y-coor      z-coor
    22626  5.83847E-04-4.53182E-02-5.29104E+00 1.73497E-04-2.20426E-02-3.12352E+00-2.88244E-03 5.06890E-02-3.86968E-02 4.79648E+01-2.20751E+01 2.04746E+00



 n o d a l   p r i n t   o u t   f o r   t i m e  s t e p    3401                              ( at time 1.6998299E+00 )

 nodal point  x-rot      y-rot       z-rot       x-rot vel   y-rot vel   z-rot vel   x-rot acc   y-rot acc   z-rot acc
    22626  2.13528E-07 4.73641E-05 8.12654E-05-4.23938E-06 2.01966E-05 3.28826E-05-2.54998E-05-4.13223E-05-1.76394E-05



 n o d a l   p r i n t   o u t   f o r   t i m e  s t e p    3601                              ( at time 1.7998199E+00 )

 nodal point  x-disp     y-disp      z-disp      x-vel       y-vel       z-vel      x-accl      y-accl      z-accl      x-coor      y-coor      z-coor
    22626  6.15128E-04-4.72679E-02-5.60357E+00 9.52856E-06-1.73117E-02-3.12759E+00-1.63985E-03 4.73142E-02-4.07069E-02 4.79648E+01-2.20771E+01 1.73493E+00



 n o d a l   p r i n t   o u t   f o r   t i m e  s t e p    3601                              ( at time 1.7998199E+00 )

 nodal point  x-rot      y-rot       z-rot       x-rot vel   y-rot vel   z-rot vel   x-rot acc   y-rot acc   z-rot acc
    22626  4.19141E-08 4.92135E-05 8.45015E-05-4.74778E-07 1.21105E-05 2.66957E-05 3.76498E-05-8.08691E-05-6.18753E-05



 n o d a l   p r i n t   o u t   f o r   t i m e  s t e p    3801                              ( at time 1.8998099E+00 )

 nodal point  x-disp     y-disp      z-disp      x-vel       y-vel       z-vel      x-accl      y-accl      z-accl      x-coor      y-coor      z-coor
    22626  5.64179E-04-4.88687E-02-5.91642E+00-7.79211E-04-1.48194E-02-3.13002E+00-7.88818E-03 2.49250E-02-2.42472E-02 4.79647E+01-2.20787E+01 1.42208E+00



 n o d a l   p r i n t   o u t   f o r   t i m e  s t e p    3801                              ( at time 1.8998099E+00 )

 nodal point  x-rot      y-rot       z-rot       x-rot vel   y-rot vel   z-rot vel   x-rot acc   y-rot acc   z-rot acc
    22626 -2.33375E-07 5.01622E-05 8.63958E-05 1.19953E-06 5.98756E-06 1.21992E-05 1.67447E-05-6.12359E-05-1.44979E-04



 n o d a l   p r i n t   o u t   f o r   t i m e  s t e p    4001                              ( at time 1.9997999E+00 )

 nodal point  x-disp     y-disp      z-disp      x-vel       y-vel       z-vel      x-accl      y-accl      z-accl      x-coor      y-coor      z-coor
    22626  5.28030E-04-5.02233E-02-6.22952E+00-2.52139E-04-1.24035E-02-3.13239E+00 5.27125E-03 2.41619E-02-2.37131E-02 4.79647E+01-2.20800E+01 1.10898E+00



 n o d a l   p r i n t   o u t   f o r   t i m e  s t e p    4001                              ( at time 1.9997999E+00 )

 nodal point  x-rot      y-rot       z-rot       x-rot vel   y-rot vel   z-rot vel   x-rot acc   y-rot acc   z-rot acc
    22626 -5.79368E-08 5.05111E-05 8.71644E-05 3.04150E-06 3.33053E-06 4.70233E-06 1.84216E-05-2.65730E-05-7.49766E-05



 n o d a l   p r i n t   o u t   f o r   t i m e  s t e p    4201                              ( at time 2.0997899E+00 )

 nodal point  x-disp     y-disp      z-disp      x-vel       y-vel       z-vel      x-accl      y-accl      z-accl      x-coor      y-coor      z-coor
    22626  5.01694E-04-5.12726E-02-6.54288E+00-4.27945E-04-8.79165E-03-3.13544E+00-1.75824E-03 3.61221E-02-3.05254E-02 4.79647E+01-2.20811E+01 7.95619E-01



 n o d a l   p r i n t   o u t   f o r   t i m e  s t e p    4201                              ( at time 2.0997899E+00 )

 nodal point  x-rot      y-rot       z-rot       x-rot vel   y-rot vel   z-rot vel   x-rot acc   y-rot acc   z-rot acc
    22626  1.73638E-07 5.01533E-05 8.66716E-05-1.88493E-06-6.63188E-06-1.39820E-05-4.92693E-05-9.96341E-05-1.86862E-04



 n o d a l   p r i n t   o u t   f o r   t i m e  s t e p    4401                              ( at time 2.1997798E+00 )

 nodal point  x-disp     y-disp      z-disp      x-vel       y-vel       z-vel      x-accl      y-accl      z-accl      x-coor      y-coor      z-coor
    22626  4.02479E-04-5.19228E-02-6.85657E+00-1.34525E-03-4.01820E-03-3.13921E+00-9.17394E-03 4.77393E-02-3.77097E-02 4.79646E+01-2.20817E+01 4.81928E-01



 n o d a l   p r i n t   o u t   f o r   t i m e  s t e p    4401                              ( at time 2.1997798E+00 )

 nodal point  x-rot      y-rot       z-rot       x-rot vel   y-rot vel   z-rot vel   x-rot acc   y-rot acc   z-rot acc
    22626 -3.42489E-08 4.91202E-05 8.50137E-05-1.48520E-06-1.25018E-05-1.91016E-05 3.99775E-06-5.87047E-05-5.12016E-05



 n o d a l   p r i n t   o u t   f o r   t i m e  s t e p    4601                              ( at time 2.2997698E+00 )

 nodal point  x-disp     y-disp      z-disp      x-vel       y-vel       z-vel      x-accl      y-accl      z-accl      x-coor      y-coor      z-coor
    22626  2.35843E-04-5.20833E-02-7.17065E+00-2.09176E-03 2.09879E-04-3.14249E+00-7.46584E-03 4.22850E-02-3.27453E-02 4.79644E+01-2.20819E+01 1.67853E-01



 n o d a l   p r i n t   o u t   f o r   t i m e  s t e p    4601                              ( at time 2.2997698E+00 )

 nodal point  x-rot      y-rot       z-rot       x-rot vel   y-rot vel   z-rot vel   x-rot acc   y-rot acc   z-rot acc
    22626 -4.78328E-07 4.77921E-05 8.30716E-05-5.10329E-06-1.95154E-05-2.85858E-05-3.61845E-05-7.01434E-05-9.48508E-05



 n o d a l   p r i n t   o u t   f o r   t i m e  s t e p    4801                              ( at time 2.3997598E+00 )

 nodal point  x-disp     y-disp      z-disp      x-vel       y-vel       z-vel      x-accl      y-accl      z-accl      x-coor      y-coor      z-coor
    22626  8.11193E-06-5.19697E-02-7.48496E+00-2.22615E-03 2.10720E-03-3.14460E+00-1.34410E-03 1.89752E-02-2.10950E-02 4.79642E+01-2.20818E+01-1.46464E-01



 n o d a l   p r i n t   o u t   f o r   t i m e  s t e p    4801                              ( at time 2.3997598E+00 )

 nodal point  x-rot      y-rot       z-rot       x-rot vel   y-rot vel   z-rot vel   x-rot acc   y-rot acc   z-rot acc
    22626 -1.05710E-06 4.55446E-05 7.90848E-05-6.39617E-06-2.58367E-05-4.80380E-05-1.29301E-05-6.32195E-05-1.94542E-04



 n o d a l   p r i n t   o u t   f o r   t i m e  s t e p    5001                              ( at time 2.4997498E+00 )

 nodal point  x-disp     y-disp      z-disp      x-vel       y-vel       z-vel      x-accl      y-accl      z-accl      x-coor      y-coor      z-coor
    22626 -2.49047E-04-5.16351E-02-7.79951E+00-2.91089E-03 5.23681E-03-3.14732E+00-6.84802E-03 3.12992E-02-2.72325E-02 4.79639E+01-2.20814E+01-4.61010E-01



 n o d a l   p r i n t   o u t   f o r   t i m e  s t e p    5001                              ( at time 2.4997498E+00 )

 nodal point  x-rot      y-rot       z-rot       x-rot vel   y-rot vel   z-rot vel   x-rot acc   y-rot acc   z-rot acc
    22626 -1.54836E-06 4.23475E-05 7.36646E-05-4.41808E-06-3.59089E-05-6.33161E-05 1.97828E-05-1.00732E-04-1.52795E-04



 n o d a l   p r i n t   o u t   f o r   t i m e  s t e p    5201                              ( at time 2.5997398E+00 )

 nodal point  x-disp     y-disp      z-disp      x-vel       y-vel       z-vel      x-accl      y-accl      z-accl      x-coor      y-coor      z-coor
    22626 -5.94184E-04-5.08955E-02-8.11440E+00-3.98823E-03 9.50412E-03-3.15087E+00-1.07745E-02 4.26774E-02-3.55232E-02 4.79636E+01-2.20807E+01-7.75896E-01



 n o d a l   p r i n t   o u t   f o r   t i m e  s t e p    5201                              ( at time 2.5997398E+00 )

 nodal point  x-rot      y-rot       z-rot       x-rot vel   y-rot vel   z-rot vel   x-rot acc   y-rot acc   z-rot acc
    22626 -1.95741E-06 3.82925E-05 6.68075E-05-5.17367E-06-4.47611E-05-7.55479E-05-7.55665E-06-8.85316E-05-1.22331E-04



 n o d a l   p r i n t   o u t   f o r   t i m e  s t e p    5401                              ( at time 2.6997298E+00 )

 nodal point  x-disp     y-disp      z-disp      x-vel       y-vel       z-vel      x-accl      y-accl      z-accl      x-coor      y-coor      z-coor
    22626 -1.04231E-03-4.97426E-02-8.42963E+00-5.23520E-03 1.30940E-02-3.15433E+00-1.24709E-02 3.59026E-02-3.46123E-02 4.79631E+01-2.20795E+01-1.09113E+00



 n o d a l   p r i n t   o u t   f o r   t i m e  s t e p    5401                              ( at time 2.6997298E+00 )

 nodal point  x-rot      y-rot       z-rot       x-rot vel   y-rot vel   z-rot vel   x-rot acc   y-rot acc   z-rot acc
    22626 -2.28111E-06 3.36564E-05 5.90219E-05-2.14893E-06-4.99973E-05-7.91816E-05 3.02504E-05-5.23672E-05-3.63404E-05



 n o d a l   p r i n t   o u t   f o r   t i m e  s t e p    5601                              ( at time 2.7997198E+00 )

 nodal point  x-disp     y-disp      z-disp      x-vel       y-vel       z-vel      x-accl      y-accl      z-accl      x-coor      y-coor      z-coor
    22626 -1.63874E-03-4.83098E-02-8.74514E+00-6.54574E-03 1.52031E-02-3.15641E+00-1.31068E-02 2.10929E-02-2.08041E-02 4.79625E+01-2.20781E+01-1.40664E+00



 n o d a l   p r i n t   o u t   f o r   t i m e  s t e p    5601                              ( at time 2.7997198E+00 )

 nodal point  x-rot      y-rot       z-rot       x-rot vel   y-rot vel   z-rot vel   x-rot acc   y-rot acc   z-rot acc
    22626 -2.43641E-06 2.79029E-05 4.96706E-05 1.20099E-07-6.56768E-05-1.10361E-04 2.26926E-05-1.56811E-04-3.11826E-04



 n o d a l   p r i n t   o u t   f o r   t i m e  s t e p    5801                              ( at time 2.8997098E+00 )

 nodal point  x-disp     y-disp      z-disp      x-vel       y-vel       z-vel      x-accl      y-accl      z-accl      x-coor      y-coor      z-coor
    22626 -2.30349E-03-4.67372E-02-9.06084E+00-6.79760E-03 1.61950E-02-3.15809E+00-2.51883E-03 9.92048E-03-1.68293E-02 4.79619E+01-2.20765E+01-1.72234E+00



 n o d a l   p r i n t   o u t   f o r   t i m e  s t e p    5801                              ( at time 2.8997098E+00 )

 nodal point  x-rot      y-rot       z-rot       x-rot vel   y-rot vel   z-rot vel   x-rot acc   y-rot acc   z-rot acc
    22626 -2.24294E-06 2.06579E-05 3.76372E-05 2.38971E-06-7.38918E-05-1.25816E-04 2.26984E-05-8.21584E-05-1.54566E-04



 n o d a l   p r i n t   o u t   f o r   t i m e  s t e p    6001                              ( at time 2.9996998E+00 )

 nodal point  x-disp     y-disp      z-disp      x-vel       y-vel       z-vel      x-accl      y-accl      z-accl      x-coor      y-coor      z-coor
    22626 -3.02775E-03-4.50010E-02-9.37673E+00-7.90465E-03 1.86541E-02-3.16045E+00-1.10716E-02 2.45926E-02-2.35342E-02 4.79612E+01-2.20748E+01-2.03822E+00



 n o d a l   p r i n t   o u t   f o r   t i m e  s t e p    6001                              ( at time 2.9996998E+00 )

 nodal point  x-rot      y-rot       z-rot       x-rot vel   y-rot vel   z-rot vel   x-rot acc   y-rot acc   z-rot acc
    22626 -2.02934E-06 1.30460E-05 2.50336E-05 5.64690E-07-7.84716E-05-1.31080E-04-1.82520E-05-4.58021E-05-5.26401E-05



 n o d a l   p r i n t   o u t   f o r   t i m e  s t e p    6201                              ( at time 3.0996898E+00 )

 nodal point  x-disp     y-disp      z-disp      x-vel       y-vel       z-vel      x-accl      y-accl      z-accl      x-coor      y-coor      z-coor
    22626 -3.90363E-03-4.30260E-02-9.69285E+00-9.54642E-03 2.04255E-02-3.16234E+00-1.64193E-02 1.77158E-02-1.89467E-02 4.79603E+01-2.20728E+01-2.35435E+00



 n o d a l   p r i n t   o u t   f o r   t i m e  s t e p    6201                              ( at time 3.0996898E+00 )

 nodal point  x-rot      y-rot       z-rot       x-rot vel   y-rot vel   z-rot vel   x-rot acc   y-rot acc   z-rot acc
    22626 -2.07906E-06 4.97974E-06 1.14328E-05-1.71095E-06-8.24199E-05-1.42201E-04-2.27587E-05-3.94871E-05-1.11221E-04



 n o d a l   p r i n t   o u t   f o r   t i m e  s t e p    6401                              ( at time 3.1996798E+00 )

 nodal point  x-disp     y-disp      z-disp      x-vel       y-vel       z-vel      x-accl      y-accl      z-accl      x-coor      y-coor      z-coor
    22626 -4.89263E-03-4.10117E-02-1.00091E+01-1.01598E-02 1.95872E-02-3.16289E+00-6.13458E-03-8.38361E-03-5.45079E-03 4.79593E+01-2.20708E+01-2.67059E+00



 n o d a l   p r i n t   o u t   f o r   t i m e  s t e p    6401                              ( at time 3.1996798E+00 )

 nodal point  x-rot      y-rot       z-rot       x-rot vel   y-rot vel   z-rot vel   x-rot acc   y-rot acc   z-rot acc
    22626 -2.21443E-06-3.72761E-06-2.99089E-06-1.58551E-06-9.12230E-05-1.51514E-04 1.25446E-06-8.80399E-05-9.31439E-05



 n o d a l   p r i n t   o u t   f o r   t i m e  s t e p    6601                              ( at time 3.2996698E+00 )

 nodal point  x-disp     y-disp      z-disp      x-vel       y-vel       z-vel      x-accl      y-accl      z-accl      x-coor      y-coor      z-coor
    22626 -5.92656E-03-3.91509E-02-1.03253E+01-1.05144E-02 1.76196E-02-3.16257E+00-3.54580E-03-1.96778E-02 3.17129E-03 4.79583E+01-2.20689E+01-2.98683E+00



 n o d a l   p r i n t   o u t   f o r   t i m e  s t e p    6601                              ( at time 3.2996698E+00 )

 nodal point  x-rot      y-rot       z-rot       x-rot vel   y-rot vel   z-rot vel   x-rot acc   y-rot acc   z-rot acc
    22626 -2.46826E-06-1.29737E-05-1.84842E-05-2.31484E-06-9.46485E-05-1.58366E-04-7.29404E-06-3.42585E-05-6.85255E-05



 n o d a l   p r i n t   o u t   f o r   t i m e  s t e p    6801                              ( at time 3.3996598E+00 )

 nodal point  x-disp     y-disp      z-disp      x-vel       y-vel       z-vel      x-accl      y-accl      z-accl      x-coor      y-coor      z-coor
    22626 -7.01322E-03-3.74830E-02-1.06416E+01-1.11050E-02 1.57704E-02-3.16246E+00-5.90671E-03-1.84942E-02 1.11591E-03 4.79572E+01-2.20673E+01-3.30305E+00



 n o d a l   p r i n t   o u t   f o r   t i m e  s t e p    6801                              ( at time 3.3996598E+00 )

 nodal point  x-rot      y-rot       z-rot       x-rot vel   y-rot vel   z-rot vel   x-rot acc   y-rot acc   z-rot acc
    22626 -2.50207E-06-2.23421E-05-3.43879E-05-2.58123E-06-9.23750E-05-1.58257E-04-2.66411E-06 2.27374E-05 1.08990E-06



 n o d a l   p r i n t   o u t   f o r   t i m e  s t e p    7001                              ( at time 3.4996498E+00 )

 nodal point  x-disp     y-disp      z-disp      x-vel       y-vel       z-vel      x-accl      y-accl      z-accl      x-coor      y-coor      z-coor
    22626 -8.15691E-03-3.59812E-02-1.09578E+01-1.18277E-02 1.41863E-02-3.16260E+00-7.22842E-03-1.58427E-02-1.44496E-03 4.79560E+01-2.20658E+01-3.61928E+00



 n o d a l   p r i n t   o u t   f o r   t i m e  s t e p    7001                              ( at time 3.4996498E+00 )

 nodal point  x-rot      y-rot       z-rot       x-rot vel   y-rot vel   z-rot vel   x-rot acc   y-rot acc   z-rot acc
    22626 -2.49744E-06-3.14239E-05-4.97040E-05 6.04378E-07-9.06241E-05-1.51538E-04 3.18593E-05 1.75111E-05 6.71972E-05



 n o d a l   p r i n t   o u t   f o r   t i m e  s t e p    7201                              ( at time 3.5996397E+00 )

 nodal point  x-disp     y-disp      z-disp      x-vel       y-vel       z-vel      x-accl      y-accl      z-accl      x-coor      y-coor      z-coor
    22626 -9.36202E-03-3.46739E-02-1.12740E+01-1.19152E-02 1.16932E-02-3.16234E+00-8.74144E-04-2.49332E-02 2.65625E-03 4.79548E+01-2.20645E+01-3.93550E+00



 n o d a l   p r i n t   o u t   f o r   t i m e  s t e p    7201                              ( at time 3.5996397E+00 )

 nodal point  x-rot      y-rot       z-rot       x-rot vel   y-rot vel   z-rot vel   x-rot acc   y-rot acc   z-rot acc
    22626 -2.48637E-06-4.03565E-05-6.45556E-05 2.53648E-06-8.70957E-05-1.41199E-04 1.93230E-05 3.52879E-05 1.03396E-04



 n o d a l   p r i n t   o u t   f o r   t i m e  s t e p    7401                              ( at time 3.6996297E+00 )

 nodal point  x-disp     y-disp      z-disp      x-vel       y-vel       z-vel      x-accl      y-accl      z-accl      x-coor      y-coor      z-coor
    22626 -1.05432E-02-3.36714E-02-1.15901E+01-1.16839E-02 8.27313E-03-3.16129E+00 2.31246E-03-3.42040E-02 1.04342E-02 4.79536E+01-2.20635E+01-4.25165E+00



 n o d a l   p r i n t   o u t   f o r   t i m e  s t e p    7401                              ( at time 3.6996297E+00 )

 nodal point  x-rot      y-rot       z-rot       x-rot vel   y-rot vel   z-rot vel   x-rot acc   y-rot acc   z-rot acc
    22626 -2.19565E-06-4.88144E-05-7.85160E-05 4.06023E-06-8.24631E-05-1.37303E-04 1.52390E-05 4.63297E-05 3.89647E-05



 n o d a l   p r i n t   o u t   f o r   t i m e  s t e p    7601                              ( at time 3.7996197E+00 )

 nodal point  x-disp     y-disp      z-disp      x-vel       y-vel       z-vel      x-accl      y-accl      z-accl      x-coor      y-coor      z-coor
    22626 -1.16869E-02-3.29844E-02-1.19062E+01-1.11970E-02 5.52341E-03-3.16054E+00 4.86952E-03-2.75000E-02 7.52525E-03 4.79525E+01-2.20628E+01-4.56770E+00



 n o d a l   p r i n t   o u t   f o r   t i m e  s t e p    7601                              ( at time 3.7996197E+00 )

 nodal point  x-rot      y-rot       z-rot       x-rot vel   y-rot vel   z-rot vel   x-rot acc   y-rot acc   z-rot acc
    22626 -1.69314E-06-5.67059E-05-9.17973E-05 5.81377E-06-7.28580E-05-1.21370E-04 1.75371E-05 9.60613E-05 1.59345E-04



 n o d a l   p r i n t   o u t   f o r   t i m e  s t e p    7801                              ( at time 3.8996097E+00 )

 nodal point  x-disp     y-disp      z-disp      x-vel       y-vel       z-vel      x-accl      y-accl      z-accl      x-coor      y-coor      z-coor
    22626 -1.27744E-02-3.25330E-02-1.22222E+01-1.05310E-02 3.72726E-03-3.16043E+00 6.66106E-03-1.79634E-02 1.15168E-03 4.79514E+01-2.20623E+01-4.88372E+00



 n o d a l   p r i n t   o u t   f o r   t i m e  s t e p    7801                              ( at time 3.8996097E+00 )

 nodal point  x-rot      y-rot       z-rot       x-rot vel   y-rot vel   z-rot vel   x-rot acc   y-rot acc   z-rot acc
    22626 -1.25277E-06-6.32799E-05-1.02770E-04 1.46747E-06-5.67167E-05-9.43273E-05-4.34672E-05 1.61428E-04 2.70457E-04



 n o d a l   p r i n t   o u t   f o r   t i m e  s t e p    8001                              ( at time 3.9995997E+00 )

 nodal point  x-disp     y-disp      z-disp      x-vel       y-vel       z-vel      x-accl      y-accl      z-accl      x-coor      y-coor      z-coor
    22626 -1.37951E-02-3.22165E-02-1.25383E+01-9.85982E-03 2.55220E-03-3.16073E+00 6.71231E-03-1.17517E-02-2.99961E-03 4.79504E+01-2.20620E+01-5.19975E+00



 n o d a l   p r i n t   o u t   f o r   t i m e  s t e p    8001                              ( at time 3.9995997E+00 )

 nodal point  x-rot      y-rot       z-rot       x-rot vel   y-rot vel   z-rot vel   x-rot acc   y-rot acc   z-rot acc
    22626 -1.03259E-06-6.83578E-05-1.11169E-04 9.29985E-07-4.47590E-05-7.64487E-05-5.37540E-06 1.19589E-04 1.78804E-04



 n o d a l   p r i n t   o u t   f o r   t i m e  s t e p    8201                              ( at time 4.0995897E+00 )

 nodal point  x-disp     y-disp      z-disp      x-vel       y-vel       z-vel      x-accl      y-accl      z-accl      x-coor      y-coor      z-coor
    22626 -1.47027E-02-3.20815E-02-1.28543E+01-8.14660E-03-3.34687E-05-3.16018E+00 1.71339E-02-2.58593E-02 5.44125E-03 4.79495E+01-2.20619E+01-5.51576E+00



 n o d a l   p r i n t   o u t   f o r   t i m e  s t e p    8201                              ( at time 4.0995897E+00 )

 nodal point  x-rot      y-rot       z-rot       x-rot vel   y-rot vel   z-rot vel   x-rot acc   y-rot acc   z-rot acc
    22626 -9.17910E-07-7.22278E-05-1.17644E-04 1.15301E-06-2.89760E-05-5.04572E-05 2.23052E-06 1.57846E-04 2.59941E-04



 n o d a l   p r i n t   o u t   f o r   t i m e  s t e p    8401                              ( at time 4.1995797E+00 )

 nodal point  x-disp     y-disp      z-disp      x-vel       y-vel       z-vel      x-accl      y-accl      z-accl      x-coor      y-coor      z-coor
    22626 -1.54351E-02-3.22112E-02-1.31702E+01-6.41523E-03-2.48941E-03-3.15954E+00 1.73155E-02-2.45619E-02 6.41172E-03 4.79487E+01-2.20620E+01-5.83172E+00



 n o d a l   p r i n t   o u t   f o r   t i m e  s t e p    8401                              ( at time 4.1995797E+00 )

 nodal point  x-rot      y-rot       z-rot       x-rot vel   y-rot vel   z-rot vel   x-rot acc   y-rot acc   z-rot acc
    22626 -7.45452E-07-7.42039E-05-1.20966E-04 1.47144E-06-9.94834E-06-1.62683E-05 3.18456E-06 1.90296E-04 3.41924E-04



 n o d a l   p r i n t   o u t   f o r   t i m e  s t e p    8601                              ( at time 4.2995697E+00 )

 nodal point  x-disp     y-disp      z-disp      x-vel       y-vel       z-vel      x-accl      y-accl      z-accl      x-coor      y-coor      z-coor
    22626 -1.60100E-02-3.25795E-02-1.34861E+01-4.92267E-03-4.55729E-03-3.15943E+00 1.49271E-02-2.06809E-02 1.09684E-03 4.79482E+01-2.20624E+01-6.14762E+00



 n o d a l   p r i n t   o u t   f o r   t i m e  s t e p    8601                              ( at time 4.2995697E+00 )

 nodal point  x-rot      y-rot       z-rot       x-rot vel   y-rot vel   z-rot vel   x-rot acc   y-rot acc   z-rot acc
    22626 -6.07344E-07-7.42769E-05-1.21126E-04 1.34411E-06 6.48372E-06 1.22141E-05-1.27341E-06 1.64337E-04 2.84853E-04



 n o d a l   p r i n t   o u t   f o r   t i m e  s t e p    8801                              ( at time 4.3995597E+00 )

 nodal point  x-disp     y-disp      z-disp      x-vel       y-vel       z-vel      x-accl      y-accl      z-accl      x-coor      y-coor      z-coor
    22626 -1.64151E-02-3.30729E-02-1.38021E+01-3.19871E-03-5.37551E-03-3.16003E+00 1.72413E-02-8.18301E-03-5.97776E-03 4.79478E+01-2.20629E+01-6.46356E+00



 n o d a l   p r i n t   o u t   f o r   t i m e  s t e p    8801                              ( at time 4.3995597E+00 )

 nodal point  x-rot      y-rot       z-rot       x-rot vel   y-rot vel   z-rot vel   x-rot acc   y-rot acc   z-rot acc
    22626 -4.08410E-07-7.25818E-05-1.18097E-04 2.55252E-06 2.65294E-05 4.66329E-05 1.20853E-05 2.00477E-04 3.44222E-04



 n o d a l   p r i n t   o u t   f o r   t i m e  s t e p    9001                              ( at time 4.4995497E+00 )

 nodal point  x-disp     y-disp      z-disp      x-vel       y-vel       z-vel      x-accl      y-accl      z-accl      x-coor      y-coor      z-coor
    22626 -1.66501E-02-3.37099E-02-1.41180E+01-1.37318E-03-7.71411E-03-3.15963E+00 1.82571E-02-2.33882E-02 3.97959E-03 4.79475E+01-2.20635E+01-6.77952E+00



 n o d a l   p r i n t   o u t   f o r   t i m e  s t e p    9001                              ( at time 4.4995497E+00 )

 nodal point  x-rot      y-rot       z-rot       x-rot vel   y-rot vel   z-rot vel   x-rot acc   y-rot acc   z-rot acc
    22626 -7.96872E-08-6.86906E-05-1.11333E-04 5.41428E-06 4.72008E-05 8.28478E-05 2.86203E-05 2.06734E-04 3.62184E-04



 n o d a l   p r i n t   o u t   f o r   t i m e  s t e p    9201                              ( at time 4.5995397E+00 )

 nodal point  x-disp     y-disp      z-disp      x-vel       y-vel       z-vel      x-accl      y-accl      z-accl      x-coor      y-coor      z-coor
    22626 -1.66876E-02-3.46344E-02-1.44339E+01 6.00325E-04-1.05621E-02-3.15907E+00 1.97370E-02-2.84831E-02 5.58433E-03 4.79475E+01-2.20644E+01-7.09542E+00



 n o d a l   p r i n t   o u t   f o r   t i m e  s t e p    9201                              ( at time 4.5995397E+00 )

 nodal point  x-rot      y-rot       z-rot       x-rot vel   y-rot vel   z-rot vel   x-rot acc   y-rot acc   z-rot acc
    22626  3.89167E-07-6.31298E-05-1.01554E-04 5.51056E-06 6.36397E-05 1.09743E-04 9.62957E-07 1.64405E-04 2.68978E-04



 n o d a l   p r i n t   o u t   f o r   t i m e  s t e p    9401                              ( at time 4.6995297E+00 )

 nodal point  x-disp     y-disp      z-disp      x-vel       y-vel       z-vel      x-accl      y-accl      z-accl      x-coor      y-coor      z-coor
    22626 -1.65121E-02-3.57660E-02-1.47498E+01 2.85885E-03-1.20639E-02-3.15885E+00 2.25875E-02-1.50188E-02 2.25328E-03 4.79477E+01-2.20656E+01-7.41129E+00



 n o d a l   p r i n t   o u t   f o r   t i m e  s t e p    9401                              ( at time 4.6995297E+00 )

 nodal point  x-rot      y-rot       z-rot       x-rot vel   y-rot vel   z-rot vel   x-rot acc   y-rot acc   z-rot acc
    22626  8.62227E-07-5.55404E-05-8.85009E-05 3.00619E-06 8.94095E-05 1.51783E-04-2.50462E-05 2.57725E-04 4.20444E-04



 n o d a l   p r i n t   o u t   f o r   t i m e  s t e p    9601                              ( at time 4.7995197E+00 )

 nodal point  x-disp     y-disp      z-disp      x-vel       y-vel       z-vel      x-accl      y-accl      z-accl      x-coor      y-coor      z-coor
    22626 -1.61216E-02-3.70480E-02-1.50656E+01 4.86278E-03-1.33581E-02-3.15864E+00 2.00414E-02-1.29439E-02 2.06730E-03 4.79481E+01-2.20668E+01-7.72713E+00



 n o d a l   p r i n t   o u t   f o r   t i m e  s t e p    9601                              ( at time 4.7995197E+00 )

 nodal point  x-rot      y-rot       z-rot       x-rot vel   y-rot vel   z-rot vel   x-rot acc   y-rot acc   z-rot acc
    22626  1.19091E-06-4.52118E-05-7.12588E-05 5.73860E-07 1.17858E-04 1.92736E-04-2.43258E-05 2.84515E-04 4.09570E-04



 n o d a l   p r i n t   o u t   f o r   t i m e  s t e p    9801                              ( at time 4.8995097E+00 )

 nodal point  x-disp     y-disp      z-disp      x-vel       y-vel       z-vel      x-accl      y-accl      z-accl      x-coor      y-coor      z-coor
    22626 -1.55319E-02-3.84254E-02-1.53814E+01 6.91623E-03-1.43141E-02-3.15768E+00 2.05365E-02-9.56097E-03 9.64501E-03 4.79486E+01-2.20682E+01-8.04292E+00



 n o d a l   p r i n t   o u t   f o r   t i m e  s t e p    9801                              ( at time 4.8995097E+00 )

 nodal point  x-rot      y-rot       z-rot       x-rot vel   y-rot vel   z-rot vel   x-rot acc   y-rot acc   z-rot acc
    22626  1.41983E-06-3.19026E-05-5.06431E-05 2.73938E-06 1.48828E-04 2.17931E-04 2.16574E-05 3.09729E-04 2.51982E-04



 n o d a l   p r i n t   o u t   f o r   t i m e  s t e p   10001                              ( at time 4.9994997E+00 )

 nodal point  x-disp     y-disp      z-disp      x-vel       y-vel       z-vel      x-accl      y-accl      z-accl      x-coor      y-coor      z-coor
    22626 -1.47112E-02-3.99434E-02-1.56971E+01 9.43556E-03-1.60098E-02-3.15537E+00 2.51957E-02-1.69581E-02 2.30692E-02 4.79495E+01-2.20697E+01-8.35856E+00



 n o d a l   p r i n t   o u t   f o r   t i m e  s t e p   10001                              ( at time 4.9994997E+00 )

 nodal point  x-rot      y-rot       z-rot       x-rot vel   y-rot vel   z-rot vel   x-rot acc   y-rot acc   z-rot acc
    22626  1.85146E-06-1.49860E-05-2.74524E-05 7.06216E-06 1.92181E-04 2.44274E-04 4.32319E-05 4.33567E-04 2.63450E-04



 n o d a l   p r i n t   o u t   f o r   t i m e  s t e p   10202                              ( at time 5.0999896E+00 )

 nodal point  x-disp     y-disp      z-disp      x-vel       y-vel       z-vel      x-accl      y-accl      z-accl      x-coor      y-coor      z-coor
    22626 -1.36289E-02-4.16033E-02-1.60140E+01 1.20602E-02-1.68587E-02-3.15251E+00 2.61190E-02-8.44814E-03 2.84827E-02 4.79506E+01-2.20714E+01-8.67550E+00



 n o d a l   p r i n t   o u t   f o r   t i m e  s t e p   10202                              ( at time 5.0999896E+00 )

 nodal point  x-rot      y-rot       z-rot       x-rot vel   y-rot vel   z-rot vel   x-rot acc   y-rot acc   z-rot acc
    22626  2.89090E-06 7.34742E-06-1.50830E-06 1.28119E-05 2.51288E-04 2.70193E-04 5.72177E-05 5.88198E-04 2.57929E-04



 n o d a l   p r i n t   o u t   f o r   t i m e  s t e p   10402                              ( at time 5.1999796E+00 )

 nodal point  x-disp     y-disp      z-disp      x-vel       y-vel       z-vel      x-accl      y-accl      z-accl      x-coor      y-coor      z-coor
    22626 -1.23049E-02-4.32700E-02-1.63290E+01 1.42857E-02-1.61258E-02-3.14878E+00 2.22569E-02 7.33005E-03 3.72326E-02 4.79519E+01-2.20731E+01-8.99053E+00



 n o d a l   p r i n t   o u t   f o r   t i m e  s t e p   10402                              ( at time 5.1999796E+00 )

 nodal point  x-rot      y-rot       z-rot       x-rot vel   y-rot vel   z-rot vel   x-rot acc   y-rot acc   z-rot acc
    22626  4.77106E-06 3.63796E-05 2.63983E-05 2.59012E-05 3.28071E-04 2.84097E-04 1.30905E-04 7.67896E-04 1.39047E-04



 n o d a l   p r i n t   o u t   f o r   t i m e  s t e p   10602                              ( at time 5.2999696E+00 )

 nodal point  x-disp     y-disp      z-disp      x-vel       y-vel       z-vel      x-accl      y-accl      z-accl      x-coor      y-coor      z-coor
    22626 -1.07817E-02-4.48138E-02-1.66436E+01 1.60916E-02-1.49095E-02-3.14340E+00 1.80610E-02 1.21643E-02 5.38308E-02 4.79534E+01-2.20746E+01-9.30515E+00



 n o d a l   p r i n t   o u t   f o r   t i m e  s t e p   10602                              ( at time 5.2999696E+00 )

 nodal point  x-rot      y-rot       z-rot       x-rot vel   y-rot vel   z-rot vel   x-rot acc   y-rot acc   z-rot acc
    22626  8.63594E-06 7.38814E-05 5.51445E-05 4.85577E-05 4.27781E-04 2.90780E-04 2.26588E-04 9.97202E-04 6.68449E-05



 n o d a l   p r i n t   o u t   f o r   t i m e  s t e p   10802                              ( at time 5.3999596E+00 )

 nodal point  x-disp     y-disp      z-disp      x-vel       y-vel       z-vel      x-accl      y-accl      z-accl      x-coor      y-coor      z-coor
    22626 -9.07987E-03-4.62222E-02-1.69575E+01 1.82696E-02-1.32925E-02-3.13449E+00 2.17816E-02 1.61710E-02 8.91156E-02 4.79551E+01-2.20760E+01-9.61904E+00



 n o d a l   p r i n t   o u t   f o r   t i m e  s t e p   10802                              ( at time 5.3999596E+00 )

 nodal point  x-rot      y-rot       z-rot       x-rot vel   y-rot vel   z-rot vel   x-rot acc   y-rot acc   z-rot acc
    22626  1.56923E-05 1.22898E-04 8.40659E-05 9.73848E-05 5.58651E-04 2.84578E-04 4.88320E-04 1.30884E-03-6.20257E-05



 n o d a l   p r i n t   o u t   f o r   t i m e  s t e p   11002                              ( at time 5.4999496E+00 )

 nodal point  x-disp     y-disp      z-disp      x-vel       y-vel       z-vel      x-accl      y-accl      z-accl      x-coor      y-coor      z-coor
    22626 -7.17101E-03-4.74264E-02-1.72703E+01 1.96431E-02-1.08044E-02-3.12149E+00 1.37367E-02 2.48840E-02 1.30035E-01 4.79570E+01-2.20772E+01-9.93183E+00



 n o d a l   p r i n t   o u t   f o r   t i m e  s t e p   11002                              ( at time 5.4999496E+00 )

 nodal point  x-rot      y-rot       z-rot       x-rot vel   y-rot vel   z-rot vel   x-rot acc   y-rot acc   z-rot acc
    22626  2.87079E-05 1.87383E-04 1.11846E-04 1.68710E-04 7.36232E-04 2.70616E-04 7.13329E-04 1.77599E-03-1.39642E-04



 n o d a l   p r i n t   o u t   f o r   t i m e  s t e p   11202                              ( at time 5.5999396E+00 )

 nodal point  x-disp     y-disp      z-disp      x-vel       y-vel       z-vel      x-accl      y-accl      z-accl      x-coor      y-coor      z-coor
    22626 -5.19860E-03-4.83359E-02-1.75816E+01 1.96057E-02-7.20340E-03-3.10378E+00-3.73684E-04 3.60137E-02 1.77134E-01 4.79590E+01-2.20781E+01-1.02431E+01



 n o d a l   p r i n t   o u t   f o r   t i m e  s t e p   11202                              ( at time 5.5999396E+00 )

 nodal point  x-rot      y-rot       z-rot       x-rot vel   y-rot vel   z-rot vel   x-rot acc   y-rot acc   z-rot acc
    22626  5.02349E-05 2.71840E-04 1.38335E-04 2.66579E-04 9.60113E-04 2.55795E-04 9.78781E-04 2.23903E-03-1.48222E-04



 n o d a l   p r i n t   o u t   f o r   t i m e  s t e p   11402                              ( at time 5.6999296E+00 )

 nodal point  x-disp     y-disp      z-disp      x-vel       y-vel       z-vel      x-accl      y-accl      z-accl      x-coor      y-coor      z-coor
    22626 -3.26265E-03-4.88285E-02-1.78909E+01 1.88529E-02-2.57710E-03-3.08124E+00-7.52946E-03 4.62675E-02 2.25406E-01 4.79609E+01-2.20786E+01-1.05524E+01



 n o d a l   p r i n t   o u t   f o r   t i m e  s t e p   11402                              ( at time 5.6999296E+00 )

 nodal point  x-rot      y-rot       z-rot       x-rot vel   y-rot vel   z-rot vel   x-rot acc   y-rot acc   z-rot acc
    22626  8.36429E-05 3.80851E-04 1.62912E-04 4.04211E-04 1.22636E-03 2.33300E-04 1.37646E-03 2.66276E-03-2.24969E-04



 n o d a l   p r i n t   o u t   f o r   t i m e  s t e p   11602                              ( at time 5.7999195E+00 )

 nodal point  x-disp     y-disp      z-disp      x-vel       y-vel       z-vel      x-accl      y-accl      z-accl      x-coor      y-coor      z-coor
    22626 -1.48816E-03-4.88611E-02-1.81976E+01 1.65584E-02 2.10617E-03-3.05220E+00-2.29471E-02 4.68374E-02 2.90397E-01 4.79627E+01-2.20787E+01-1.08591E+01



 n o d a l   p r i n t   o u t   f o r   t i m e  s t e p   11602                              ( at time 5.7999195E+00 )

 nodal point  x-rot      y-rot       z-rot       x-rot vel   y-rot vel   z-rot vel   x-rot acc   y-rot acc   z-rot acc
    22626  1.33090E-04 5.18521E-04 1.85029E-04 5.95444E-04 1.53096E-03 2.04776E-04 1.91252E-03 3.04624E-03-2.85275E-04



 n o d a l   p r i n t   o u t   f o r   t i m e  s t e p   11802                              ( at time 5.8999095E+00 )

 nodal point  x-disp     y-disp      z-disp      x-vel       y-vel       z-vel      x-accl      y-accl      z-accl      x-coor      y-coor      z-coor
    22626 -3.90004E-06-4.84627E-02-1.85010E+01 1.27144E-02 6.21848E-03-3.01631E+00-3.84441E-02 4.11272E-02 3.58980E-01 4.79642E+01-2.20783E+01-1.11625E+01



 n o d a l   p r i n t   o u t   f o r   t i m e  s t e p   11802                              ( at time 5.8999095E+00 )

 nodal point  x-rot      y-rot       z-rot       x-rot vel   y-rot vel   z-rot vel   x-rot acc   y-rot acc   z-rot acc
    22626  2.04119E-04 6.89416E-04 2.04405E-04 8.38699E-04 1.89236E-03 1.78601E-04 2.43280E-03 3.61443E-03-2.61770E-04



 n o d a l   p r i n t   o u t   f o r   t i m e  s t e p   12002                              ( at time 5.9998995E+00 )

 nodal point  x-disp     y-disp      z-disp      x-vel       y-vel       z-vel      x-accl      y-accl      z-accl      x-coor      y-coor      z-coor
    22626  1.03193E-03-4.76009E-02-1.88006E+01 7.54084E-03 1.16499E-02-2.97572E+00-5.17406E-02 5.43196E-02 4.05953E-01 4.79652E+01-2.20774E+01-1.14621E+01



 n o d a l   p r i n t   o u t   f o r   t i m e  s t e p   12002                              ( at time 5.9998995E+00 )

 nodal point  x-rot      y-rot       z-rot       x-rot vel   y-rot vel   z-rot vel   x-rot acc   y-rot acc   z-rot acc
    22626  3.02188E-04 8.97709E-04 2.20628E-04 1.13602E-03 2.27278E-03 1.43162E-04 2.97350E-03 3.80453E-03-3.54431E-04



 n o d a l   p r i n t   o u t   f o r   t i m e  s t e p   12202                              ( at time 6.0998895E+00 )

 nodal point  x-disp     y-disp      z-disp      x-vel       y-vel       z-vel      x-accl      y-accl      z-accl      x-coor      y-coor      z-coor
    22626  1.51851E-03-4.61615E-02-1.90959E+01 1.63356E-03 1.71447E-02-2.93065E+00-5.90785E-02 5.49539E-02 4.50693E-01 4.79657E+01-2.20760E+01-1.17574E+01



 n o d a l   p r i n t   o u t   f o r   t i m e  s t e p   12202                              ( at time 6.0998895E+00 )

 nodal point  x-rot      y-rot       z-rot       x-rot vel   y-rot vel   z-rot vel   x-rot acc   y-rot acc   z-rot acc
    22626  4.30797E-04 1.14443E-03 2.33085E-04 1.44290E-03 2.66405E-03 1.10289E-04 3.06907E-03 3.91315E-03-3.28756E-04



 n o d a l   p r i n t   o u t   f o r   t i m e  s t e p   12402                              ( at time 6.1998795E+00 )

 nodal point  x-disp     y-disp      z-disp      x-vel       y-vel       z-vel      x-accl      y-accl      z-accl      x-coor      y-coor      z-coor
    22626  1.37736E-03-4.42509E-02-1.93865E+01-4.48321E-03 2.13067E-02-2.88251E+00-6.11739E-02 4.16237E-02 4.81456E-01 4.79656E+01-2.20740E+01-1.20480E+01



 n o d a l   p r i n t   o u t   f o r   t i m e  s t e p   12402                              ( at time 6.1998795E+00 )

 nodal point  x-rot      y-rot       z-rot       x-rot vel   y-rot vel   z-rot vel   x-rot acc   y-rot acc   z-rot acc
    22626  5.91200E-04 1.43010E-03 2.41930E-04 1.77379E-03 3.05053E-03 7.18606E-05 3.30925E-03 3.86512E-03-3.84325E-04



 n o d a l   p r i n t   o u t   f o r   t i m e  s t e p   12602                              ( at time 6.2998695E+00 )

 nodal point  x-disp     y-disp      z-disp      x-vel       y-vel       z-vel      x-accl      y-accl      z-accl      x-coor      y-coor      z-coor
    22626  6.68111E-04-4.19694E-02-1.96722E+01-9.95455E-03 2.45907E-02-2.83126E+00-5.47189E-02 3.28437E-02 5.12611E-01 4.79648E+01-2.20718E+01-1.23337E+01



 n o d a l   p r i n t   o u t   f o r   t i m e  s t e p   12602                              ( at time 6.2998695E+00 )

 nodal point  x-rot      y-rot       z-rot       x-rot vel   y-rot vel   z-rot vel   x-rot acc   y-rot acc   z-rot acc
    22626  7.84335E-04 1.75352E-03 2.45774E-04 2.09343E-03 3.41362E-03 6.82508E-06 3.19670E-03 3.63126E-03-6.50421E-04



 n o d a l   p r i n t   o u t   f o r   t i m e  s t e p   12802                              ( at time 6.3998595E+00 )

 nodal point  x-disp     y-disp      z-disp      x-vel       y-vel       z-vel      x-accl      y-accl      z-accl      x-coor      y-coor      z-coor
    22626 -4.99891E-04-3.95093E-02-1.99527E+01-1.30519E-02 2.50796E-02-2.77909E+00-3.09761E-02 4.88949E-03 5.21708E-01 4.79637E+01-2.20693E+01-1.26142E+01



 n o d a l   p r i n t   o u t   f o r   t i m e  s t e p   12802                              ( at time 6.3998595E+00 )

 nodal point  x-rot      y-rot       z-rot       x-rot vel   y-rot vel   z-rot vel   x-rot acc   y-rot acc   z-rot acc
    22626  1.00836E-03 2.11239E-03 2.44102E-04 2.38599E-03 3.75526E-03-3.81419E-05 2.92593E-03 3.41673E-03-4.49715E-04



 n o d a l   p r i n t   o u t   f o r   t i m e  s t e p   13002                              ( at time 6.4998495E+00 )

 nodal point  x-disp     y-disp      z-disp      x-vel       y-vel       z-vel      x-accl      y-accl      z-accl      x-coor      y-coor      z-coor
    22626 -1.96811E-03-3.69714E-02-2.02281E+01-1.53312E-02 2.56619E-02-2.72789E+00-2.27956E-02 5.82342E-03 5.12060E-01 4.79622E+01-2.20668E+01-1.28896E+01



 n o d a l   p r i n t   o u t   f o r   t i m e  s t e p   13002                              ( at time 6.4998495E+00 )

 nodal point  x-rot      y-rot       z-rot       x-rot vel   y-rot vel   z-rot vel   x-rot acc   y-rot acc   z-rot acc
    22626  1.26027E-03 2.50352E-03 2.37073E-04 2.64042E-03 4.06561E-03-9.26425E-05 2.54459E-03 3.10390E-03-5.45061E-04



 n o d a l   p r i n t   o u t   f o r   t i m e  s t e p   13202                              ( at time 6.5998395E+00 )

 nodal point  x-disp     y-disp      z-disp      x-vel       y-vel       z-vel      x-accl      y-accl      z-accl      x-coor      y-coor      z-coor
    22626 -3.60703E-03-3.43428E-02-2.04983E+01-1.59193E-02 2.69203E-02-2.67740E+00-5.88152E-03 1.25855E-02 5.04952E-01 4.79606E+01-2.20641E+01-1.31598E+01



 n o d a l   p r i n t   o u t   f o r   t i m e  s t e p   13202                              ( at time 6.5998395E+00 )

 nodal point  x-rot      y-rot       z-rot       x-rot vel   y-rot vel   z-rot vel   x-rot acc   y-rot acc   z-rot acc
    22626  1.53764E-03 2.92415E-03 2.24462E-04 2.90286E-03 4.32794E-03-1.41595E-04 2.62460E-03 2.62348E-03-4.89569E-04



 n o d a l   p r i n t   o u t   f o r   t i m e  s t e p   13402                              ( at time 6.6998295E+00 )

 nodal point  x-disp     y-disp      z-disp      x-vel       y-vel       z-vel      x-accl      y-accl      z-accl      x-coor      y-coor      z-coor
    22626 -5.17578E-03-3.16568E-02-2.07634E+01-1.44663E-02 2.69219E-02-2.62516E+00 1.45313E-02 1.57782E-05 5.22406E-01 4.79590E+01-2.20614E+01-1.34249E+01



 n o d a l   p r i n t   o u t   f o r   t i m e  s t e p   13402                              ( at time 6.6998295E+00 )

 nodal point  x-rot      y-rot       z-rot       x-rot vel   y-rot vel   z-rot vel   x-rot acc   y-rot acc   z-rot acc
    22626  1.84024E-03 3.36891E-03 2.07220E-04 3.15929E-03 4.55603E-03-1.90026E-04 2.56463E-03 2.28120E-03-4.84359E-04



 n o d a l   p r i n t   o u t   f o r   t i m e  s t e p   13602                              ( at time 6.7998195E+00 )

 nodal point  x-disp     y-disp      z-disp      x-vel       y-vel       z-vel      x-accl      y-accl      z-accl      x-coor      y-coor      z-coor
    22626 -6.48839E-03-2.89194E-02-2.10233E+01-1.15243E-02 2.88341E-02-2.57344E+00 2.94229E-02 1.91236E-02 5.17299E-01 4.79577E+01-2.20587E+01-1.36848E+01



 n o d a l   p r i n t   o u t   f o r   t i m e  s t e p   13602                              ( at time 6.7998195E+00 )

 nodal point  x-rot      y-rot       z-rot       x-rot vel   y-rot vel   z-rot vel   x-rot acc   y-rot acc   z-rot acc
    22626  2.16784E-03 3.83426E-03 1.85364E-04 3.41942E-03 4.75567E-03-2.38794E-04 2.60148E-03 1.99654E-03-4.87738E-04



 n o d a l   p r i n t   o u t   f o r   t i m e  s t e p   13802                              ( at time 6.8998095E+00 )

 nodal point  x-disp     y-disp      z-disp      x-vel       y-vel       z-vel      x-accl      y-accl      z-accl      x-coor      y-coor      z-coor
    22626 -7.44165E-03-2.60159E-02-2.12780E+01-6.88771E-03 3.07992E-02-2.52079E+00 4.63706E-02 1.96531E-02 5.26553E-01 4.79567E+01-2.20558E+01-1.39395E+01



 n o d a l   p r i n t   o u t   f o r   t i m e  s t e p   13802                              ( at time 6.8998095E+00 )

 nodal point  x-rot      y-rot       z-rot       x-rot vel   y-rot vel   z-rot vel   x-rot acc   y-rot acc   z-rot acc
    22626  2.52070E-03 4.31780E-03 1.59926E-04 3.67734E-03 4.90968E-03-2.78289E-04 2.57951E-03 1.54028E-03-3.94988E-04



 n o d a l   p r i n t   o u t   f o r   t i m e  s t e p   14002                              ( at time 6.9997995E+00 )

 nodal point  x-disp     y-disp      z-disp      x-vel       y-vel       z-vel      x-accl      y-accl      z-accl      x-coor      y-coor      z-coor
    22626 -7.88892E-03-2.28441E-02-2.15274E+01-1.44466E-03 3.32296E-02-2.46550E+00 5.44360E-02 2.43064E-02 5.52891E-01 4.79563E+01-2.20526E+01-1.41889E+01



 n o d a l   p r i n t   o u t   f o r   t i m e  s t e p   14002                              ( at time 6.9997995E+00 )

 nodal point  x-rot      y-rot       z-rot       x-rot vel   y-rot vel   z-rot vel   x-rot acc   y-rot acc   z-rot acc
    22626  2.90004E-03 4.81816E-03 1.31293E-04 3.92413E-03 5.09672E-03-3.07230E-04 2.46817E-03 1.87062E-03-2.89439E-04



 n o d a l   p r i n t   o u t   f o r   t i m e  s t e p   14202                              ( at time 7.0997895E+00 )

 nodal point  x-disp     y-disp      z-disp      x-vel       y-vel       z-vel      x-accl      y-accl      z-accl      x-coor      y-coor      z-coor
    22626 -7.73297E-03-1.93795E-02-2.17711E+01 5.03748E-03 3.59345E-02-2.40956E+00 6.48277E-02 2.70521E-02 5.59503E-01 4.79564E+01-2.20492E+01-1.44326E+01



 n o d a l   p r i n t   o u t   f o r   t i m e  s t e p   14202                              ( at time 7.0997895E+00 )

 nodal point  x-rot      y-rot       z-rot       x-rot vel   y-rot vel   z-rot vel   x-rot acc   y-rot acc   z-rot acc
    22626  3.30580E-03 5.33452E-03 9.82961E-05 4.17748E-03 5.24642E-03-3.56264E-04 2.53373E-03 1.49713E-03-4.90389E-04



 n o d a l   p r i n t   o u t   f o r   t i m e  s t e p   14402                              ( at time 7.1997794E+00 )

 nodal point  x-disp     y-disp      z-disp      x-vel       y-vel       z-vel      x-accl      y-accl      z-accl      x-coor      y-coor      z-coor
    22626 -6.93154E-03-1.55773E-02-2.20090E+01 1.16448E-02 4.02169E-02-2.34901E+00 6.60796E-02 4.28285E-02 6.05570E-01 4.79572E+01-2.20454E+01-1.46705E+01



 n o d a l   p r i n t   o u t   f o r   t i m e  s t e p   14402                              ( at time 7.1997794E+00 )

 nodal point  x-rot      y-rot       z-rot       x-rot vel   y-rot vel   z-rot vel   x-rot acc   y-rot acc   z-rot acc
    22626  3.74024E-03 5.86845E-03 6.22114E-05 4.49686E-03 5.42016E-03-3.79799E-04 3.19407E-03 1.73756E-03-2.35373E-04



 n o d a l   p r i n t   o u t   f o r   t i m e  s t e p   14602                              ( at time 7.2997694E+00 )

 nodal point  x-disp     y-disp      z-disp      x-vel       y-vel       z-vel      x-accl      y-accl      z-accl      x-coor      y-coor      z-coor
    22626 -5.38473E-03-1.13403E-02-2.22406E+01 1.86134E-02 4.43654E-02-2.28345E+00 6.96935E-02 4.14890E-02 6.55663E-01 4.79588E+01-2.20411E+01-1.49021E+01



 n o d a l   p r i n t   o u t   f o r   t i m e  s t e p   14602                              ( at time 7.2997694E+00 )

 nodal point  x-rot      y-rot       z-rot       x-rot vel   y-rot vel   z-rot vel   x-rot acc   y-rot acc   z-rot acc
    22626  4.20656E-03 6.42098E-03 2.35585E-05 4.84165E-03 5.60761E-03-4.15654E-04 3.44830E-03 1.87470E-03-3.58581E-04



 n o d a l   p r i n t   o u t   f o r   t i m e  s t e p   14802                              ( at time 7.3997594E+00 )

 nodal point  x-disp     y-disp      z-disp      x-vel       y-vel       z-vel      x-accl      y-accl      z-accl      x-coor      y-coor      z-coor
    22626 -3.05782E-03-6.61757E-03-2.24654E+01 2.63282E-02 5.06000E-02-2.21421E+00 7.71556E-02 6.23523E-02 6.92504E-01 4.79611E+01-2.20364E+01-1.51269E+01



 n o d a l   p r i n t   o u t   f o r   t i m e  s t e p   14802                              ( at time 7.3997594E+00 )

 nodal point  x-rot      y-rot       z-rot       x-rot vel   y-rot vel   z-rot vel   x-rot acc   y-rot acc   z-rot acc
    22626  4.70771E-03 6.98993E-03-1.79003E-05 5.19474E-03 5.77354E-03-4.48269E-04 3.53125E-03 1.65947E-03-3.26188E-04



 n o d a l   p r i n t   o u t   f o r   t i m e  s t e p   15002                              ( at time 7.4997494E+00 )

 nodal point  x-disp     y-disp      z-disp      x-vel       y-vel       z-vel      x-accl      y-accl      z-accl      x-coor      y-coor      z-coor
    22626  2.14514E-05-1.35842E-03-2.26831E+01 3.50447E-02 5.50424E-02-2.13956E+00 8.71730E-02 4.44278E-02 7.46529E-01 4.79642E+01-2.20311E+01-1.53446E+01



 n o d a l   p r i n t   o u t   f o r   t i m e  s t e p   15002                              ( at time 7.4997494E+00 )

 nodal point  x-rot      y-rot       z-rot       x-rot vel   y-rot vel   z-rot vel   x-rot acc   y-rot acc   z-rot acc
    22626  5.24635E-03 7.57793E-03-6.17030E-05 5.56070E-03 5.97139E-03-4.74197E-04 3.66000E-03 1.97872E-03-2.59305E-04



 n o d a l   p r i n t   o u t   f o r   t i m e  s t e p   15202                              ( at time 7.5997394E+00 )

 nodal point  x-disp     y-disp      z-disp      x-vel       y-vel       z-vel      x-accl      y-accl      z-accl      x-coor      y-coor      z-coor
    22626  4.00547E-03 4.25653E-03-2.28931E+01 4.37144E-02 5.72558E-02-2.06168E+00 8.67057E-02 2.21361E-02 7.78904E-01 4.79682E+01-2.20255E+01-1.55546E+01



 n o d a l   p r i n t   o u t   f o r   t i m e  s t e p   15202                              ( at time 7.5997394E+00 )

 nodal point  x-rot      y-rot       z-rot       x-rot vel   y-rot vel   z-rot vel   x-rot acc   y-rot acc   z-rot acc
    22626  5.82413E-03 8.18467E-03-1.08590E-04 5.97040E-03 6.16856E-03-4.91404E-04 4.09733E-03 1.97186E-03-1.72082E-04



 n o d a l   p r i n t   o u t   f o r   t i m e  s t e p   15402                              ( at time 7.6997294E+00 )

 nodal point  x-disp     y-disp      z-disp      x-vel       y-vel       z-vel      x-accl      y-accl      z-accl      x-coor      y-coor      z-coor
    22626  8.87912E-03 1.01713E-02-2.30951E+01 5.29931E-02 6.09930E-02-1.98021E+00 9.27968E-02 3.73764E-02 8.14710E-01 4.79731E+01-2.20196E+01-1.57566E+01



 n o d a l   p r i n t   o u t   f o r   t i m e  s t e p   15402                              ( at time 7.6997294E+00 )

 nodal point  x-rot      y-rot       z-rot       x-rot vel   y-rot vel   z-rot vel   x-rot acc   y-rot acc   z-rot acc
    22626  6.44171E-03 8.81078E-03-1.59320E-04 6.36567E-03 6.33849E-03-5.41196E-04 3.95317E-03 1.69945E-03-4.97971E-04



 n o d a l   p r i n t   o u t   f o r   t i m e  s t e p   15602                              ( at time 7.7997194E+00 )

 nodal point  x-disp     y-disp      z-disp      x-vel       y-vel       z-vel      x-accl      y-accl      z-accl      x-coor      y-coor      z-coor
    22626  1.47423E-02 1.63170E-02-2.32888E+01 6.37390E-02 6.31309E-02-1.89514E+00 1.07470E-01 2.13809E-02 8.50858E-01 4.79789E+01-2.20135E+01-1.59503E+01



 n o d a l   p r i n t   o u t   f o r   t i m e  s t e p   15602                              ( at time 7.7997194E+00 )

 nodal point  x-rot      y-rot       z-rot       x-rot vel   y-rot vel   z-rot vel   x-rot acc   y-rot acc   z-rot acc
    22626  7.09699E-03 9.45679E-03-2.14961E-04 6.77197E-03 6.55199E-03-5.92299E-04 4.06334E-03 2.13528E-03-5.11081E-04



 n o d a l   p r i n t   o u t   f o r   t i m e  s t e p   15802                              ( at time 7.8997094E+00 )

 nodal point  x-disp     y-disp      z-disp      x-vel       y-vel       z-vel      x-accl      y-accl      z-accl      x-coor      y-coor      z-coor
    22626  2.15949E-02 2.26232E-02-2.34741E+01 7.24969E-02 6.44826E-02-1.81090E+00 8.75874E-02 1.35183E-02 8.42481E-01 4.79858E+01-2.20072E+01-1.61356E+01



 n o d a l   p r i n t   o u t   f o r   t i m e  s t e p   15802                              ( at time 7.8997094E+00 )

 nodal point  x-rot      y-rot       z-rot       x-rot vel   y-rot vel   z-rot vel   x-rot acc   y-rot acc   z-rot acc
    22626  7.79098E-03 1.01224E-02-2.75576E-04 7.15288E-03 6.73626E-03-6.36105E-04 3.80954E-03 1.84279E-03-4.38101E-04



 n o d a l   p r i n t   o u t   f o r   t i m e  s t e p   16002                              ( at time 7.9996994E+00 )

 nodal point  x-disp     y-disp      z-disp      x-vel       y-vel       z-vel      x-accl      y-accl      z-accl      x-coor      y-coor      z-coor
    22626  2.94556E-02 2.90693E-02-2.36509E+01 8.43636E-02 6.32921E-02-1.72550E+00 1.18678E-01-1.19064E-02 8.54023E-01 4.79936E+01-2.20007E+01-1.63124E+01



 n o d a l   p r i n t   o u t   f o r   t i m e  s t e p   16002                              ( at time 7.9996994E+00 )

 nodal point  x-rot      y-rot       z-rot       x-rot vel   y-rot vel   z-rot vel   x-rot acc   y-rot acc   z-rot acc
    22626  8.52169E-03 1.08072E-02-3.40381E-04 7.50000E-03 6.94795E-03-6.42148E-04 3.47149E-03 2.11713E-03-6.04411E-05



 n o d a l   p r i n t   o u t   f o r   t i m e  s t e p   16202                              ( at time 8.0996894E+00 )

 nodal point  x-disp     y-disp      z-disp      x-vel       y-vel       z-vel      x-accl      y-accl      z-accl      x-coor      y-coor      z-coor
    22626  3.83910E-02 3.54754E-02-2.38192E+01 9.58285E-02 6.39477E-02-1.64080E+00 1.14661E-01 6.55680E-03 8.47142E-01 4.80026E+01-2.19943E+01-1.64807E+01



 n o d a l   p r i n t   o u t   f o r   t i m e  s t e p   16202                              ( at time 8.0996894E+00 )

 nodal point  x-rot      y-rot       z-rot       x-rot vel   y-rot vel   z-rot vel   x-rot acc   y-rot acc   z-rot acc
    22626  9.28863E-03 1.15126E-02-4.08692E-04 7.83870E-03 7.14270E-03-6.88819E-04 3.38735E-03 1.94771E-03-4.66760E-04



 n o d a l   p r i n t   o u t   f o r   t i m e  s t e p   16402                              ( at time 8.1996794E+00 )

 nodal point  x-disp     y-disp      z-disp      x-vel       y-vel       z-vel      x-accl      y-accl      z-accl      x-coor      y-coor      z-coor
    22626  4.84483E-02 4.19123E-02-2.39789E+01 1.06070E-01 6.42364E-02-1.55579E+00 1.02426E-01 2.88739E-03 8.50161E-01 4.80126E+01-2.19879E+01-1.66404E+01



 n o d a l   p r i n t   o u t   f o r   t i m e  s t e p   16402                              ( at time 8.1996794E+00 )

 nodal point  x-rot      y-rot       z-rot       x-rot vel   y-rot vel   z-rot vel   x-rot acc   y-rot acc   z-rot acc
    22626  1.00917E-02 1.22353E-02-4.81228E-04 8.19677E-03 7.29213E-03-7.54015E-04 3.58106E-03 1.49443E-03-6.52021E-04



 n o d a l   p r i n t   o u t   f o r   t i m e  s t e p   16602                              ( at time 8.2996694E+00 )

 nodal point  x-disp     y-disp      z-disp      x-vel       y-vel       z-vel      x-accl      y-accl      z-accl      x-coor      y-coor      z-coor
    22626  5.96155E-02 4.83040E-02-2.41302E+01 1.17400E-01 6.37949E-02-1.46947E+00 1.13312E-01-4.41492E-03 8.63304E-01 4.80238E+01-2.19815E+01-1.67917E+01



 n o d a l   p r i n t   o u t   f o r   t i m e  s t e p   16602                              ( at time 8.2996694E+00 )

 nodal point  x-rot      y-rot       z-rot       x-rot vel   y-rot vel   z-rot vel   x-rot acc   y-rot acc   z-rot acc
    22626  1.09304E-02 1.29751E-02-5.56977E-04 8.56670E-03 7.49145E-03-7.77134E-04 3.69970E-03 1.99347E-03-2.31217E-04



 n o d a l   p r i n t   o u t   f o r   t i m e  s t e p   16802                              ( at time 8.3996594E+00 )

 nodal point  x-disp     y-disp      z-disp      x-vel       y-vel       z-vel      x-accl      y-accl      z-accl      x-coor      y-coor      z-coor
    22626  7.19044E-02 5.44237E-02-2.42729E+01 1.28852E-01 6.06262E-02-1.38376E+00 1.14532E-01-3.16908E-02 8.57132E-01 4.80361E+01-2.19754E+01-1.69344E+01



 n o d a l   p r i n t   o u t   f o r   t i m e  s t e p   16802                              ( at time 8.3996594E+00 )

 nodal point  x-rot      y-rot       z-rot       x-rot vel   y-rot vel   z-rot vel   x-rot acc   y-rot acc   z-rot acc
    22626  1.18037E-02 1.37311E-02-6.33966E-04 8.91922E-03 7.66251E-03-7.90716E-04 3.52559E-03 1.71076E-03-1.35828E-04



 n o d a l   p r i n t   o u t   f o r   t i m e  s t e p   17002                              ( at time 8.4996494E+00 )

 nodal point  x-disp     y-disp      z-disp      x-vel       y-vel       z-vel      x-accl      y-accl      z-accl      x-coor      y-coor      z-coor
    22626  8.54714E-02 6.03228E-02-2.44071E+01 1.40479E-01 5.45726E-02-1.30211E+00 1.16276E-01-6.05422E-02 8.16592E-01 4.80497E+01-2.19695E+01-1.70686E+01



 n o d a l   p r i n t   o u t   f o r   t i m e  s t e p   17002                              ( at time 8.4996494E+00 )

 nodal point  x-rot      y-rot       z-rot       x-rot vel   y-rot vel   z-rot vel   x-rot acc   y-rot acc   z-rot acc
    22626  1.27127E-02 1.45002E-02-7.13691E-04 9.23979E-03 7.71948E-03-7.82607E-04 3.20594E-03 5.69738E-04 8.10944E-05



 n o d a l   p r i n t   o u t   f o r   t i m e  s t e p   17202                              ( at time 8.5996394E+00 )

 nodal point  x-disp     y-disp      z-disp      x-vel       y-vel       z-vel      x-accl      y-accl      z-accl      x-coor      y-coor      z-coor
    22626  1.00105E-01 6.58209E-02-2.45326E+01 1.52696E-01 5.16607E-02-1.21454E+00 1.22188E-01-2.91222E-02 8.75850E-01 4.80643E+01-2.19640E+01-1.71941E+01



 n o d a l   p r i n t   o u t   f o r   t i m e  s t e p   17202                              ( at time 8.5996394E+00 )

 nodal point  x-rot      y-rot       z-rot       x-rot vel   y-rot vel   z-rot vel   x-rot acc   y-rot acc   z-rot acc
    22626  1.36571E-02 1.52826E-02-7.94759E-04 9.60203E-03 7.88293E-03-8.16396E-04 3.62278E-03 1.63464E-03-3.37925E-04



 n o d a l   p r i n t   o u t   f o r   t i m e  s t e p   17402                              ( at time 8.6996293E+00 )

 nodal point  x-disp     y-disp      z-disp      x-vel       y-vel       z-vel      x-accl      y-accl      z-accl      x-coor      y-coor      z-coor
    22626  1.16035E-01 7.08424E-02-2.46495E+01 1.64343E-01 5.05108E-02-1.12223E+00 1.16479E-01-1.14993E-02 9.23188E-01 4.80802E+01-2.19589E+01-1.73110E+01



 n o d a l   p r i n t   o u t   f o r   t i m e  s t e p   17402                              ( at time 8.6996293E+00 )

 nodal point  x-rot      y-rot       z-rot       x-rot vel   y-rot vel   z-rot vel   x-rot acc   y-rot acc   z-rot acc
    22626  1.46381E-02 1.60755E-02-8.76523E-04 9.97471E-03 8.02211E-03-8.69046E-04 3.72712E-03 1.39198E-03-5.26548E-04



 n o d a l   p r i n t   o u t   f o r   t i m e  s t e p   17602                              ( at time 8.7996193E+00 )

 nodal point  x-disp     y-disp      z-disp      x-vel       y-vel       z-vel      x-accl      y-accl      z-accl      x-coor      y-coor      z-coor
    22626  1.33181E-01 7.52660E-02-2.47578E+01 1.75183E-01 4.20350E-02-1.03789E+00 1.08408E-01-8.47666E-02 8.43439E-01 4.80974E+01-2.19545E+01-1.74193E+01



 n o d a l   p r i n t   o u t   f o r   t i m e  s t e p   17602                              ( at time 8.7996193E+00 )

 nodal point  x-rot      y-rot       z-rot       x-rot vel   y-rot vel   z-rot vel   x-rot acc   y-rot acc   z-rot acc
    22626  1.56535E-02 1.68778E-02-9.57419E-04 1.03546E-02 8.07706E-03-8.20226E-04 3.79931E-03 5.49499E-04 4.88253E-04



 n o d a l   p r i n t   o u t   f o r   t i m e  s t e p   17802                              ( at time 8.8996093E+00 )

 nodal point  x-disp     y-disp      z-disp      x-vel       y-vel       z-vel      x-accl      y-accl      z-accl      x-coor      y-coor      z-coor
    22626  1.51460E-01 7.90702E-02-2.48573E+01 1.89092E-01 3.44130E-02-9.54120E-01 1.39109E-01-7.62275E-02 8.37804E-01 4.81156E+01-2.19507E+01-1.75188E+01



 n o d a l   p r i n t   o u t   f o r   t i m e  s t e p   17802                              ( at time 8.8996093E+00 )

 nodal point  x-rot      y-rot       z-rot       x-rot vel   y-rot vel   z-rot vel   x-rot acc   y-rot acc   z-rot acc
    22626  1.67025E-02 1.76927E-02-1.03904E-03 1.06698E-02 8.16830E-03-8.40373E-04 3.15277E-03 9.12528E-04-2.01491E-04



 n o d a l   p r i n t   o u t   f o r   t i m e  s t e p   18002                              ( at time 8.9995993E+00 )

 nodal point  x-disp     y-disp      z-disp      x-vel       y-vel       z-vel      x-accl      y-accl      z-accl      x-coor      y-coor      z-coor
    22626  1.70948E-01 8.21815E-02-2.49481E+01 2.03157E-01 2.68553E-02-8.67130E-01 1.40666E-01-7.55848E-02 8.69993E-01 4.81351E+01-2.19476E+01-1.76096E+01



 n o d a l   p r i n t   o u t   f o r   t i m e  s t e p   18002                              ( at time 8.9995993E+00 )

 nodal point  x-rot      y-rot       z-rot       x-rot vel   y-rot vel   z-rot vel   x-rot acc   y-rot acc   z-rot acc
    22626  1.77871E-02 1.85172E-02-1.12141E-03 1.10051E-02 8.29318E-03-7.87934E-04 3.35297E-03 1.24894E-03 5.24437E-04



 n o d a l   p r i n t   o u t   f o r   t i m e  s t e p   18202                              ( at time 9.0995893E+00 )

 nodal point  x-disp     y-disp      z-disp      x-vel       y-vel       z-vel      x-accl      y-accl      z-accl      x-coor      y-coor      z-coor
    22626  1.91730E-01 8.45665E-02-2.50306E+01 2.12898E-01 2.07750E-02-7.78677E-01 9.74207E-02-6.08095E-02 8.84613E-01 4.81559E+01-2.19452E+01-1.76921E+01



 n o d a l   p r i n t   o u t   f o r   t i m e  s t e p   18202                              ( at time 9.0995893E+00 )

 nodal point  x-rot      y-rot       z-rot       x-rot vel   y-rot vel   z-rot vel   x-rot acc   y-rot acc   z-rot acc
    22626  1.89053E-02 1.93498E-02-1.20007E-03 1.13301E-02 8.41625E-03-7.81833E-04 3.24977E-03 1.23082E-03 6.10229E-05



 n o d a l   p r i n t   o u t   f o r   t i m e  s t e p   18402                              ( at time 9.1995793E+00 )

 nodal point  x-disp     y-disp      z-disp      x-vel       y-vel       z-vel      x-accl      y-accl      z-accl      x-coor      y-coor      z-coor
    22626  2.13762E-01 8.63127E-02-2.51046E+01 2.24941E-01 1.49071E-02-7.00034E-01 1.20442E-01-5.86851E-02 7.86513E-01 4.81779E+01-2.19435E+01-1.77661E+01



 n o d a l   p r i n t   o u t   f o r   t i m e  s t e p   18402                              ( at time 9.1995793E+00 )

 nodal point  x-rot      y-rot       z-rot       x-rot vel   y-rot vel   z-rot vel   x-rot acc   y-rot acc   z-rot acc
    22626  2.00556E-02 2.01924E-02-1.27890E-03 1.16955E-02 8.46326E-03-7.82359E-04 3.65507E-03 4.70123E-04-5.26658E-06



 n o d a l   p r i n t   o u t   f o r   t i m e  s t e p   18602                              ( at time 9.2995693E+00 )

 nodal point  x-disp     y-disp      z-disp      x-vel       y-vel       z-vel      x-accl      y-accl      z-accl      x-coor      y-coor      z-coor
    22626  2.37061E-01 8.74790E-02-2.51702E+01 2.42528E-01 4.70225E-03-6.15358E-01 1.75888E-01-1.02058E-01 8.46844E-01 4.82012E+01-2.19423E+01-1.78317E+01



 n o d a l   p r i n t   o u t   f o r   t i m e  s t e p   18602                              ( at time 9.2995693E+00 )

 nodal point  x-rot      y-rot       z-rot       x-rot vel   y-rot vel   z-rot vel   x-rot acc   y-rot acc   z-rot acc
    22626  2.12376E-02 2.10445E-02-1.35434E-03 1.19422E-02 8.55490E-03-6.92321E-04 2.46655E-03 9.16523E-04 9.00471E-04



 n o d a l   p r i n t   o u t   f o r   t i m e  s t e p   18802                              ( at time 9.3995593E+00 )

 nodal point  x-disp     y-disp      z-disp      x-vel       y-vel       z-vel      x-accl      y-accl      z-accl      x-coor      y-coor      z-coor
    22626  2.61679E-01 8.80342E-02-2.52272E+01 2.52748E-01 7.63849E-03-5.28980E-01 1.02211E-01 2.93653E-02 8.63870E-01 4.82259E+01-2.19418E+01-1.78887E+01



 n o d a l   p r i n t   o u t   f o r   t i m e  s t e p   18802                              ( at time 9.3995593E+00 )

 nodal point  x-rot      y-rot       z-rot       x-rot vel   y-rot vel   z-rot vel   x-rot acc   y-rot acc   z-rot acc
    22626  2.24545E-02 2.19078E-02-1.43001E-03 1.23778E-02 8.72170E-03-7.47447E-04 4.35681E-03 1.66812E-03-5.51318E-04



 n o d a l   p r i n t   o u t   f o r   t i m e  s t e p   19002                              ( at time 9.4995493E+00 )

 nodal point  x-disp     y-disp      z-disp      x-vel       y-vel       z-vel      x-accl      y-accl      z-accl      x-coor      y-coor      z-coor
    22626  2.87785E-01 8.81764E-02-2.52766E+01 2.65117E-01-1.60567E-03-4.50029E-01 1.23695E-01-9.24510E-02 7.89590E-01 4.82520E+01-2.19416E+01-1.79381E+01



 n o d a l   p r i n t   o u t   f o r   t i m e  s t e p   19002                              ( at time 9.4995493E+00 )

 nodal point  x-rot      y-rot       z-rot       x-rot vel   y-rot vel   z-rot vel   x-rot acc   y-rot acc   z-rot acc
    22626  2.37009E-02 2.27794E-02-1.50104E-03 1.25596E-02 8.78002E-03-6.97868E-04 1.81833E-03 5.83281E-04 4.95845E-04



 n o d a l   p r i n t   o u t   f o r   t i m e  s t e p   19202                              ( at time 9.5995393E+00 )

 nodal point  x-disp     y-disp      z-disp      x-vel       y-vel       z-vel      x-accl      y-accl      z-accl      x-coor      y-coor      z-coor
    22626  3.15313E-01 8.76603E-02-2.53177E+01 2.83340E-01-7.01733E-03-3.77504E-01 1.82247E-01-5.41216E-02 7.25314E-01 4.82795E+01-2.19421E+01-1.79792E+01



 n o d a l   p r i n t   o u t   f o r   t i m e  s t e p   19202                              ( at time 9.5995393E+00 )

 nodal point  x-rot      y-rot       z-rot       x-rot vel   y-rot vel   z-rot vel   x-rot acc   y-rot acc   z-rot acc
    22626  2.49736E-02 2.36630E-02-1.56904E-03 1.29353E-02 8.83676E-03-6.55099E-04 3.75757E-03 5.67414E-04 4.27729E-04



 n o d a l   p r i n t   o u t   f o r   t i m e  s t e p   19402                              ( at time 9.6995293E+00 )

 nodal point  x-disp     y-disp      z-disp      x-vel       y-vel       z-vel      x-accl      y-accl      z-accl      x-coor      y-coor      z-coor
    22626  3.44014E-01 8.70094E-02-2.53512E+01 2.93451E-01-6.30707E-03-2.98474E-01 1.01119E-01 7.10334E-03 7.90380E-01 4.83082E+01-2.19428E+01-1.80127E+01



 n o d a l   p r i n t   o u t   f o r   t i m e  s t e p   19402                              ( at time 9.6995293E+00 )

 nodal point  x-rot      y-rot       z-rot       x-rot vel   y-rot vel   z-rot vel   x-rot acc   y-rot acc   z-rot acc
    22626  2.62804E-02 2.45567E-02-1.63697E-03 1.32198E-02 8.97681E-03-7.03192E-04 2.84543E-03 1.40070E-03-4.80981E-04



 n o d a l   p r i n t   o u t   f o r   t i m e  s t e p   19602                              ( at time 9.7995193E+00 )

 nodal point  x-disp     y-disp      z-disp      x-vel       y-vel       z-vel      x-accl      y-accl      z-accl      x-coor      y-coor      z-coor
    22626  3.74072E-01 8.57305E-02-2.53779E+01 3.06095E-01-1.82982E-02-2.29820E-01 1.26457E-01-1.19924E-01 6.86607E-01 4.83383E+01-2.19441E+01-1.80394E+01



 n o d a l   p r i n t   o u t   f o r   t i m e  s t e p   19602                              ( at time 9.7995193E+00 )

 nodal point  x-rot      y-rot       z-rot       x-rot vel   y-rot vel   z-rot vel   x-rot acc   y-rot acc   z-rot acc
    22626  2.76094E-02 2.54575E-02-1.70105E-03 1.33520E-02 9.06598E-03-6.25222E-04 1.32223E-03 8.91776E-04 7.79784E-04



 n o d a l   p r i n t   o u t   f o r   t i m e  s t e p   19802                              ( at time 9.8995093E+00 )

 nodal point  x-disp     y-disp      z-disp      x-vel       y-vel       z-vel      x-accl      y-accl      z-accl      x-coor      y-coor      z-coor
    22626  4.05335E-01 8.40830E-02-2.53973E+01 3.19034E-01-1.59778E-02-1.65579E-01 1.29407E-01 2.32062E-02 6.42478E-01 4.83695E+01-2.19457E+01-1.80588E+01



 n o d a l   p r i n t   o u t   f o r   t i m e  s t e p   19802                              ( at time 9.8995093E+00 )

 nodal point  x-rot      y-rot       z-rot       x-rot vel   y-rot vel   z-rot vel   x-rot acc   y-rot acc   z-rot acc
    22626  2.89654E-02 2.63651E-02-1.76471E-03 1.37456E-02 9.10567E-03-6.20868E-04 3.93592E-03 3.96933E-04 4.35437E-05



 n o d a l   p r i n t   o u t   f o r   t i m e  s t e p   20003                              ( at time 9.9999992E+00 )

 nodal point  x-disp     y-disp      z-disp      x-vel       y-vel       z-vel      x-accl      y-accl      z-accl      x-coor      y-coor      z-coor
[...]
    22626  2.42030E-01 1.40454E-01-3.90778E-02 1.77298E-02 7.80732E-03-5.33895E-03-1.45281E-04-2.02618E-04 4.24005E-04



 n o d a l   p r i n t   o u t   f o r   t i m e  s t e p   45205                              ( at time 2.2599738E+01 )

 nodal point  x-disp     y-disp      z-disp      x-vel       y-vel       z-vel      x-accl      y-accl      z-accl      x-coor      y-coor      z-coor
    22626  5.23826E+00-2.03575E+00-1.79553E+01 3.22070E-01-2.38313E-01 6.27100E-01 5.09935E-03-1.18332E-02-1.37193E-02 5.32024E+01-2.40655E+01-1.06168E+01



 n o d a l   p r i n t   o u t   f o r   t i m e  s t e p   45205                              ( at time 2.2599738E+01 )

 nodal point  x-rot      y-rot       z-rot       x-rot vel   y-rot vel   z-rot vel   x-rot acc   y-rot acc   z-rot acc
    22626  2.43800E-01 1.41236E-01-3.96115E-02 1.76779E-02 7.81984E-03-5.31215E-03-5.19055E-04 1.25209E-04 2.68096E-04



 n o d a l   p r i n t   o u t   f o r   t i m e  s t e p   45405                              ( at time 2.2699728E+01 )

 nodal point  x-disp     y-disp      z-disp      x-vel       y-vel       z-vel      x-accl      y-accl      z-accl      x-coor      y-coor      z-coor
    22626  5.27050E+00-2.05964E+00-1.78925E+01 3.23503E-01-2.39218E-01 6.27296E-01 1.43338E-02-9.04690E-03 1.96479E-03 5.32347E+01-2.40894E+01-1.05540E+01



 n o d a l   p r i n t   o u t   f o r   t i m e  s t e p   45405                              ( at time 2.2699728E+01 )

 nodal point  x-rot      y-rot       z-rot       x-rot vel   y-rot vel   z-rot vel   x-rot acc   y-rot acc   z-rot acc
    22626  2.45566E-01 1.42019E-01-4.01413E-02 1.76394E-02 7.83620E-03-5.28550E-03-3.84306E-04 1.63642E-04 2.66458E-04



 n o d a l   p r i n t   o u t   f o r   t i m e  s t e p   45605                              ( at time 2.2799718E+01 )

 nodal point  x-disp     y-disp      z-disp      x-vel       y-vel       z-vel      x-accl      y-accl      z-accl      x-coor      y-coor      z-coor
    22626  5.30284E+00-2.08360E+00-1.78298E+01 3.23772E-01-2.40102E-01 6.27429E-01 2.68782E-03-8.84316E-03 1.32513E-03 5.32670E+01-2.41134E+01-1.04913E+01



 n o d a l   p r i n t   o u t   f o r   t i m e  s t e p   45605                              ( at time 2.2799718E+01 )

 nodal point  x-rot      y-rot       z-rot       x-rot vel   y-rot vel   z-rot vel   x-rot acc   y-rot acc   z-rot acc
    22626  2.47328E-01 1.42802E-01-4.06684E-02 1.76187E-02 7.83982E-03-5.25607E-03-2.06940E-04 3.61573E-05 2.94344E-04



 n o d a l   p r i n t   o u t   f o r   t i m e  s t e p   45805                              ( at time 2.2899708E+01 )

 nodal point  x-disp     y-disp      z-disp      x-vel       y-vel       z-vel      x-accl      y-accl      z-accl      x-coor      y-coor      z-coor
    22626  5.33514E+00-2.10763E+00-1.77672E+01 3.23285E-01-2.40645E-01 6.25592E-01-4.86964E-03-5.42969E-03-1.83668E-02 5.32993E+01-2.41374E+01-1.04287E+01



 n o d a l   p r i n t   o u t   f o r   t i m e  s t e p   45805                              ( at time 2.2899708E+01 )

 nodal point  x-rot      y-rot       z-rot       x-rot vel   y-rot vel   z-rot vel   x-rot acc   y-rot acc   z-rot acc
    22626  2.49087E-01 1.43586E-01-4.11937E-02 1.75768E-02 7.84480E-03-5.22349E-03-4.19104E-04 4.97847E-05 3.25850E-04



 n o d a l   p r i n t   o u t   f o r   t i m e  s t e p   46005                              ( at time 2.2999698E+01 )

 nodal point  x-disp     y-disp      z-disp      x-vel       y-vel       z-vel      x-accl      y-accl      z-accl      x-coor      y-coor      z-coor
    22626  5.36749E+00-2.13174E+00-1.77047E+01 3.23991E-01-2.42008E-01 6.23991E-01 7.06380E-03-1.36331E-02-1.60125E-02 5.33317E+01-2.41615E+01-1.03662E+01



 n o d a l   p r i n t   o u t   f o r   t i m e  s t e p   46005                              ( at time 2.2999698E+01 )

 nodal point  x-rot      y-rot       z-rot       x-rot vel   y-rot vel   z-rot vel   x-rot acc   y-rot acc   z-rot acc
    22626  2.50842E-01 1.44370E-01-4.17150E-02 1.75223E-02 7.84212E-03-5.19698E-03-5.45600E-04-2.67407E-05 2.65149E-04



 n o d a l   p r i n t   o u t   f o r   t i m e  s t e p   46205                              ( at time 2.3099688E+01 )

 nodal point  x-disp     y-disp      z-disp      x-vel       y-vel       z-vel      x-accl      y-accl      z-accl      x-coor      y-coor      z-coor
    22626  5.39986E+00-2.15593E+00-1.76422E+01 3.24203E-01-2.42026E-01 6.25033E-01 2.11918E-03-1.74810E-04 1.04200E-02 5.33640E+01-2.41857E+01-1.03037E+01



 n o d a l   p r i n t   o u t   f o r   t i m e  s t e p   46205                              ( at time 2.3099688E+01 )

 nodal point  x-rot      y-rot       z-rot       x-rot vel   y-rot vel   z-rot vel   x-rot acc   y-rot acc   z-rot acc
    22626  2.52594E-01 1.45155E-01-4.22346E-02 1.75105E-02 7.84710E-03-5.17483E-03-1.17974E-04 4.97940E-05 2.21540E-04



 n o d a l   p r i n t   o u t   f o r   t i m e  s t e p   46405                              ( at time 2.3199678E+01 )

 nodal point  x-disp     y-disp      z-disp      x-vel       y-vel       z-vel      x-accl      y-accl      z-accl      x-coor      y-coor      z-coor
    22626  5.43224E+00-2.18018E+00-1.75800E+01 3.23804E-01-2.42140E-01 6.22919E-01-3.99209E-03-1.14451E-03-2.11413E-02 5.33964E+01-2.42100E+01-1.02415E+01



 n o d a l   p r i n t   o u t   f o r   t i m e  s t e p   46405                              ( at time 2.3199678E+01 )

 nodal point  x-rot      y-rot       z-rot       x-rot vel   y-rot vel   z-rot vel   x-rot acc   y-rot acc   z-rot acc
    22626  2.54343E-01 1.45938E-01-4.27501E-02 1.74692E-02 7.85996E-03-5.14747E-03-4.13117E-04 1.28655E-04 2.73550E-04



 n o d a l   p r i n t   o u t   f o r   t i m e  s t e p   46605                              ( at time 2.3299668E+01 )

 nodal point  x-disp     y-disp      z-disp      x-vel       y-vel       z-vel      x-accl      y-accl      z-accl      x-coor      y-coor      z-coor
    22626  5.46465E+00-2.20447E+00-1.75178E+01 3.23228E-01-2.44160E-01 6.19686E-01-5.75785E-03-2.01988E-02-3.23403E-02 5.34288E+01-2.42343E+01-1.01793E+01



 n o d a l   p r i n t   o u t   f o r   t i m e  s t e p   46605                              ( at time 2.3299668E+01 )

 nodal point  x-rot      y-rot       z-rot       x-rot vel   y-rot vel   z-rot vel   x-rot acc   y-rot acc   z-rot acc
    22626  2.56090E-01 1.46723E-01-4.32639E-02 1.74444E-02 7.83302E-03-5.11995E-03-2.47647E-04-2.69508E-04 2.75306E-04



 n o d a l   p r i n t   o u t   f o r   t i m e  s t e p   46805                              ( at time 2.3399658E+01 )

 nodal point  x-disp     y-disp      z-disp      x-vel       y-vel       z-vel      x-accl      y-accl      z-accl      x-coor      y-coor      z-coor
    22626  5.49708E+00-2.22879E+00-1.74558E+01 3.24133E-01-2.43028E-01 6.18811E-01 9.05299E-03 1.13152E-02-8.74361E-03 5.34613E+01-2.42586E+01-1.01173E+01



 n o d a l   p r i n t   o u t   f o r   t i m e  s t e p   46805                              ( at time 2.3399658E+01 )

 nodal point  x-rot      y-rot       z-rot       x-rot vel   y-rot vel   z-rot vel   x-rot acc   y-rot acc   z-rot acc
    22626  2.57833E-01 1.47506E-01-4.37747E-02 1.74252E-02 7.83080E-03-5.10075E-03-1.92261E-04-2.21303E-05 1.91996E-04



 n o d a l   p r i n t   o u t   f o r   t i m e  s t e p   47005                              ( at time 2.3499648E+01 )

 nodal point  x-disp     y-disp      z-disp      x-vel       y-vel       z-vel      x-accl      y-accl      z-accl      x-coor      y-coor      z-coor
    22626  5.52947E+00-2.25318E+00-1.73940E+01 3.23696E-01-2.44011E-01 6.17559E-01-4.37777E-03-9.82434E-03-1.25253E-02 5.34936E+01-2.42830E+01-1.00555E+01



 n o d a l   p r i n t   o u t   f o r   t i m e  s t e p   47005                              ( at time 2.3499648E+01 )

 nodal point  x-rot      y-rot       z-rot       x-rot vel   y-rot vel   z-rot vel   x-rot acc   y-rot acc   z-rot acc
    22626  2.59575E-01 1.48290E-01-4.42827E-02 1.74035E-02 7.83843E-03-5.06691E-03-2.17037E-04 7.62544E-05 3.38385E-04



 n o d a l   p r i n t   o u t   f o r   t i m e  s t e p   47205                              ( at time 2.3599638E+01 )

 nodal point  x-disp     y-disp      z-disp      x-vel       y-vel       z-vel      x-accl      y-accl      z-accl      x-coor      y-coor      z-coor
    22626  5.56189E+00-2.27755E+00-1.73324E+01 3.24435E-01-2.43623E-01 6.14782E-01 7.39120E-03 3.87428E-03-2.77693E-02 5.35261E+01-2.43073E+01-9.99393E+00



 n o d a l   p r i n t   o u t   f o r   t i m e  s t e p   47205                              ( at time 2.3599638E+01 )

 nodal point  x-rot      y-rot       z-rot       x-rot vel   y-rot vel   z-rot vel   x-rot acc   y-rot acc   z-rot acc
    22626  2.61313E-01 1.49071E-01-4.47884E-02 1.73729E-02 7.80887E-03-5.04714E-03-3.06011E-04-2.95607E-04 1.97737E-04



 n o d a l   p r i n t   o u t   f o r   t i m e  s t e p   47405                              ( at time 2.3699628E+01 )

 nodal point  x-disp     y-disp      z-disp      x-vel       y-vel       z-vel      x-accl      y-accl      z-accl      x-coor      y-coor      z-coor
    22626  5.59431E+00-2.30196E+00-1.72710E+01 3.23781E-01-2.44848E-01 6.12100E-01-6.53625E-03-1.22518E-02-2.68293E-02 5.35585E+01-2.43317E+01-9.93251E+00



 n o d a l   p r i n t   o u t   f o r   t i m e  s t e p   47405                              ( at time 2.3699628E+01 )

 nodal point  x-rot      y-rot       z-rot       x-rot vel   y-rot vel   z-rot vel   x-rot acc   y-rot acc   z-rot acc
    22626  2.63049E-01 1.49853E-01-4.52923E-02 1.73675E-02 7.79940E-03-5.02591E-03-5.36305E-05-9.47381E-05 2.12370E-04



 n o d a l   p r i n t   o u t   f o r   t i m e  s t e p   47605                              ( at time 2.3799618E+01 )

 nodal point  x-disp     y-disp      z-disp      x-vel       y-vel       z-vel      x-accl      y-accl      z-accl      x-coor      y-coor      z-coor
    22626  5.62668E+00-2.32633E+00-1.72099E+01 3.23683E-01-2.43501E-01 6.10980E-01-9.80009E-04 1.34806E-02-1.11986E-02 5.35909E+01-2.43561E+01-9.87138E+00



 n o d a l   p r i n t   o u t   f o r   t i m e  s t e p   47605                              ( at time 2.3799618E+01 )

 nodal point  x-rot      y-rot       z-rot       x-rot vel   y-rot vel   z-rot vel   x-rot acc   y-rot acc   z-rot acc
    22626  2.64783E-01 1.50633E-01-4.57941E-02 1.73332E-02 7.79853E-03-5.00648E-03-3.43696E-04-8.64829E-06 1.94249E-04



 n o d a l   p r i n t   o u t   f o r   t i m e  s t e p   47805                              ( at time 2.3899608E+01 )

 nodal point  x-disp     y-disp      z-disp      x-vel       y-vel       z-vel      x-accl      y-accl      z-accl      x-coor      y-coor      z-coor
    22626  5.65898E+00-2.35079E+00-1.71491E+01 3.23686E-01-2.44461E-01 6.06940E-01 3.06992E-05-9.60468E-03-4.04067E-02 5.36232E+01-2.43806E+01-9.81057E+00



 n o d a l   p r i n t   o u t   f o r   t i m e  s t e p   47805                              ( at time 2.3899608E+01 )

 nodal point  x-rot      y-rot       z-rot       x-rot vel   y-rot vel   z-rot vel   x-rot acc   y-rot acc   z-rot acc
    22626  2.66516E-01 1.51410E-01-4.62939E-02 1.73252E-02 7.76207E-03-4.99544E-03-7.92628E-05-3.64660E-04 1.10488E-04



 n o d a l   p r i n t   o u t   f o r   t i m e  s t e p   48005                              ( at time 2.3999598E+01 )

 nodal point  x-disp     y-disp      z-disp      x-vel       y-vel       z-vel      x-accl      y-accl      z-accl      x-coor      y-coor      z-coor
    22626  5.69129E+00-2.37513E+00-1.70884E+01 3.22527E-01-2.43650E-01 6.04185E-01-1.15938E-02 8.10638E-03-2.75511E-02 5.36555E+01-2.44049E+01-9.74994E+00



 n o d a l   p r i n t   o u t   f o r   t i m e  s t e p   48005                              ( at time 2.3999598E+01 )

 nodal point  x-rot      y-rot       z-rot       x-rot vel   y-rot vel   z-rot vel   x-rot acc   y-rot acc   z-rot acc
    22626  2.68247E-01 1.52188E-01-4.67931E-02 1.73154E-02 7.75912E-03-4.97575E-03-9.81536E-05-2.95029E-05 1.96861E-04



 n o d a l   p r i n t   o u t   f o r   t i m e  s t e p   48205                              ( at time 2.4099588E+01 )

 nodal point  x-disp     y-disp      z-disp      x-vel       y-vel       z-vel      x-accl      y-accl      z-accl      x-coor      y-coor      z-coor
    22626  5.72351E+00-2.39953E+00-1.70283E+01 3.22347E-01-2.43231E-01 6.00538E-01-1.80112E-03 4.19774E-03-3.64748E-02 5.36877E+01-2.44293E+01-9.68975E+00



 n o d a l   p r i n t   o u t   f o r   t i m e  s t e p   48205                              ( at time 2.4099588E+01 )

 nodal point  x-rot      y-rot       z-rot       x-rot vel   y-rot vel   z-rot vel   x-rot acc   y-rot acc   z-rot acc
    22626  2.69977E-01 1.52963E-01-4.72897E-02 1.72993E-02 7.74141E-03-4.97646E-03-1.60891E-04-1.77117E-04-7.12527E-06



 n o d a l   p r i n t   o u t   f o r   t i m e  s t e p   48405                              ( at time 2.4199578E+01 )

 nodal point  x-disp     y-disp      z-disp      x-vel       y-vel       z-vel      x-accl      y-accl      z-accl      x-coor      y-coor      z-coor
    22626  5.75570E+00-2.42381E+00-1.69683E+01 3.20827E-01-2.42775E-01 5.96786E-01-1.51967E-02 4.56011E-03-3.75163E-02 5.37199E+01-2.44536E+01-9.62984E+00



 n o d a l   p r i n t   o u t   f o r   t i m e  s t e p   48405                              ( at time 2.4199578E+01 )

 nodal point  x-rot      y-rot       z-rot       x-rot vel   y-rot vel   z-rot vel   x-rot acc   y-rot acc   z-rot acc
    22626  2.71707E-01 1.53736E-01-4.77863E-02 1.72913E-02 7.72500E-03-4.95223E-03-8.00095E-05-1.64113E-04 2.42371E-04



 n o d a l   p r i n t   o u t   f o r   t i m e  s t e p   48605                              ( at time 2.4299568E+01 )

 nodal point  x-disp     y-disp      z-disp      x-vel       y-vel       z-vel      x-accl      y-accl      z-accl      x-coor      y-coor      z-coor
    22626  5.78776E+00-2.44801E+00-1.69088E+01 3.21029E-01-2.40851E-01 5.93847E-01 2.01363E-03 1.92424E-02-2.93955E-02 5.37519E+01-2.44778E+01-9.57034E+00



 n o d a l   p r i n t   o u t   f o r   t i m e  s t e p   48605                              ( at time 2.4299568E+01 )

 nodal point  x-rot      y-rot       z-rot       x-rot vel   y-rot vel   z-rot vel   x-rot acc   y-rot acc   z-rot acc
    22626  2.73435E-01 1.54507E-01-4.82811E-02 1.72733E-02 7.70333E-03-4.94535E-03-1.80712E-04-2.16697E-04 6.88497E-05



 n o d a l   p r i n t   o u t   f o r   t i m e  s t e p   48805                              ( at time 2.4399558E+01 )

 nodal point  x-disp     y-disp      z-disp      x-vel       y-vel       z-vel      x-accl      y-accl      z-accl      x-coor      y-coor      z-coor
    22626  5.81980E+00-2.47208E+00-1.68497E+01 3.18949E-01-2.41125E-01 5.89368E-01-2.08027E-02-2.74668E-03-4.47922E-02 5.37840E+01-2.45019E+01-9.51119E+00



 n o d a l   p r i n t   o u t   f o r   t i m e  s t e p   48805                              ( at time 2.4399558E+01 )

 nodal point  x-rot      y-rot       z-rot       x-rot vel   y-rot vel   z-rot vel   x-rot acc   y-rot acc   z-rot acc
    22626  2.75163E-01 1.55276E-01-4.87751E-02 1.72692E-02 7.69539E-03-4.93975E-03-4.09447E-05-7.94491E-05 5.59916E-05



 n o d a l   p r i n t   o u t   f o r   t i m e  s t e p   49006                              ( at time 2.4500048E+01 )

 nodal point  x-disp     y-disp      z-disp      x-vel       y-vel       z-vel      x-accl      y-accl      z-accl      x-coor      y-coor      z-coor
    22626  5.85187E+00-2.49616E+00-1.67906E+01 3.18937E-01-2.38113E-01 5.86032E-01-1.15664E-04 2.99721E-02-3.32050E-02 5.38161E+01-2.45260E+01-9.45208E+00



 n o d a l   p r i n t   o u t   f o r   t i m e  s t e p   49006                              ( at time 2.4500048E+01 )

 nodal point  x-rot      y-rot       z-rot       x-rot vel   y-rot vel   z-rot vel   x-rot acc   y-rot acc   z-rot acc
    22626  2.76897E-01 1.56048E-01-4.92708E-02 1.72371E-02 7.65687E-03-4.93645E-03-3.19262E-04-3.83336E-04 3.27714E-05



 n o d a l   p r i n t   o u t   f o r   t i m e  s t e p   49206                              ( at time 2.4600038E+01 )

 nodal point  x-disp     y-disp      z-disp      x-vel       y-vel       z-vel      x-accl      y-accl      z-accl      x-coor      y-coor      z-coor
    22626  5.88368E+00-2.52000E+00-1.67322E+01 3.17257E-01-2.38102E-01 5.83233E-01-1.67987E-02 1.12067E-04-2.79881E-02 5.38479E+01-2.45498E+01-9.39365E+00



 n o d a l   p r i n t   o u t   f o r   t i m e  s t e p   49206                              ( at time 2.4600038E+01 )

 nodal point  x-rot      y-rot       z-rot       x-rot vel   y-rot vel   z-rot vel   x-rot acc   y-rot acc   z-rot acc
    22626  2.78621E-01 1.56813E-01-4.97634E-02 1.72430E-02 7.64361E-03-4.93485E-03 5.95356E-05-1.32563E-04 1.60388E-05



 n o d a l   p r i n t   o u t   f o r   t i m e  s t e p   49406                              ( at time 2.4700028E+01 )

 nodal point  x-disp     y-disp      z-disp      x-vel       y-vel       z-vel      x-accl      y-accl      z-accl      x-coor      y-coor      z-coor
    22626  5.91540E+00-2.54369E+00-1.66741E+01 3.17098E-01-2.35654E-01 5.78376E-01-1.59073E-03 2.44873E-02-4.85718E-02 5.38796E+01-2.45735E+01-9.33556E+00



 n o d a l   p r i n t   o u t   f o r   t i m e  s t e p   49406                              ( at time 2.4700028E+01 )

 nodal point  x-rot      y-rot       z-rot       x-rot vel   y-rot vel   z-rot vel   x-rot acc   y-rot acc   z-rot acc
    22626  2.80344E-01 1.57575E-01-5.02557E-02 1.72136E-02 7.62441E-03-4.92331E-03-2.94833E-04-1.92055E-04 1.15418E-04



 n o d a l   p r i n t   o u t   f o r   t i m e  s t e p   49606                              ( at time 2.4800018E+01 )

 nodal point  x-disp     y-disp      z-disp      x-vel       y-vel       z-vel      x-accl      y-accl      z-accl      x-coor      y-coor      z-coor
    22626  5.94692E+00-2.56729E+00-1.66164E+01 3.14921E-01-2.35233E-01 5.74549E-01-2.17788E-02 4.20385E-03-3.82768E-02 5.39111E+01-2.45971E+01-9.27787E+00



 n o d a l   p r i n t   o u t   f o r   t i m e  s t e p   49606                              ( at time 2.4800018E+01 )

 nodal point  x-rot      y-rot       z-rot       x-rot vel   y-rot vel   z-rot vel   x-rot acc   y-rot acc   z-rot acc
    22626  2.82066E-01 1.58337E-01-5.07472E-02 1.72170E-02 7.59247E-03-4.93292E-03 3.40336E-05-3.19426E-04-9.61213E-05



 n o d a l   p r i n t   o u t   f o r   t i m e  s t e p   49806                              ( at time 2.4900008E+01 )

 nodal point  x-disp     y-disp      z-disp      x-vel       y-vel       z-vel      x-accl      y-accl      z-accl      x-coor      y-coor      z-coor
    22626  5.97840E+00-2.59069E+00-1.65590E+01 3.13707E-01-2.33894E-01 5.72297E-01-1.21404E-02 1.33991E-02-2.25265E-02 5.39426E+01-2.46205E+01-9.22053E+00



 n o d a l   p r i n t   o u t   f o r   t i m e  s t e p   49806                              ( at time 2.4900008E+01 )

 nodal point  x-rot      y-rot       z-rot       x-rot vel   y-rot vel   z-rot vel   x-rot acc   y-rot acc   z-rot acc
    22626  2.83787E-01 1.59097E-01-5.12390E-02 1.72179E-02 7.59258E-03-4.90683E-03 9.05346E-06 1.05251E-06 2.60958E-04



 n o d a l   p r i n t   o u t   f o r   t i m e  s t e p   50006                              ( at time 2.4999998E+01 )

 nodal point  x-disp     y-disp      z-disp      x-vel       y-vel       z-vel      x-accl      y-accl      z-accl      x-coor      y-coor      z-coor
    22626  6.00969E+00-2.61406E+00-1.65021E+01 3.13277E-01-2.32631E-01 5.68332E-01-4.29491E-03 1.26299E-02-3.96532E-02 5.39739E+01-2.46439E+01-9.16362E+00



 n o d a l   p r i n t   o u t   f o r   t i m e  s t e p   50006                              ( at time 2.4999998E+01 )

 nodal point  x-rot      y-rot       z-rot       x-rot vel   y-rot vel   z-rot vel   x-rot acc   y-rot acc   z-rot acc
    22626  2.85507E-01 1.59854E-01-5.17293E-02 1.71972E-02 7.57147E-03-4.91617E-03-2.06828E-04-2.11066E-04-9.34342E-05
