 LSTC 50th% Full_FE H-III Dummy (Beta Version, February 17, 2019)        
                    ls-dyna smp s R16 R16.0_619_d222963 date 03/18/2025

{BEGIN LEGEND}
 Entity #        Title
    22626                                                                                     
{END LEGEND}




 n o d a l   p r i n t   o u t   f o r   t i m e  s t e p       1                              ( at time 0.0000000E+00 )

 nodal point  x-disp     y-disp      z-disp      x-vel       y-vel       z-vel      x-accl      y-accl      z-accl      x-coor      y-coor      z-coor
    22626  0.00000E+00 0.00000E+00 0.00000E+00 0.00000E+00 0.00000E+00-3.12000E+00 0.00000E+00 0.00000E+00 0.00000E+00 4.79642E+01-2.20298E+01 7.33850E+00



 n o d a l   p r i n t   o u t   f o r   t i m e  s t e p       1                              ( at time 0.0000000E+00 )

 nodal point  x-rot      y-rot       z-rot       x-rot vel   y-rot vel   z-rot vel   x-rot acc   y-rot acc   z-rot acc
    22626  0.00000E+00 0.00000E+00 0.00000E+00 0.00000E+00 0.00000E+00 0.00000E+00 0.00000E+00 0.00000E+00 0.00000E+00



 n o d a l   p r i n t   o u t   f o r   t i m e  s t e p     201                              ( at time 9.9989993E-02 )

 nodal point  x-disp     y-disp      z-disp      x-vel       y-vel       z-vel      x-accl      y-accl      z-accl      x-coor      y-coor      z-coor
    22626  8.34055E-07-4.04485E-06-3.12016E-01 4.76504E-05-4.96458E-04-3.12074E+00 4.76552E-04-4.96507E-03-7.42748E-03 4.79642E+01-2.20298E+01 7.02648E+00



 n o d a l   p r i n t   o u t   f o r   t i m e  s t e p     201                              ( at time 9.9989993E-02 )

 nodal point  x-rot      y-rot       z-rot       x-rot vel   y-rot vel   z-rot vel   x-rot acc   y-rot acc   z-rot acc
    22626  9.60868E-09 3.03962E-08 5.26959E-08 1.30693E-06 2.72099E-06 5.21172E-06 1.30706E-05 2.72126E-05 5.21224E-05



 n o d a l   p r i n t   o u t   f o r   t i m e  s t e p     401                              ( at time 1.9997999E-01 )

 nodal point  x-disp     y-disp      z-disp      x-vel       y-vel       z-vel      x-accl      y-accl      z-accl      x-coor      y-coor      z-coor
    22626 -5.12786E-05-5.21541E-04-6.23853E-01-1.09689E-03-1.11128E-02-3.11558E+00-1.14465E-02-1.06174E-01 5.16204E-02 4.79641E+01-2.20303E+01 6.71465E+00



 n o d a l   p r i n t   o u t   f o r   t i m e  s t e p     401                              ( at time 1.9997999E-01 )

 nodal point  x-rot      y-rot       z-rot       x-rot vel   y-rot vel   z-rot vel   x-rot acc   y-rot acc   z-rot acc
    22626  4.60395E-07 1.32977E-06 2.50213E-06 2.63849E-06 1.90518E-05 3.49348E-05 1.33170E-05 1.63324E-04 2.97261E-04



 n o d a l   p r i n t   o u t   f o r   t i m e  s t e p     601                              ( at time 2.9996998E-01 )

 nodal point  x-disp     y-disp      z-disp      x-vel       y-vel       z-vel      x-accl      y-accl      z-accl      x-coor      y-coor      z-coor
    22626 -2.46045E-05-1.97636E-03-9.35238E-01 1.66121E-03-1.60443E-02-3.11415E+00 2.75837E-02-4.93198E-02 1.43256E-02 4.79642E+01-2.20318E+01 6.40326E+00



 n o d a l   p r i n t   o u t   f o r   t i m e  s t e p     601                              ( at time 2.9996998E-01 )

 nodal point  x-rot      y-rot       z-rot       x-rot vel   y-rot vel   z-rot vel   x-rot acc   y-rot acc   z-rot acc
    22626  6.75157E-07 2.41144E-06 4.82773E-06 8.22284E-06 5.36968E-06 1.47179E-05 5.58491E-05-1.36835E-04-2.02190E-04



 n o d a l   p r i n t   o u t   f o r   t i m e  s t e p     801                              ( at time 3.9995997E-01 )

 nodal point  x-disp     y-disp      z-disp      x-vel       y-vel       z-vel      x-accl      y-accl      z-accl      x-coor      y-coor      z-coor
    22626  5.94618E-05-3.57406E-03-1.24663E+00 1.92355E-04-1.73906E-02-3.11353E+00-1.46900E-02-1.34642E-02 6.16135E-03 4.79642E+01-2.20334E+01 6.09187E+00



 n o d a l   p r i n t   o u t   f o r   t i m e  s t e p     801                              ( at time 3.9995997E-01 )

 nodal point  x-rot      y-rot       z-rot       x-rot vel   y-rot vel   z-rot vel   x-rot acc   y-rot acc   z-rot acc
    22626  1.58190E-06 3.68112E-06 6.68128E-06 6.25208E-06 2.42870E-05 3.82706E-05-1.97096E-05 1.89192E-04 2.35550E-04



 n o d a l   p r i n t   o u t   f o r   t i m e  s t e p    1001                              ( at time 4.9994997E-01 )

 nodal point  x-disp     y-disp      z-disp      x-vel       y-vel       z-vel      x-accl      y-accl      z-accl      x-coor      y-coor      z-coor
    22626  7.27685E-05-5.63144E-03-1.55782E+00 8.89671E-04-2.38457E-02-3.11085E+00 6.97386E-03-6.45576E-02 2.68105E-02 4.79643E+01-2.20354E+01 5.78068E+00



 n o d a l   p r i n t   o u t   f o r   t i m e  s t e p    1001                              ( at time 4.9994997E-01 )

 nodal point  x-rot      y-rot       z-rot       x-rot vel   y-rot vel   z-rot vel   x-rot acc   y-rot acc   z-rot acc
    22626  1.49396E-06 6.64847E-06 1.18371E-05-4.87743E-06 4.36920E-05 7.18903E-05-1.11306E-04 1.94069E-04 3.36231E-04



 n o d a l   p r i n t   o u t   f o r   t i m e  s t e p    1201                              ( at time 5.9993996E-01 )

 nodal point  x-disp     y-disp      z-disp      x-vel       y-vel       z-vel      x-accl      y-accl      z-accl      x-coor      y-coor      z-coor
    22626  5.29690E-05-8.13743E-03-1.86888E+00-5.67971E-04-2.61264E-02-3.11084E+00-1.45779E-02-2.28094E-02 1.04915E-04 4.79642E+01-2.20379E+01 5.46962E+00



 n o d a l   p r i n t   o u t   f o r   t i m e  s t e p    1201                              ( at time 5.9993996E-01 )

 nodal point  x-rot      y-rot       z-rot       x-rot vel   y-rot vel   z-rot vel   x-rot acc   y-rot acc   z-rot acc
    22626  1.26568E-06 9.87470E-06 1.77366E-05-2.10828E-06 2.62844E-05 5.28844E-05 2.76943E-05-1.74094E-04-1.90078E-04



 n o d a l   p r i n t   o u t   f o r   t i m e  s t e p    1401                              ( at time 6.9992995E-01 )

 nodal point  x-disp     y-disp      z-disp      x-vel       y-vel       z-vel      x-accl      y-accl      z-accl      x-coor      y-coor      z-coor
    22626  1.96857E-05-1.10207E-02-2.17976E+00 7.15343E-04-3.22446E-02-3.10770E+00 1.28344E-02-6.11875E-02 3.14625E-02 4.79642E+01-2.20408E+01 5.15874E+00



 n o d a l   p r i n t   o u t   f o r   t i m e  s t e p    1401                              ( at time 6.9992995E-01 )

 nodal point  x-rot      y-rot       z-rot       x-rot vel   y-rot vel   z-rot vel   x-rot acc   y-rot acc   z-rot acc
    22626  1.10217E-06 1.30694E-05 2.27048E-05-2.39653E-06 3.78866E-05 5.93400E-05-2.88280E-06 1.16034E-04 6.45622E-05



 n o d a l   p r i n t   o u t   f o r   t i m e  s t e p    1601                              ( at time 7.9991994E-01 )

 nodal point  x-disp     y-disp      z-disp      x-vel       y-vel       z-vel      x-accl      y-accl      z-accl      x-coor      y-coor      z-coor
    22626  1.33067E-04-1.45710E-02-2.49038E+00 1.37040E-03-3.68156E-02-3.10600E+00 6.55118E-03-4.57149E-02 1.69580E-02 4.79643E+01-2.20444E+01 4.84812E+00



 n o d a l   p r i n t   o u t   f o r   t i m e  s t e p    1601                              ( at time 7.9991994E-01 )

 nodal point  x-rot      y-rot       z-rot       x-rot vel   y-rot vel   z-rot vel   x-rot acc   y-rot acc   z-rot acc
    22626  1.00731E-06 1.72057E-05 2.96641E-05 2.94445E-06 4.87335E-05 7.63070E-05 5.34151E-05 1.08479E-04 1.69688E-04



 n o d a l   p r i n t   o u t   f o r   t i m e  s t e p    1801                              ( at time 8.9990994E-01 )

 nodal point  x-disp     y-disp      z-disp      x-vel       y-vel       z-vel      x-accl      y-accl      z-accl      x-coor      y-coor      z-coor
    22626  2.07405E-04-1.82141E-02-2.80104E+00-5.06499E-04-3.64278E-02-3.10742E+00-1.87708E-02 3.87812E-03-1.42040E-02 4.79644E+01-2.20480E+01 4.53746E+00



 n o d a l   p r i n t   o u t   f o r   t i m e  s t e p    1801                              ( at time 8.9990994E-01 )

 nodal point  x-rot      y-rot       z-rot       x-rot vel   y-rot vel   z-rot vel   x-rot acc   y-rot acc   z-rot acc
    22626  1.02448E-06 2.13206E-05 3.66563E-05-1.95498E-06 3.79906E-05 6.83531E-05-4.89992E-05-1.07439E-04-7.95472E-05



 n o d a l   p r i n t   o u t   f o r   t i m e  s t e p    2001                              ( at time 9.9989993E-01 )

 nodal point  x-disp     y-disp      z-disp      x-vel       y-vel       z-vel      x-accl      y-accl      z-accl      x-coor      y-coor      z-coor
    22626  1.09782E-04-2.19276E-02-3.11175E+00-8.19225E-04-3.83995E-02-3.10755E+00-3.12757E-03-1.97190E-02-1.30905E-03 4.79643E+01-2.20517E+01 4.22675E+00



 n o d a l   p r i n t   o u t   f o r   t i m e  s t e p    2001                              ( at time 9.9989993E-01 )

 nodal point  x-rot      y-rot       z-rot       x-rot vel   y-rot vel   z-rot vel   x-rot acc   y-rot acc   z-rot acc
    22626  8.55977E-07 2.55335E-05 4.38506E-05-9.05588E-07 4.62599E-05 8.60217E-05 1.04949E-05 8.27008E-05 1.76703E-04



 n o d a l   p r i n t   o u t   f o r   t i m e  s t e p    2201                              ( at time 1.0998899E+00 )

 nodal point  x-disp     y-disp      z-disp      x-vel       y-vel       z-vel      x-accl      y-accl      z-accl      x-coor      y-coor      z-coor
    22626  9.18426E-05-2.58760E-02-3.42246E+00-2.15210E-04-4.02563E-02-3.10712E+00 6.04076E-03-1.85698E-02 4.32535E-03 4.79643E+01-2.20557E+01 3.91605E+00



 n o d a l   p r i n t   o u t   f o r   t i m e  s t e p    2201                              ( at time 1.0998899E+00 )

 nodal point  x-rot      y-rot       z-rot       x-rot vel   y-rot vel   z-rot vel   x-rot acc   y-rot acc   z-rot acc
    22626  9.33021E-07 3.03129E-05 5.24804E-05 5.24348E-06 4.64435E-05 7.50805E-05 6.14969E-05 1.83594E-06-1.09423E-04



 n o d a l   p r i n t   o u t   f o r   t i m e  s t e p    2401                              ( at time 1.1998799E+00 )

 nodal point  x-disp     y-disp      z-disp      x-vel       y-vel       z-vel      x-accl      y-accl      z-accl      x-coor      y-coor      z-coor
    22626  1.34305E-04-2.98901E-02-3.73320E+00 7.30292E-04-3.98026E-02-3.10850E+00 9.45596E-03 4.53775E-03-1.37891E-02 4.79643E+01-2.20597E+01 3.60531E+00



 n o d a l   p r i n t   o u t   f o r   t i m e  s t e p    2401                              ( at time 1.1998799E+00 )

 nodal point  x-rot      y-rot       z-rot       x-rot vel   y-rot vel   z-rot vel   x-rot acc   y-rot acc   z-rot acc
    22626  1.33542E-06 3.44670E-05 5.93290E-05 5.01383E-06 3.99959E-05 6.55378E-05-2.29674E-06-6.44821E-05-9.54363E-05



 n o d a l   p r i n t   o u t   f o r   t i m e  s t e p    2601                              ( at time 1.2998699E+00 )

 nodal point  x-disp     y-disp      z-disp      x-vel       y-vel       z-vel      x-accl      y-accl      z-accl      x-coor      y-coor      z-coor
    22626  1.46203E-04-3.37303E-02-4.04413E+00-4.25362E-04-3.65931E-02-3.11133E+00-1.15577E-02 3.20978E-02-2.82840E-02 4.79643E+01-2.20635E+01 3.29437E+00



 n o d a l   p r i n t   o u t   f o r   t i m e  s t e p    2601                              ( at time 1.2998699E+00 )

 nodal point  x-rot      y-rot       z-rot       x-rot vel   y-rot vel   z-rot vel   x-rot acc   y-rot acc   z-rot acc
    22626  1.63817E-06 3.85443E-05 6.61334E-05-2.50570E-06 4.53772E-05 7.98401E-05-7.52028E-05 5.38184E-05 1.43037E-04



 n o d a l   p r i n t   o u t   f o r   t i m e  s t e p    2801                              ( at time 1.3998599E+00 )

 nodal point  x-disp     y-disp      z-disp      x-vel       y-vel       z-vel      x-accl      y-accl      z-accl      x-coor      y-coor      z-coor
    22626  3.22307E-05-3.71240E-02-4.35543E+00-1.30808E-03-3.14346E-02-3.11511E+00-8.82810E-03 5.15903E-02-3.78623E-02 4.79642E+01-2.20669E+01 2.98307E+00



 n o d a l   p r i n t   o u t   f o r   t i m e  s t e p    2801                              ( at time 1.3998599E+00 )

 nodal point  x-rot      y-rot       z-rot       x-rot vel   y-rot vel   z-rot vel   x-rot acc   y-rot acc   z-rot acc
    22626  1.20352E-06 4.29503E-05 7.39886E-05-4.52494E-06 4.45172E-05 7.34729E-05-2.01945E-05-8.60119E-06-6.36780E-05



 n o d a l   p r i n t   o u t   f o r   t i m e  s t e p    3001                              ( at time 1.4998499E+00 )

 nodal point  x-disp     y-disp      z-disp      x-vel       y-vel       z-vel      x-accl      y-accl      z-accl      x-coor      y-coor      z-coor
    22626 -7.75571E-05-4.01686E-02-4.66702E+00-4.94649E-04-2.97660E-02-3.11713E+00 8.13516E-03 1.66878E-02-2.02175E-02 4.79641E+01-2.20700E+01 2.67148E+00



 n o d a l   p r i n t   o u t   f o r   t i m e  s t e p    3001                              ( at time 1.4998499E+00 )

 nodal point  x-rot      y-rot       z-rot       x-rot vel   y-rot vel   z-rot vel   x-rot acc   y-rot acc   z-rot acc
    22626  8.26451E-07 4.68538E-05 8.05198E-05-1.56723E-06 3.19170E-05 5.71438E-05 2.95801E-05-1.26014E-04-1.63307E-04



 n o d a l   p r i n t   o u t   f o r   t i m e  s t e p    3201                              ( at time 1.5998399E+00 )

 nodal point  x-disp     y-disp      z-disp      x-vel       y-vel       z-vel      x-accl      y-accl      z-accl      x-coor      y-coor      z-coor
    22626 -1.24285E-04-4.30592E-02-4.97879E+00-6.96321E-04-2.75133E-02-3.11940E+00-2.01692E-03 2.25290E-02-2.26377E-02 4.79641E+01-2.20728E+01 2.35971E+00



 n o d a l   p r i n t   o u t   f o r   t i m e  s t e p    3201                              ( at time 1.5998399E+00 )

 nodal point  x-rot      y-rot       z-rot       x-rot vel   y-rot vel   z-rot vel   x-rot acc   y-rot acc   z-rot acc
    22626  5.14199E-07 4.99131E-05 8.53957E-05-1.57033E-06 3.26437E-05 4.78927E-05-3.09475E-08 7.26697E-06-9.25204E-05



 n o d a l   p r i n t   o u t   f o r   t i m e  s t e p    3401                              ( at time 1.6998299E+00 )

 nodal point  x-disp     y-disp      z-disp      x-vel       y-vel       z-vel      x-accl      y-accl      z-accl      x-coor      y-coor      z-coor
    22626 -2.10966E-04-4.55736E-02-5.29089E+00-1.12673E-03-2.24409E-02-3.12325E+00-4.30454E-03 5.07290E-02-3.85466E-02 4.79640E+01-2.20754E+01 2.04762E+00



 n o d a l   p r i n t   o u t   f o r   t i m e  s t e p    3401                              ( at time 1.6998299E+00 )

 nodal point  x-rot      y-rot       z-rot       x-rot vel   y-rot vel   z-rot vel   x-rot acc   y-rot acc   z-rot acc
    22626  3.00015E-07 5.29962E-05 9.04280E-05-3.81456E-06 2.98724E-05 4.78558E-05-2.24446E-05-2.77152E-05-3.68928E-07



 n o d a l   p r i n t   o u t   f o r   t i m e  s t e p    3601                              ( at time 1.7998199E+00 )

 nodal point  x-disp     y-disp      z-disp      x-vel       y-vel       z-vel      x-accl      y-accl      z-accl      x-coor      y-coor      z-coor
    22626 -3.12623E-04-4.75644E-02-5.60339E+00-1.32680E-03-1.77152E-02-3.12732E+00-2.00086E-03 4.72627E-02-4.06998E-02 4.79639E+01-2.20774E+01 1.73511E+00



 n o d a l   p r i n t   o u t   f o r   t i m e  s t e p    3601                              ( at time 1.7998199E+00 )

 nodal point  x-rot      y-rot       z-rot       x-rot vel   y-rot vel   z-rot vel   x-rot acc   y-rot acc   z-rot acc
    22626  1.52845E-07 5.57844E-05 9.51864E-05-3.57782E-07 2.15293E-05 4.22282E-05 3.45713E-05-8.34398E-05-5.62818E-05



 n o d a l   p r i n t   o u t   f o r   t i m e  s t e p    3801                              ( at time 1.8998099E+00 )

 nodal point  x-disp     y-disp      z-disp      x-vel       y-vel       z-vel      x-accl      y-accl      z-accl      x-coor      y-coor      z-coor
    22626 -5.00191E-04-4.92020E-02-5.91621E+00-2.16499E-03-1.51660E-02-3.12982E+00-8.38278E-03 2.54936E-02-2.49768E-02 4.79637E+01-2.20790E+01 1.42229E+00



 n o d a l   p r i n t   o u t   f o r   t i m e  s t e p    3801                              ( at time 1.8998099E+00 )

 nodal point  x-rot      y-rot       z-rot       x-rot vel   y-rot vel   z-rot vel   x-rot acc   y-rot acc   z-rot acc
    22626 -9.12494E-08 5.76837E-05 9.86038E-05 1.62459E-06 1.54908E-05 2.74061E-05 1.98257E-05-6.03906E-05-1.48236E-04



 n o d a l   p r i n t   o u t   f o r   t i m e  s t e p    4001                              ( at time 1.9997999E+00 )

 nodal point  x-disp     y-disp      z-disp      x-vel       y-vel       z-vel      x-accl      y-accl      z-accl      x-coor      y-coor      z-coor
    22626 -6.73640E-04-5.05925E-02-6.22929E+00-1.65027E-03-1.28128E-02-3.13210E+00 5.14771E-03 2.35352E-02-2.28666E-02 4.79635E+01-2.20804E+01 1.10921E+00



 n o d a l   p r i n t   o u t   f o r   t i m e  s t e p    4001                              ( at time 1.9997999E+00 )

 nodal point  x-rot      y-rot       z-rot       x-rot vel   y-rot vel   z-rot vel   x-rot acc   y-rot acc   z-rot acc
    22626  1.12672E-07 5.90203E-05 1.00914E-04 3.43655E-06 1.32852E-05 2.02274E-05 1.81214E-05-2.20578E-05-7.17947E-05



 n o d a l   p r i n t   o u t   f o r   t i m e  s t e p    4201                              ( at time 2.0997899E+00 )

 nodal point  x-disp     y-disp      z-disp      x-vel       y-vel       z-vel      x-accl      y-accl      z-accl      x-coor      y-coor      z-coor
    22626 -8.42832E-04-5.16835E-02-6.54262E+00-1.86045E-03-9.15175E-03-3.13518E+00-2.10196E-03 3.66138E-02-3.07901E-02 4.79633E+01-2.20815E+01 7.95877E-01



 n o d a l   p r i n t   o u t   f o r   t i m e  s t e p    4201                              ( at time 2.0997899E+00 )

 nodal point  x-rot      y-rot       z-rot       x-rot vel   y-rot vel   z-rot vel   x-rot acc   y-rot acc   z-rot acc
    22626  3.97699E-07 5.96643E-05 1.02002E-04-1.38084E-06 3.48539E-06 1.60689E-06-4.81787E-05-9.80084E-05-1.86224E-04



 n o d a l   p r i n t   o u t   f o r   t i m e  s t e p    4401                              ( at time 2.1997798E+00 )

 nodal point  x-disp     y-disp      z-disp      x-vel       y-vel       z-vel      x-accl      y-accl      z-accl      x-coor      y-coor      z-coor
    22626 -1.08507E-03-5.23701E-02-6.85629E+00-2.77017E-03-4.41283E-03-3.13895E+00-9.09812E-03 4.73939E-02-3.76501E-02 4.79631E+01-2.20822E+01 4.82212E-01



 n o d a l   p r i n t   o u t   f o r   t i m e  s t e p    4401                              ( at time 2.1997798E+00 )

 nodal point  x-rot      y-rot       z-rot       x-rot vel   y-rot vel   z-rot vel   x-rot acc   y-rot acc   z-rot acc
    22626  2.18179E-07 5.96568E-05 1.01933E-04-1.13917E-06-2.13071E-06-2.92921E-06 2.41698E-06-5.61666E-05-4.53656E-05



 n o d a l   p r i n t   o u t   f o r   t i m e  s t e p    4601                              ( at time 2.2997698E+00 )

 nodal point  x-disp     y-disp      z-disp      x-vel       y-vel       z-vel      x-accl      y-accl      z-accl      x-coor      y-coor      z-coor
    22626 -1.39411E-03-5.25654E-02-7.17034E+00-3.51897E-03-8.06018E-05-3.14228E+00-7.48874E-03 4.33266E-02-3.33318E-02 4.79628E+01-2.20824E+01 1.68163E-01



 n o d a l   p r i n t   o u t   f o r   t i m e  s t e p    4601                              ( at time 2.2997698E+00 )

 nodal point  x-rot      y-rot       z-rot       x-rot vel   y-rot vel   z-rot vel   x-rot acc   y-rot acc   z-rot acc
    22626 -1.71350E-07 5.93436E-05 1.01560E-04-4.58505E-06-9.74206E-06-1.28786E-05-3.44622E-05-7.61211E-05-9.95036E-05



 n o d a l   p r i n t   o u t   f o r   t i m e  s t e p    4801                              ( at time 2.3997598E+00 )

 nodal point  x-disp     y-disp      z-disp      x-vel       y-vel       z-vel      x-accl      y-accl      z-accl      x-coor      y-coor      z-coor
    22626 -1.76295E-03-5.24780E-02-7.48464E+00-3.62963E-03 1.86840E-03-3.14440E+00-1.10676E-03 1.94920E-02-2.11666E-02 4.79624E+01-2.20823E+01-1.46135E-01



 n o d a l   p r i n t   o u t   f o r   t i m e  s t e p    4801                              ( at time 2.3997598E+00 )

 nodal point  x-rot      y-rot       z-rot       x-rot vel   y-rot vel   z-rot vel   x-rot acc   y-rot acc   z-rot acc
    22626 -7.19953E-07 5.80795E-05 9.90725E-05-6.08158E-06-1.62536E-05-3.39266E-05-1.49668E-05-6.51223E-05-2.10501E-04



 n o d a l   p r i n t   o u t   f o r   t i m e  s t e p    5001                              ( at time 2.4997498E+00 )

 nodal point  x-disp     y-disp      z-disp      x-vel       y-vel       z-vel      x-accl      y-accl      z-accl      x-coor      y-coor      z-coor
    22626 -2.15611E-03-5.21705E-02-7.79916E+00-4.24838E-03 4.96253E-03-3.14711E+00-6.18815E-03 3.09443E-02-2.71085E-02 4.79620E+01-2.20820E+01-4.60662E-01



 n o d a l   p r i n t   o u t   f o r   t i m e  s t e p    5001                              ( at time 2.4997498E+00 )

 nodal point  x-rot      y-rot       z-rot       x-rot vel   y-rot vel   z-rot vel   x-rot acc   y-rot acc   z-rot acc
    22626 -1.17120E-06 5.58483E-05 9.51070E-05-4.11399E-06-2.63983E-05-4.86628E-05 1.96778E-05-1.01456E-04-1.47377E-04



 n o d a l   p r i n t   o u t   f o r   t i m e  s t e p    5201                              ( at time 2.5997398E+00 )

 nodal point  x-disp     y-disp      z-disp      x-vel       y-vel       z-vel      x-accl      y-accl      z-accl      x-coor      y-coor      z-coor
    22626 -2.63040E-03-5.14561E-02-8.11403E+00-5.25954E-03 9.27268E-03-3.15070E+00-1.01125E-02 4.31058E-02-3.59119E-02 4.79615E+01-2.20812E+01-7.75527E-01



 n o d a l   p r i n t   o u t   f o r   t i m e  s t e p    5201                              ( at time 2.5997398E+00 )

 nodal point  x-rot      y-rot       z-rot       x-rot vel   y-rot vel   z-rot vel   x-rot acc   y-rot acc   z-rot acc
    22626 -1.54092E-06 5.27453E-05 8.96694E-05-4.63008E-06-3.58199E-05-6.23283E-05-5.16137E-06-9.42256E-05-1.36669E-04



 n o d a l   p r i n t   o u t   f o r   t i m e  s t e p    5401                              ( at time 2.6997298E+00 )

 nodal point  x-disp     y-disp      z-disp      x-vel       y-vel       z-vel      x-accl      y-accl      z-accl      x-coor      y-coor      z-coor
    22626 -3.20034E-03-5.03210E-02-8.42925E+00-6.43037E-03 1.29776E-02-3.15421E+00-1.17095E-02 3.70525E-02-3.51631E-02 4.79610E+01-2.20801E+01-1.09075E+00



 n o d a l   p r i n t   o u t   f o r   t i m e  s t e p    5401                              ( at time 2.6997298E+00 )

 nodal point  x-rot      y-rot       z-rot       x-rot vel   y-rot vel   z-rot vel   x-rot acc   y-rot acc   z-rot acc
    22626 -1.84021E-06 4.89958E-05 8.31643E-05-1.90959E-06-4.14055E-05-6.70199E-05 2.72075E-05-5.58617E-05-4.69201E-05



 n o d a l   p r i n t   o u t   f o r   t i m e  s t e p    5601                              ( at time 2.7997198E+00 )

 nodal point  x-disp     y-disp      z-disp      x-vel       y-vel       z-vel      x-accl      y-accl      z-accl      x-coor      y-coor      z-coor
    22626 -3.91441E-03-4.88966E-02-8.74475E+00-7.68588E-03 1.51501E-02-3.15635E+00-1.25564E-02 2.17279E-02-2.13764E-02 4.79603E+01-2.20787E+01-1.40625E+00



 n o d a l   p r i n t   o u t   f o r   t i m e  s t e p    5601                              ( at time 2.7997198E+00 )

 nodal point  x-rot      y-rot       z-rot       x-rot vel   y-rot vel   z-rot vel   x-rot acc   y-rot acc   z-rot acc
    22626 -1.97109E-06 4.41006E-05 7.50568E-05 3.68480E-07-5.73673E-05-9.85841E-05 2.27830E-05-1.59634E-04-3.15674E-04



 n o d a l   p r i n t   o u t   f o r   t i m e  s t e p    5801                              ( at time 2.8997098E+00 )

 nodal point  x-disp     y-disp      z-disp      x-vel       y-vel       z-vel      x-accl      y-accl      z-accl      x-coor      y-coor      z-coor
    22626 -4.68633E-03-4.73280E-02-9.06045E+00-7.81421E-03 1.61393E-02-3.15804E+00-1.28339E-03 9.89286E-03-1.68817E-02 4.79595E+01-2.20771E+01-1.72194E+00



 n o d a l   p r i n t   o u t   f o r   t i m e  s t e p    5801                              ( at time 2.8997098E+00 )

 nodal point  x-rot      y-rot       z-rot       x-rot vel   y-rot vel   z-rot vel   x-rot acc   y-rot acc   z-rot acc
    22626 -1.77260E-06 3.76626E-05 6.41494E-05 2.32832E-06-6.64405E-05-1.15311E-04 1.96004E-05-9.07420E-05-1.67290E-04



 n o d a l   p r i n t   o u t   f o r   t i m e  s t e p    6001                              ( at time 2.9996998E+00 )

 nodal point  x-disp     y-disp      z-disp      x-vel       y-vel       z-vel      x-accl      y-accl      z-accl      x-coor      y-coor      z-coor
    22626 -5.50701E-03-4.55962E-02-9.37632E+00-8.82830E-03 1.86400E-02-3.16041E+00-1.01419E-02 2.50094E-02-2.37417E-02 4.79587E+01-2.20754E+01-2.03782E+00



 n o d a l   p r i n t   o u t   f o r   t i m e  s t e p    6001                              ( at time 2.9996998E+00 )

 nodal point  x-rot      y-rot       z-rot       x-rot vel   y-rot vel   z-rot vel   x-rot acc   y-rot acc   z-rot acc
    22626 -1.53850E-06 3.08022E-05 5.25846E-05 7.24892E-07-7.09053E-05-1.20875E-04-1.60359E-05-4.46522E-05-5.56412E-05



 n o d a l   p r i n t   o u t   f o r   t i m e  s t e p    6201                              ( at time 3.0996898E+00 )

 nodal point  x-disp     y-disp      z-disp      x-vel       y-vel       z-vel      x-accl      y-accl      z-accl      x-coor      y-coor      z-coor
    22626 -6.47264E-03-4.36147E-02-9.69245E+00-1.04084E-02 2.05660E-02-3.16241E+00-1.58028E-02 1.92617E-02-1.99195E-02 4.79577E+01-2.20734E+01-2.35395E+00



 n o d a l   p r i n t   o u t   f o r   t i m e  s t e p    6201                              ( at time 3.0996898E+00 )

 nodal point  x-rot      y-rot       z-rot       x-rot vel   y-rot vel   z-rot vel   x-rot acc   y-rot acc   z-rot acc
    22626 -1.58560E-06 2.34415E-05 3.99516E-05-1.93082E-06-7.57149E-05-1.33228E-04-2.65598E-05-4.81002E-05-1.23547E-04



 n o d a l   p r i n t   o u t   f o r   t i m e  s t e p    6401                              ( at time 3.1996798E+00 )

 nodal point  x-disp     y-disp      z-disp      x-vel       y-vel       z-vel      x-accl      y-accl      z-accl      x-coor      y-coor      z-coor
    22626 -7.54385E-03-4.15842E-02-1.00087E+01-1.09340E-02 1.97627E-02-3.16298E+00-5.25665E-03-8.03418E-03-5.73930E-03 4.79566E+01-2.20714E+01-2.67020E+00



 n o d a l   p r i n t   o u t   f o r   t i m e  s t e p    6401                              ( at time 3.1996798E+00 )

 nodal point  x-rot      y-rot       z-rot       x-rot vel   y-rot vel   z-rot vel   x-rot acc   y-rot acc   z-rot acc
    22626 -1.71901E-06 1.53713E-05 2.63584E-05-1.54479E-06-8.51787E-05-1.43746E-04 3.86068E-06-9.46474E-05-1.05184E-04



 n o d a l   p r i n t   o u t   f o r   t i m e  s t e p    6601                              ( at time 3.2996698E+00 )

 nodal point  x-disp     y-disp      z-disp      x-vel       y-vel       z-vel      x-accl      y-accl      z-accl      x-coor      y-coor      z-coor
    22626 -8.64975E-03-3.97044E-02-1.03249E+01-1.12002E-02 1.78346E-02-3.16269E+00-2.66147E-03-1.92826E-02 2.83985E-03 4.79555E+01-2.20695E+01-2.98645E+00



 n o d a l   p r i n t   o u t   f o r   t i m e  s t e p    6601                              ( at time 3.2996698E+00 )

 nodal point  x-rot      y-rot       z-rot       x-rot vel   y-rot vel   z-rot vel   x-rot acc   y-rot acc   z-rot acc
    22626 -1.98707E-06 6.67945E-06 1.15980E-05-2.54916E-06-8.95329E-05-1.51702E-04-1.00447E-05-4.35467E-05-7.95679E-05



 n o d a l   p r i n t   o u t   f o r   t i m e  s t e p    6801                              ( at time 3.3996598E+00 )

 nodal point  x-disp     y-disp      z-disp      x-vel       y-vel       z-vel      x-accl      y-accl      z-accl      x-coor      y-coor      z-coor
    22626 -9.80039E-03-3.80130E-02-1.06412E+01-1.17060E-02 1.60311E-02-3.16263E+00-5.05924E-03-1.80372E-02 6.91482E-04 4.79544E+01-2.20678E+01-3.30268E+00



 n o d a l   p r i n t   o u t   f o r   t i m e  s t e p    6801                              ( at time 3.3996598E+00 )

 nodal point  x-rot      y-rot       z-rot       x-rot vel   y-rot vel   z-rot vel   x-rot acc   y-rot acc   z-rot acc
    22626 -2.03433E-06-2.20969E-06-3.69568E-06-2.46587E-06-8.80649E-05-1.53060E-04 8.32988E-07 1.46819E-05-1.35812E-05



 n o d a l   p r i n t   o u t   f o r   t i m e  s t e p    7001                              ( at time 3.4996498E+00 )

 nodal point  x-disp     y-disp      z-disp      x-vel       y-vel       z-vel      x-accl      y-accl      z-accl      x-coor      y-coor      z-coor
    22626 -1.09979E-02-3.64833E-02-1.09574E+01-1.23307E-02 1.44955E-02-3.16281E+00-6.24759E-03-1.53572E-02-1.86224E-03 4.79532E+01-2.20663E+01-3.61893E+00



 n o d a l   p r i n t   o u t   f o r   t i m e  s t e p    7001                              ( at time 3.4996498E+00 )

 nodal point  x-rot      y-rot       z-rot       x-rot vel   y-rot vel   z-rot vel   x-rot acc   y-rot acc   z-rot acc
    22626 -2.02532E-06-1.08676E-05-1.85226E-05 6.89733E-07-8.71549E-05-1.47373E-04 3.15592E-05 9.10074E-06 5.68708E-05



 n o d a l   p r i n t   o u t   f o r   t i m e  s t e p    7201                              ( at time 3.5996397E+00 )

 nodal point  x-disp     y-disp      z-disp      x-vel       y-vel       z-vel      x-accl      y-accl      z-accl      x-coor      y-coor      z-coor
    22626 -1.22525E-02-3.51401E-02-1.12737E+01-1.24200E-02 1.20920E-02-3.16260E+00-8.92809E-04-2.40375E-02 2.09114E-03 4.79519E+01-2.20649E+01-3.93517E+00



 n o d a l   p r i n t   o u t   f o r   t i m e  s t e p    7201                              ( at time 3.5996397E+00 )

 nodal point  x-rot      y-rot       z-rot       x-rot vel   y-rot vel   z-rot vel   x-rot acc   y-rot acc   z-rot acc
    22626 -2.03441E-06-1.94913E-05-3.30058E-05 2.07701E-06-8.47782E-05-1.38782E-04 1.38742E-05 2.37689E-05 8.59223E-05



 n o d a l   p r i n t   o u t   f o r   t i m e  s t e p    7401                              ( at time 3.6996297E+00 )

 nodal point  x-disp     y-disp      z-disp      x-vel       y-vel       z-vel      x-accl      y-accl      z-accl      x-coor      y-coor      z-coor
    22626 -1.34825E-02-3.40962E-02-1.15899E+01-1.21450E-02 8.70713E-03-3.16160E+00 2.75011E-03-3.38517E-02 1.00623E-02 4.79507E+01-2.20639E+01-4.25135E+00



 n o d a l   p r i n t   o u t   f o r   t i m e  s t e p    7401                              ( at time 3.6996297E+00 )

 nodal point  x-rot      y-rot       z-rot       x-rot vel   y-rot vel   z-rot vel   x-rot acc   y-rot acc   z-rot acc
    22626 -1.78011E-06-2.77770E-05-4.68016E-05 3.67241E-06-8.13103E-05-1.36477E-04 1.59556E-05 3.46823E-05 2.30557E-05



 n o d a l   p r i n t   o u t   f o r   t i m e  s t e p    7601                              ( at time 3.7996197E+00 )

 nodal point  x-disp     y-disp      z-disp      x-vel       y-vel       z-vel      x-accl      y-accl      z-accl      x-coor      y-coor      z-coor
    22626 -1.46675E-02-3.33636E-02-1.19059E+01-1.15795E-02 6.01055E-03-3.16089E+00 5.65606E-03-2.69686E-02 7.11036E-03 4.79495E+01-2.20632E+01-4.56744E+00



 n o d a l   p r i n t   o u t   f o r   t i m e  s t e p    7601                              ( at time 3.7996197E+00 )

 nodal point  x-rot      y-rot       z-rot       x-rot vel   y-rot vel   z-rot vel   x-rot acc   y-rot acc   z-rot acc
    22626 -1.31166E-06-3.55882E-05-6.00639E-05 5.36746E-06-7.25020E-05-1.22144E-04 1.69523E-05 8.80919E-05 1.43340E-04



 n o d a l   p r i n t   o u t   f o r   t i m e  s t e p    7801                              ( at time 3.8996097E+00 )

 nodal point  x-disp     y-disp      z-disp      x-vel       y-vel       z-vel      x-accl      y-accl      z-accl      x-coor      y-coor      z-coor
    22626 -1.57946E-02-3.28625E-02-1.22220E+01-1.09380E-02 4.22762E-03-3.16081E+00 6.41496E-03-1.78311E-02 8.01165E-04 4.79484E+01-2.20627E+01-4.88349E+00



 n o d a l   p r i n t   o u t   f o r   t i m e  s t e p    7801                              ( at time 3.8996097E+00 )

 nodal point  x-rot      y-rot       z-rot       x-rot vel   y-rot vel   z-rot vel   x-rot acc   y-rot acc   z-rot acc
    22626 -9.50303E-07-4.21866E-05-7.11818E-05 5.57956E-07-5.77730E-05-9.62596E-05-4.80998E-05 1.47305E-04 2.58870E-04



 n o d a l   p r i n t   o u t   f o r   t i m e  s t e p    8001                              ( at time 3.9995997E+00 )

 nodal point  x-disp     y-disp      z-disp      x-vel       y-vel       z-vel      x-accl      y-accl      z-accl      x-coor      y-coor      z-coor
    22626 -1.68624E-02-3.24920E-02-1.25381E+01-1.03895E-02 3.14341E-03-3.16115E+00 5.48565E-03-1.08431E-02-3.40496E-03 4.79473E+01-2.20623E+01-5.19956E+00



 n o d a l   p r i n t   o u t   f o r   t i m e  s t e p    8001                              ( at time 3.9995997E+00 )

 nodal point  x-rot      y-rot       z-rot       x-rot vel   y-rot vel   z-rot vel   x-rot acc   y-rot acc   z-rot acc
    22626 -8.21271E-07-4.74318E-05-7.98658E-05-7.21503E-08-4.66774E-05-7.97449E-05-6.30170E-06 1.10968E-04 1.65164E-04



 n o d a l   p r i n t   o u t   f o r   t i m e  s t e p    8201                              ( at time 4.0995897E+00 )

 nodal point  x-disp     y-disp      z-disp      x-vel       y-vel       z-vel      x-accl      y-accl      z-accl      x-coor      y-coor      z-coor
    22626 -1.78187E-02-3.22924E-02-1.28541E+01-8.60277E-03 6.36310E-04-3.16063E+00 1.78693E-02-2.50735E-02 5.14558E-03 4.79464E+01-2.20621E+01-5.51562E+00



 n o d a l   p r i n t   o u t   f o r   t i m e  s t e p    8201                              ( at time 4.0995897E+00 )

 nodal point  x-rot      y-rot       z-rot       x-rot vel   y-rot vel   z-rot vel   x-rot acc   y-rot acc   z-rot acc
    22626 -8.28940E-07-5.15544E-05-8.68314E-05-1.98456E-07-3.22890E-05-5.66726E-05-1.26318E-06 1.43898E-04 2.30746E-04



 n o d a l   p r i n t   o u t   f o r   t i m e  s t e p    8401                              ( at time 4.1995797E+00 )

 nodal point  x-disp     y-disp      z-disp      x-vel       y-vel       z-vel      x-accl      y-accl      z-accl      x-coor      y-coor      z-coor
    22626 -1.85996E-02-3.23547E-02-1.31701E+01-6.96937E-03-1.79438E-03-3.16004E+00 1.63357E-02-2.43093E-02 5.92053E-03 4.79456E+01-2.20621E+01-5.83162E+00



 n o d a l   p r i n t   o u t   f o r   t i m e  s t e p    8401                              ( at time 4.1995797E+00 )

 nodal point  x-rot      y-rot       z-rot       x-rot vel   y-rot vel   z-rot vel   x-rot acc   y-rot acc   z-rot acc
    22626 -8.14977E-07-5.39308E-05-9.07837E-05-2.42766E-07-1.40655E-05-2.29254E-05-4.43139E-07 1.82254E-04 3.37505E-04



 n o d a l   p r i n t   o u t   f o r   t i m e  s t e p    8601                              ( at time 4.2995697E+00 )

 nodal point  x-disp     y-disp      z-disp      x-vel       y-vel       z-vel      x-accl      y-accl      z-accl      x-coor      y-coor      z-coor
    22626 -1.92329E-02-3.26533E-02-1.34861E+01-5.55551E-03-3.88326E-03-3.15987E+00 1.41400E-02-2.08910E-02 1.66433E-03 4.79449E+01-2.20624E+01-6.14757E+00



 n o d a l   p r i n t   o u t   f o r   t i m e  s t e p    8601                              ( at time 4.2995697E+00 )

 nodal point  x-rot      y-rot       z-rot       x-rot vel   y-rot vel   z-rot vel   x-rot acc   y-rot acc   z-rot acc
    22626 -8.34279E-07-5.43665E-05-9.16359E-05-4.03688E-07 2.93613E-06 4.87153E-06-1.60939E-06 1.70033E-04 2.77998E-04



 n o d a l   p r i n t   o u t   f o r   t i m e  s t e p    8801                              ( at time 4.3995597E+00 )

 nodal point  x-disp     y-disp      z-disp      x-vel       y-vel       z-vel      x-accl      y-accl      z-accl      x-coor      y-coor      z-coor
    22626 -1.96831E-02-3.31006E-02-1.38020E+01-3.42169E-03-5.21631E-03-3.15940E+00 2.13404E-02-1.33319E-02 4.77362E-03 4.79445E+01-2.20629E+01-6.46352E+00



 n o d a l   p r i n t   o u t   f o r   t i m e  s t e p    8801                              ( at time 4.3995597E+00 )

 nodal point  x-rot      y-rot       z-rot       x-rot vel   y-rot vel   z-rot vel   x-rot acc   y-rot acc   z-rot acc
    22626 -1.14857E-06-5.27914E-05-8.88647E-05-7.06955E-06 3.23043E-05 4.87251E-05-6.66653E-05 2.93712E-04 4.38580E-04



 n o d a l   p r i n t   o u t   f o r   t i m e  s t e p    9001                              ( at time 4.4995497E+00 )

 nodal point  x-disp     y-disp      z-disp      x-vel       y-vel       z-vel      x-accl      y-accl      z-accl      x-coor      y-coor      z-coor
    22626 -1.99554E-02-3.36798E-02-1.41178E+01-1.69063E-03-6.75772E-03-3.15599E+00 1.73123E-02-1.54156E-02 3.40375E-02 4.79442E+01-2.20635E+01-6.77928E+00



 n o d a l   p r i n t   o u t   f o r   t i m e  s t e p    9001                              ( at time 4.4995497E+00 )

 nodal point  x-rot      y-rot       z-rot       x-rot vel   y-rot vel   z-rot vel   x-rot acc   y-rot acc   z-rot acc
    22626 -9.89836E-07-4.71358E-05-8.26197E-05 1.36207E-05 8.32234E-05 7.91413E-05 2.06923E-04 5.09240E-04 3.04191E-04



 n o d a l   p r i n t   o u t   f o r   t i m e  s t e p    9201                              ( at time 4.5995397E+00 )

 nodal point  x-disp     y-disp      z-disp      x-vel       y-vel       z-vel      x-accl      y-accl      z-accl      x-coor      y-coor      z-coor
    22626 -2.00269E-02-3.44761E-02-1.44330E+01 6.08508E-04-9.15655E-03-3.14805E+00 2.29937E-02-2.39907E-02 7.94801E-02 4.79442E+01-2.20643E+01-7.09450E+00



 n o d a l   p r i n t   o u t   f o r   t i m e  s t e p    9201                              ( at time 4.5995397E+00 )

 nodal point  x-rot      y-rot       z-rot       x-rot vel   y-rot vel   z-rot vel   x-rot acc   y-rot acc   z-rot acc
    22626  1.02953E-06-3.48783E-05-7.38140E-05 2.68992E-05 1.68266E-04 9.97398E-05 1.32799E-04 8.50514E-04 2.06005E-04



 n o d a l   p r i n t   o u t   f o r   t i m e  s t e p    9401                              ( at time 4.6995297E+00 )

 nodal point  x-disp     y-disp      z-disp      x-vel       y-vel       z-vel      x-accl      y-accl      z-accl      x-coor      y-coor      z-coor
    22626 -1.98388E-02-3.54047E-02-1.47472E+01 2.76894E-03-8.66703E-03-3.13487E+00 2.16065E-02 4.89568E-03 1.31740E-01 4.79443E+01-2.20652E+01-7.40865E+00



 n o d a l   p r i n t   o u t   f o r   t i m e  s t e p    9401                              ( at time 4.6995297E+00 )

 nodal point  x-rot      y-rot       z-rot       x-rot vel   y-rot vel   z-rot vel   x-rot acc   y-rot acc   z-rot acc
    22626  6.14021E-06-1.06454E-05-6.35092E-05 9.66222E-05 3.25593E-04 1.02166E-04 6.97300E-04 1.57343E-03 2.42622E-05



 n o d a l   p r i n t   o u t   f o r   t i m e  s t e p    9601                              ( at time 4.7995197E+00 )

 nodal point  x-disp     y-disp      z-disp      x-vel       y-vel       z-vel      x-accl      y-accl      z-accl      x-coor      y-coor      z-coor
    22626 -1.94133E-02-3.61496E-02-1.50597E+01 6.08007E-03-6.24693E-03-3.11634E+00 3.31146E-02 2.42035E-02 1.85394E-01 4.79448E+01-2.20659E+01-7.72125E+00



 n o d a l   p r i n t   o u t   f o r   t i m e  s t e p    9601                              ( at time 4.7995197E+00 )

 nodal point  x-rot      y-rot       z-rot       x-rot vel   y-rot vel   z-rot vel   x-rot acc   y-rot acc   z-rot acc
    22626  2.10181E-05 3.04155E-05-5.28172E-05 1.89295E-04 5.05387E-04 1.09324E-04 9.26823E-04 1.79812E-03 7.15933E-05



 n o d a l   p r i n t   o u t   f o r   t i m e  s t e p    9801                              ( at time 4.8995097E+00 )

 nodal point  x-disp     y-disp      z-disp      x-vel       y-vel       z-vel      x-accl      y-accl      z-accl      x-coor      y-coor      z-coor
    22626 -1.86085E-02-3.67402E-02-1.53701E+01 9.90665E-03-4.81706E-03-3.09040E+00 3.82697E-02 1.43002E-02 2.59366E-01 4.79456E+01-2.20665E+01-8.03157E+00



 n o d a l   p r i n t   o u t   f o r   t i m e  s t e p    9801                              ( at time 4.8995097E+00 )

 nodal point  x-rot      y-rot       z-rot       x-rot vel   y-rot vel   z-rot vel   x-rot acc   y-rot acc   z-rot acc
    22626  4.40183E-05 9.21359E-05-4.23917E-05 2.95095E-04 7.31485E-04 8.88607E-05 1.05811E-03 2.26121E-03-2.04657E-04



 n o d a l   p r i n t   o u t   f o r   t i m e  s t e p   10001                              ( at time 4.9994997E+00 )

 nodal point  x-disp     y-disp      z-disp      x-vel       y-vel       z-vel      x-accl      y-accl      z-accl      x-coor      y-coor      z-coor
    22626 -1.74023E-02-3.70933E-02-1.56777E+01 1.37418E-02-2.42032E-03-3.06137E+00 3.83554E-02 2.39697E-02 2.90355E-01 4.79468E+01-2.20669E+01-8.33918E+00



 n o d a l   p r i n t   o u t   f o r   t i m e  s t e p   10001                              ( at time 4.9994997E+00 )

 nodal point  x-rot      y-rot       z-rot       x-rot vel   y-rot vel   z-rot vel   x-rot acc   y-rot acc   z-rot acc
    22626  8.06205E-05 1.77961E-04-3.48082E-05 4.37835E-04 9.89236E-04 6.84787E-05 1.42754E-03 2.57776E-03-2.03839E-04



 n o d a l   p r i n t   o u t   f o r   t i m e  s t e p   10202                              ( at time 5.0999896E+00 )

 nodal point  x-disp     y-disp      z-disp      x-vel       y-vel       z-vel      x-accl      y-accl      z-accl      x-coor      y-coor      z-coor
    22626 -1.57626E-02-3.71483E-02-1.59836E+01 1.90292E-02 1.53618E-03-3.02683E+00 5.26160E-02 3.93723E-02 3.43740E-01 4.79484E+01-2.20669E+01-8.64506E+00



 n o d a l   p r i n t   o u t   f o r   t i m e  s t e p   10202                              ( at time 5.0999896E+00 )

 nodal point  x-rot      y-rot       z-rot       x-rot vel   y-rot vel   z-rot vel   x-rot acc   y-rot acc   z-rot acc
    22626  1.32083E-04 2.92030E-04-3.03759E-05 5.91377E-04 1.28319E-03 2.27891E-05 1.52794E-03 2.92517E-03-4.54671E-04



 n o d a l   p r i n t   o u t   f o r   t i m e  s t e p   10402                              ( at time 5.1999796E+00 )

 nodal point  x-disp     y-disp      z-disp      x-vel       y-vel       z-vel      x-accl      y-accl      z-accl      x-coor      y-coor      z-coor
    22626 -1.35808E-02-3.67448E-02-1.62844E+01 2.45198E-02 6.42777E-03-2.99121E+00 5.49111E-02 4.89206E-02 3.56198E-01 4.79506E+01-2.20665E+01-8.94594E+00



 n o d a l   p r i n t   o u t   f o r   t i m e  s t e p   10402                              ( at time 5.1999796E+00 )

 nodal point  x-rot      y-rot       z-rot       x-rot vel   y-rot vel   z-rot vel   x-rot acc   y-rot acc   z-rot acc
    22626  2.00890E-04 4.35932E-04-3.00181E-05 7.71347E-04 1.58116E-03-1.21031E-05 1.79987E-03 2.98007E-03-3.48955E-04



 n o d a l   p r i n t   o u t   f o r   t i m e  s t e p   10602                              ( at time 5.2999696E+00 )

 nodal point  x-disp     y-disp      z-disp      x-vel       y-vel       z-vel      x-accl      y-accl      z-accl      x-coor      y-coor      z-coor
    22626 -1.08539E-02-3.58290E-02-1.65816E+01 2.98213E-02 1.24555E-02-2.95274E+00 5.30204E-02 6.02836E-02 3.84775E-01 4.79533E+01-2.20656E+01-9.24312E+00



 n o d a l   p r i n t   o u t   f o r   t i m e  s t e p   10602                              ( at time 5.2999696E+00 )

 nodal point  x-rot      y-rot       z-rot       x-rot vel   y-rot vel   z-rot vel   x-rot acc   y-rot acc   z-rot acc
    22626  2.86994E-04 6.09546E-04-3.45176E-05 9.50918E-04 1.90900E-03-8.88020E-05 1.79589E-03 3.27873E-03-7.67067E-04



 n o d a l   p r i n t   o u t   f o r   t i m e  s t e p   10802                              ( at time 5.3999596E+00 )

 nodal point  x-disp     y-disp      z-disp      x-vel       y-vel       z-vel      x-accl      y-accl      z-accl      x-coor      y-coor      z-coor
    22626 -7.62146E-03-3.42358E-02-1.68749E+01 3.50137E-02 1.87500E-02-2.91403E+00 5.19298E-02 6.29507E-02 3.87059E-01 4.79566E+01-2.20640E+01-9.53642E+00



 n o d a l   p r i n t   o u t   f o r   t i m e  s t e p   10802                              ( at time 5.3999596E+00 )

 nodal point  x-rot      y-rot       z-rot       x-rot vel   y-rot vel   z-rot vel   x-rot acc   y-rot acc   z-rot acc
    22626  3.92316E-04 8.17735E-04-4.60197E-05 1.13935E-03 2.24955E-03-1.44810E-04 1.88451E-03 3.40584E-03-5.60137E-04



 n o d a l   p r i n t   o u t   f o r   t i m e  s t e p   11002                              ( at time 5.4999496E+00 )

 nodal point  x-disp     y-disp      z-disp      x-vel       y-vel       z-vel      x-accl      y-accl      z-accl      x-coor      y-coor      z-coor
    22626 -3.73825E-03-3.20757E-02-1.71643E+01 4.27359E-02 2.50823E-02-2.87286E+00 7.72294E-02 6.33298E-02 4.11791E-01 4.79604E+01-2.20619E+01-9.82577E+00



 n o d a l   p r i n t   o u t   f o r   t i m e  s t e p   11002                              ( at time 5.4999496E+00 )

 nodal point  x-rot      y-rot       z-rot       x-rot vel   y-rot vel   z-rot vel   x-rot acc   y-rot acc   z-rot acc
    22626  5.15219E-04 1.05896E-03-6.41768E-05 1.32594E-03 2.58401E-03-2.26279E-04 1.86605E-03 3.34495E-03-8.14775E-04



 n o d a l   p r i n t   o u t   f o r   t i m e  s t e p   11202                              ( at time 5.5999396E+00 )

 nodal point  x-disp     y-disp      z-disp      x-vel       y-vel       z-vel      x-accl      y-accl      z-accl      x-coor      y-coor      z-coor
    22626  8.15292E-04-2.91440E-02-1.74494E+01 4.84590E-02 3.36689E-02-2.83091E+00 5.72373E-02 8.58751E-02 4.19509E-01 4.79650E+01-2.20589E+01-1.01109E+01



 n o d a l   p r i n t   o u t   f o r   t i m e  s t e p   11202                              ( at time 5.5999396E+00 )

 nodal point  x-rot      y-rot       z-rot       x-rot vel   y-rot vel   z-rot vel   x-rot acc   y-rot acc   z-rot acc
    22626  6.57350E-04 1.33587E-03-9.08416E-05 1.51512E-03 2.94607E-03-3.08020E-04 1.89202E-03 3.62090E-03-8.17492E-04



 n o d a l   p r i n t   o u t   f o r   t i m e  s t e p   11402                              ( at time 5.6999296E+00 )

 nodal point  x-disp     y-disp      z-disp      x-vel       y-vel       z-vel      x-accl      y-accl      z-accl      x-coor      y-coor      z-coor
    22626  5.97759E-03-2.54360E-02-1.77303E+01 5.48293E-02 4.05714E-02-2.78886E+00 6.37091E-02 6.90315E-02 4.20585E-01 4.79702E+01-2.20552E+01-1.03918E+01



 n o d a l   p r i n t   o u t   f o r   t i m e  s t e p   11402                              ( at time 5.6999296E+00 )

 nodal point  x-rot      y-rot       z-rot       x-rot vel   y-rot vel   z-rot vel   x-rot acc   y-rot acc   z-rot acc
    22626  8.18952E-04 1.64820E-03-1.25383E-04 1.71144E-03 3.29663E-03-3.84122E-04 1.96339E-03 3.50600E-03-7.61092E-04



 n o d a l   p r i n t   o u t   f o r   t i m e  s t e p   11602                              ( at time 5.7999195E+00 )

 nodal point  x-disp     y-disp      z-disp      x-vel       y-vel       z-vel      x-accl      y-accl      z-accl      x-coor      y-coor      z-coor
    22626  1.18524E-02-2.09250E-02-1.80069E+01 6.28259E-02 4.98685E-02-2.74351E+00 7.99735E-02 9.29804E-02 4.53559E-01 4.79760E+01-2.20507E+01-1.06684E+01



 n o d a l   p r i n t   o u t   f o r   t i m e  s t e p   11602                              ( at time 5.7999195E+00 )

 nodal point  x-rot      y-rot       z-rot       x-rot vel   y-rot vel   z-rot vel   x-rot acc   y-rot acc   z-rot acc
    22626  9.99248E-04 1.99588E-03-1.69188E-04 1.90899E-03 3.65699E-03-4.85745E-04 1.97575E-03 3.60395E-03-1.01633E-03



 n o d a l   p r i n t   o u t   f o r   t i m e  s t e p   11802                              ( at time 5.8999095E+00 )

 nodal point  x-disp     y-disp      z-disp      x-vel       y-vel       z-vel      x-accl      y-accl      z-accl      x-coor      y-coor      z-coor
    22626  1.85260E-02-1.56934E-02-1.82792E+01 7.06644E-02 5.49173E-02-2.70037E+00 7.83929E-02 5.04927E-02 4.31426E-01 4.79827E+01-2.20455E+01-1.09406E+01



 n o d a l   p r i n t   o u t   f o r   t i m e  s t e p   11802                              ( at time 5.8999095E+00 )

 nodal point  x-rot      y-rot       z-rot       x-rot vel   y-rot vel   z-rot vel   x-rot acc   y-rot acc   z-rot acc
    22626  1.20093E-03 2.37803E-03-2.22281E-04 2.11845E-03 3.99894E-03-5.66946E-04 2.09481E-03 3.41983E-03-8.12087E-04



 n o d a l   p r i n t   o u t   f o r   t i m e  s t e p   12002                              ( at time 5.9998995E+00 )

 nodal point  x-disp     y-disp      z-disp      x-vel       y-vel       z-vel      x-accl      y-accl      z-accl      x-coor      y-coor      z-coor
    22626  2.59112E-02-9.84305E-03-1.85468E+01 7.76710E-02 6.18053E-02-2.65571E+00 7.00730E-02 6.88871E-02 4.46670E-01 4.79901E+01-2.20396E+01-1.12083E+01



 n o d a l   p r i n t   o u t   f o r   t i m e  s t e p   12002                              ( at time 5.9998995E+00 )

 nodal point  x-rot      y-rot       z-rot       x-rot vel   y-rot vel   z-rot vel   x-rot acc   y-rot acc   z-rot acc
    22626  1.42146E-03 2.79444E-03-2.84653E-04 2.29973E-03 4.31953E-03-6.67880E-04 1.81293E-03 3.20623E-03-1.00944E-03



 n o d a l   p r i n t   o u t   f o r   t i m e  s t e p   12202                              ( at time 6.0998895E+00 )

 nodal point  x-disp     y-disp      z-disp      x-vel       y-vel       z-vel      x-accl      y-accl      z-accl      x-coor      y-coor      z-coor
    22626  3.40613E-02-3.31919E-03-1.88102E+01 8.55174E-02 6.82608E-02-2.61128E+00 7.84719E-02 6.45610E-02 4.44326E-01 4.79982E+01-2.20331E+01-1.14717E+01



 n o d a l   p r i n t   o u t   f o r   t i m e  s t e p   12202                              ( at time 6.0998895E+00 )

 nodal point  x-rot      y-rot       z-rot       x-rot vel   y-rot vel   z-rot vel   x-rot acc   y-rot acc   z-rot acc
    22626  1.66252E-03 3.24274E-03-3.56441E-04 2.51081E-03 4.65073E-03-7.57020E-04 2.11099E-03 3.31227E-03-8.91483E-04



 n o d a l   p r i n t   o u t   f o r   t i m e  s t e p   12402                              ( at time 6.1998795E+00 )

 nodal point  x-disp     y-disp      z-disp      x-vel       y-vel       z-vel      x-accl      y-accl      z-accl      x-coor      y-coor      z-coor
    22626  4.30184E-02 3.81422E-03-1.90689E+01 9.36078E-02 7.43500E-02-2.56471E+00 8.09122E-02 6.08986E-02 4.65702E-01 4.80072E+01-2.20260E+01-1.17304E+01



 n o d a l   p r i n t   o u t   f o r   t i m e  s t e p   12402                              ( at time 6.1998795E+00 )

 nodal point  x-rot      y-rot       z-rot       x-rot vel   y-rot vel   z-rot vel   x-rot acc   y-rot acc   z-rot acc
    22626  1.92329E-03 3.72299E-03-4.37350E-04 2.71644E-03 4.96089E-03-8.56571E-04 2.05648E-03 3.10199E-03-9.95615E-04



 n o d a l   p r i n t   o u t   f o r   t i m e  s t e p   12602                              ( at time 6.2998695E+00 )

 nodal point  x-disp     y-disp      z-disp      x-vel       y-vel       z-vel      x-accl      y-accl      z-accl      x-coor      y-coor      z-coor
    22626  5.28337E-02 1.15638E-02-1.93230E+01 1.02592E-01 8.03283E-02-2.51728E+00 8.98497E-02 5.97891E-02 4.74327E-01 4.80170E+01-2.20182E+01-1.19845E+01



 n o d a l   p r i n t   o u t   f o r   t i m e  s t e p   12602                              ( at time 6.2998695E+00 )

 nodal point  x-rot      y-rot       z-rot       x-rot vel   y-rot vel   z-rot vel   x-rot acc   y-rot acc   z-rot acc
    22626  2.20539E-03 4.23340E-03-5.29046E-04 2.92002E-03 5.24766E-03-9.61077E-04 2.03604E-03 2.86793E-03-1.04517E-03



 n o d a l   p r i n t   o u t   f o r   t i m e  s t e p   12802                              ( at time 6.3998595E+00 )

 nodal point  x-disp     y-disp      z-disp      x-vel       y-vel       z-vel      x-accl      y-accl      z-accl      x-coor      y-coor      z-coor
    22626  6.35780E-02 1.99189E-02-1.95722E+01 1.12030E-01 8.67047E-02-2.46743E+00 9.43942E-02 6.37705E-02 4.98634E-01 4.80278E+01-2.20099E+01-1.22337E+01



 n o d a l   p r i n t   o u t   f o r   t i m e  s t e p   12802                              ( at time 6.3998595E+00 )

 nodal point  x-rot      y-rot       z-rot       x-rot vel   y-rot vel   z-rot vel   x-rot acc   y-rot acc   z-rot acc
    22626  2.50687E-03 4.77209E-03-6.30462E-04 3.12226E-03 5.54168E-03-1.05891E-03 2.02266E-03 2.94054E-03-9.78477E-04



 n o d a l   p r i n t   o u t   f o r   t i m e  s t e p   13002                              ( at time 6.4998495E+00 )

 nodal point  x-disp     y-disp      z-disp      x-vel       y-vel       z-vel      x-accl      y-accl      z-accl      x-coor      y-coor      z-coor
    22626  7.52175E-02 2.89306E-02-1.98164E+01 1.20603E-01 9.38002E-02-2.41674E+00 8.57360E-02 7.09621E-02 5.06881E-01 4.80394E+01-2.20009E+01-1.24779E+01



 n o d a l   p r i n t   o u t   f o r   t i m e  s t e p   13002                              ( at time 6.4998495E+00 )

 nodal point  x-rot      y-rot       z-rot       x-rot vel   y-rot vel   z-rot vel   x-rot acc   y-rot acc   z-rot acc
    22626  2.83111E-03 5.34092E-03-7.41899E-04 3.34294E-03 5.83229E-03-1.16848E-03 2.20700E-03 2.90642E-03-1.09579E-03



 n o d a l   p r i n t   o u t   f o r   t i m e  s t e p   13202                              ( at time 6.5998395E+00 )

 nodal point  x-disp     y-disp      z-disp      x-vel       y-vel       z-vel      x-accl      y-accl      z-accl      x-coor      y-coor      z-coor
    22626  8.77274E-02 3.86646E-02-2.00555E+01 1.28955E-01 1.01028E-01-2.36542E+00 8.35241E-02 7.22810E-02 5.13279E-01 4.80519E+01-2.19911E+01-1.27170E+01



 n o d a l   p r i n t   o u t   f o r   t i m e  s t e p   13202                              ( at time 6.5998395E+00 )

 nodal point  x-rot      y-rot       z-rot       x-rot vel   y-rot vel   z-rot vel   x-rot acc   y-rot acc   z-rot acc
    22626  3.17610E-03 5.93810E-03-8.64604E-04 3.55066E-03 6.10933E-03-1.27809E-03 2.07739E-03 2.77063E-03-1.09620E-03



 n o d a l   p r i n t   o u t   f o r   t i m e  s t e p   13402                              ( at time 6.6998295E+00 )

 nodal point  x-disp     y-disp      z-disp      x-vel       y-vel       z-vel      x-accl      y-accl      z-accl      x-coor      y-coor      z-coor
    22626  1.01047E-01 4.89645E-02-2.02895E+01 1.36629E-01 1.05930E-01-2.31242E+00 7.67534E-02 4.90294E-02 5.30018E-01 4.80652E+01-2.19808E+01-1.29510E+01



 n o d a l   p r i n t   o u t   f o r   t i m e  s t e p   13402                              ( at time 6.6998295E+00 )

 nodal point  x-rot      y-rot       z-rot       x-rot vel   y-rot vel   z-rot vel   x-rot acc   y-rot acc   z-rot acc
    22626  3.54243E-03 6.56254E-03-9.96915E-04 3.78727E-03 6.39424E-03-1.37707E-03 2.36632E-03 2.84938E-03-9.89858E-04



 n o d a l   p r i n t   o u t   f o r   t i m e  s t e p   13602                              ( at time 6.7998195E+00 )

 nodal point  x-disp     y-disp      z-disp      x-vel       y-vel       z-vel      x-accl      y-accl      z-accl      x-coor      y-coor      z-coor
    22626  1.15102E-01 5.98436E-02-2.05179E+01 1.44438E-01 1.11500E-01-2.25710E+00 7.80924E-02 5.57024E-02 5.53325E-01 4.80793E+01-2.19699E+01-1.31794E+01



 n o d a l   p r i n t   o u t   f o r   t i m e  s t e p   13602                              ( at time 6.7998195E+00 )

 nodal point  x-rot      y-rot       z-rot       x-rot vel   y-rot vel   z-rot vel   x-rot acc   y-rot acc   z-rot acc
    22626  3.93360E-03 7.21568E-03-1.14053E-03 4.03979E-03 6.66848E-03-1.47975E-03 2.52543E-03 2.74269E-03-1.02688E-03



 n o d a l   p r i n t   o u t   f o r   t i m e  s t e p   13802                              ( at time 6.8998095E+00 )

 nodal point  x-disp     y-disp      z-disp      x-vel       y-vel       z-vel      x-accl      y-accl      z-accl      x-coor      y-coor      z-coor
    22626  1.29818E-01 7.12295E-02-2.07406E+01 1.50525E-01 1.15810E-01-2.19828E+00 6.08793E-02 4.31117E-02 5.88229E-01 4.80940E+01-2.19586E+01-1.34021E+01



 n o d a l   p r i n t   o u t   f o r   t i m e  s t e p   13802                              ( at time 6.8998095E+00 )

 nodal point  x-rot      y-rot       z-rot       x-rot vel   y-rot vel   z-rot vel   x-rot acc   y-rot acc   z-rot acc
    22626  4.34927E-03 7.89521E-03-1.29482E-03 4.30189E-03 6.91897E-03-1.59603E-03 2.62131E-03 2.50512E-03-1.16301E-03



 n o d a l   p r i n t   o u t   f o r   t i m e  s t e p   14002                              ( at time 6.9997995E+00 )

 nodal point  x-disp     y-disp      z-disp      x-vel       y-vel       z-vel      x-accl      y-accl      z-accl      x-coor      y-coor      z-coor
    22626  1.45146E-01 8.30609E-02-2.09573E+01 1.56325E-01 1.21263E-01-2.13526E+00 5.80107E-02 5.45307E-02 6.30287E-01 4.81093E+01-2.19467E+01-1.36188E+01



 n o d a l   p r i n t   o u t   f o r   t i m e  s t e p   14002                              ( at time 6.9997995E+00 )

 nodal point  x-rot      y-rot       z-rot       x-rot vel   y-rot vel   z-rot vel   x-rot acc   y-rot acc   z-rot acc
    22626  4.79512E-03 8.59990E-03-1.45967E-03 4.61508E-03 7.16718E-03-1.70271E-03 3.13220E-03 2.48238E-03-1.06689E-03



 n o d a l   p r i n t   o u t   f o r   t i m e  s t e p   14202                              ( at time 7.0997895E+00 )

 nodal point  x-disp     y-disp      z-disp      x-vel       y-vel       z-vel      x-accl      y-accl      z-accl      x-coor      y-coor      z-coor
    22626  1.61036E-01 9.53315E-02-2.11675E+01 1.61161E-01 1.22835E-01-2.06836E+00 4.83598E-02 1.57199E-02 6.69053E-01 4.81252E+01-2.19345E+01-1.38290E+01



 n o d a l   p r i n t   o u t   f o r   t i m e  s t e p   14202                              ( at time 7.0997895E+00 )

 nodal point  x-rot      y-rot       z-rot       x-rot vel   y-rot vel   z-rot vel   x-rot acc   y-rot acc   z-rot acc
    22626  5.27034E-03 9.32939E-03-1.63560E-03 4.89522E-03 7.40749E-03-1.80317E-03 2.80166E-03 2.40336E-03-1.00468E-03



 n o d a l   p r i n t   o u t   f o r   t i m e  s t e p   14402                              ( at time 7.1997794E+00 )

 nodal point  x-disp     y-disp      z-disp      x-vel       y-vel       z-vel      x-accl      y-accl      z-accl      x-coor      y-coor      z-coor
    22626  1.77417E-01 1.07745E-01-2.13709E+01 1.66141E-01 1.25456E-01-1.99992E+00 4.98086E-02 2.62142E-02 6.84450E-01 4.81416E+01-2.19220E+01-1.40324E+01



 n o d a l   p r i n t   o u t   f o r   t i m e  s t e p   14402                              ( at time 7.1997794E+00 )

 nodal point  x-rot      y-rot       z-rot       x-rot vel   y-rot vel   z-rot vel   x-rot acc   y-rot acc   z-rot acc
    22626  5.77533E-03 1.00815E-02-1.82151E-03 5.19990E-03 7.63291E-03-1.91288E-03 3.04712E-03 2.25436E-03-1.09722E-03



 n o d a l   p r i n t   o u t   f o r   t i m e  s t e p   14602                              ( at time 7.2997694E+00 )

 nodal point  x-disp     y-disp      z-disp      x-vel       y-vel       z-vel      x-accl      y-accl      z-accl      x-coor      y-coor      z-coor
    22626  1.94284E-01 1.20258E-01-2.15674E+01 1.71628E-01 1.24889E-01-1.93074E+00 5.48728E-02-5.66614E-03 6.91896E-01 4.81585E+01-2.19095E+01-1.42289E+01



 n o d a l   p r i n t   o u t   f o r   t i m e  s t e p   14602                              ( at time 7.2997694E+00 )

 nodal point  x-rot      y-rot       z-rot       x-rot vel   y-rot vel   z-rot vel   x-rot acc   y-rot acc   z-rot acc
    22626  6.30978E-03 1.08553E-02-2.01729E-03 5.50388E-03 7.85191E-03-2.01486E-03 3.04013E-03 2.19025E-03-1.01985E-03



 n o d a l   p r i n t   o u t   f o r   t i m e  s t e p   14802                              ( at time 7.3997594E+00 )

 nodal point  x-disp     y-disp      z-disp      x-vel       y-vel       z-vel      x-accl      y-accl      z-accl      x-coor      y-coor      z-coor
    22626  2.11576E-01 1.32651E-01-2.17568E+01 1.73996E-01 1.23040E-01-1.85837E+00 2.36783E-02-1.84980E-02 7.23758E-01 4.81758E+01-2.18971E+01-1.44183E+01



 n o d a l   p r i n t   o u t   f o r   t i m e  s t e p   14802                              ( at time 7.3997594E+00 )

 nodal point  x-rot      y-rot       z-rot       x-rot vel   y-rot vel   z-rot vel   x-rot acc   y-rot acc   z-rot acc
    22626  6.87730E-03 1.16534E-02-2.22346E-03 5.83069E-03 8.09741E-03-2.10953E-03 3.26838E-03 2.45530E-03-9.46811E-04



 n o d a l   p r i n t   o u t   f o r   t i m e  s t e p   15002                              ( at time 7.4997494E+00 )

 nodal point  x-disp     y-disp      z-disp      x-vel       y-vel       z-vel      x-accl      y-accl      z-accl      x-coor      y-coor      z-coor
    22626  2.29102E-01 1.44847E-01-2.19389E+01 1.76469E-01 1.19190E-01-1.78545E+00 2.47361E-02-3.85057E-02 7.29303E-01 4.81933E+01-2.18849E+01-1.46004E+01



 n o d a l   p r i n t   o u t   f o r   t i m e  s t e p   15002                              ( at time 7.4997494E+00 )

 nodal point  x-rot      y-rot       z-rot       x-rot vel   y-rot vel   z-rot vel   x-rot acc   y-rot acc   z-rot acc
    22626  7.47612E-03 1.24738E-02-2.43918E-03 6.13264E-03 8.30195E-03-2.20531E-03 3.01985E-03 2.04559E-03-9.57878E-04



 n o d a l   p r i n t   o u t   f o r   t i m e  s t e p   15202                              ( at time 7.5997394E+00 )

 nodal point  x-disp     y-disp      z-disp      x-vel       y-vel       z-vel      x-accl      y-accl      z-accl      x-coor      y-coor      z-coor
    22626  2.46855E-01 1.56509E-01-2.21137E+01 1.77726E-01 1.14529E-01-1.70921E+00 1.25740E-02-4.66129E-02 7.62444E-01 4.82110E+01-2.18733E+01-1.47752E+01



 n o d a l   p r i n t   o u t   f o r   t i m e  s t e p   15202                              ( at time 7.5997394E+00 )

 nodal point  x-rot      y-rot       z-rot       x-rot vel   y-rot vel   z-rot vel   x-rot acc   y-rot acc   z-rot acc
    22626  8.10652E-03 1.33151E-02-2.66444E-03 6.46494E-03 8.54560E-03-2.30759E-03 3.32331E-03 2.43674E-03-1.02291E-03



 n o d a l   p r i n t   o u t   f o r   t i m e  s t e p   15402                              ( at time 7.6997294E+00 )

 nodal point  x-disp     y-disp      z-disp      x-vel       y-vel       z-vel      x-accl      y-accl      z-accl      x-coor      y-coor      z-coor
    22626  2.64708E-01 1.67680E-01-2.22807E+01 1.78921E-01 1.08923E-01-1.63302E+00 1.19528E-02-5.60602E-02 7.61940E-01 4.82289E+01-2.18621E+01-1.49422E+01



 n o d a l   p r i n t   o u t   f o r   t i m e  s t e p   15402                              ( at time 7.6997294E+00 )

 nodal point  x-rot      y-rot       z-rot       x-rot vel   y-rot vel   z-rot vel   x-rot acc   y-rot acc   z-rot acc
    22626  8.76970E-03 1.41807E-02-2.89871E-03 6.82837E-03 8.74467E-03-2.40117E-03 3.63468E-03 1.99091E-03-9.35922E-04



 n o d a l   p r i n t   o u t   f o r   t i m e  s t e p   15602                              ( at time 7.7997194E+00 )

 nodal point  x-disp     y-disp      z-disp      x-vel       y-vel       z-vel      x-accl      y-accl      z-accl      x-coor      y-coor      z-coor
    22626  2.82649E-01 1.78242E-01-2.24402E+01 1.80720E-01 1.03054E-01-1.55652E+00 1.79851E-02-5.86983E-02 7.65111E-01 4.82468E+01-2.18515E+01-1.51017E+01



 n o d a l   p r i n t   o u t   f o r   t i m e  s t e p   15602                              ( at time 7.7997194E+00 )

 nodal point  x-rot      y-rot       z-rot       x-rot vel   y-rot vel   z-rot vel   x-rot acc   y-rot acc   z-rot acc
    22626  9.46877E-03 1.50625E-02-3.14220E-03 7.15268E-03 8.90115E-03-2.49571E-03 3.24337E-03 1.56494E-03-9.45456E-04



 n o d a l   p r i n t   o u t   f o r   t i m e  s t e p   15802                              ( at time 7.8997094E+00 )

 nodal point  x-disp     y-disp      z-disp      x-vel       y-vel       z-vel      x-accl      y-accl      z-accl      x-coor      y-coor      z-coor
    22626  3.00891E-01 1.88126E-01-2.25920E+01 1.84611E-01 9.53911E-02-1.48037E+00 3.89171E-02-7.66378E-02 7.61597E-01 4.82651E+01-2.18417E+01-1.52535E+01



 n o d a l   p r i n t   o u t   f o r   t i m e  s t e p   15802                              ( at time 7.8997094E+00 )

 nodal point  x-rot      y-rot       z-rot       x-rot vel   y-rot vel   z-rot vel   x-rot acc   y-rot acc   z-rot acc
    22626  1.01999E-02 1.59586E-02-3.39308E-03 7.49336E-03 9.01318E-03-2.55613E-03 3.40720E-03 1.12038E-03-6.04296E-04



 n o d a l   p r i n t   o u t   f o r   t i m e  s t e p   16002                              ( at time 7.9996994E+00 )

 nodal point  x-disp     y-disp      z-disp      x-vel       y-vel       z-vel      x-accl      y-accl      z-accl      x-coor      y-coor      z-coor
    22626  3.19502E-01 1.97309E-01-2.27362E+01 1.88010E-01 8.87743E-02-1.40312E+00 3.39934E-02-6.61745E-02 7.72547E-01 4.82837E+01-2.18325E+01-1.53976E+01



 n o d a l   p r i n t   o u t   f o r   t i m e  s t e p   16002                              ( at time 7.9996994E+00 )

 nodal point  x-rot      y-rot       z-rot       x-rot vel   y-rot vel   z-rot vel   x-rot acc   y-rot acc   z-rot acc
    22626  1.09719E-02 1.68667E-02-3.65074E-03 7.92591E-03 9.13448E-03-2.61321E-03 4.32594E-03 1.21310E-03-5.70821E-04



 n o d a l   p r i n t   o u t   f o r   t i m e  s t e p   16202                              ( at time 8.0996894E+00 )

 nodal point  x-disp     y-disp      z-disp      x-vel       y-vel       z-vel      x-accl      y-accl      z-accl      x-coor      y-coor      z-coor
    22626  3.38486E-01 2.05895E-01-2.28727E+01 1.92717E-01 8.35326E-02-1.32777E+00 4.70725E-02-5.24221E-02 7.53586E-01 4.83027E+01-2.18239E+01-1.55342E+01



 n o d a l   p r i n t   o u t   f o r   t i m e  s t e p   16202                              ( at time 8.0996894E+00 )

 nodal point  x-rot      y-rot       z-rot       x-rot vel   y-rot vel   z-rot vel   x-rot acc   y-rot acc   z-rot acc
    22626  1.17826E-02 1.77854E-02-3.91585E-03 8.29366E-03 9.21194E-03-2.68466E-03 3.67785E-03 7.74706E-04-7.14655E-04



 n o d a l   p r i n t   o u t   f o r   t i m e  s t e p   16402                              ( at time 8.1996794E+00 )

 nodal point  x-disp     y-disp      z-disp      x-vel       y-vel       z-vel      x-accl      y-accl      z-accl      x-coor      y-coor      z-coor
    22626  3.57889E-01 2.13930E-01-2.30017E+01 1.96692E-01 7.77007E-02-1.25400E+00 3.97511E-02-5.83250E-02 7.37731E-01 4.83221E+01-2.18159E+01-1.56632E+01



 n o d a l   p r i n t   o u t   f o r   t i m e  s t e p   16402                              ( at time 8.1996794E+00 )

 nodal point  x-rot      y-rot       z-rot       x-rot vel   y-rot vel   z-rot vel   x-rot acc   y-rot acc   z-rot acc
    22626  1.26299E-02 1.87138E-02-4.18690E-03 8.67263E-03 9.31734E-03-2.73420E-03 3.79002E-03 1.05407E-03-4.95446E-04



 n o d a l   p r i n t   o u t   f o r   t i m e  s t e p   16602                              ( at time 8.2996694E+00 )

 nodal point  x-disp     y-disp      z-disp      x-vel       y-vel       z-vel      x-accl      y-accl      z-accl      x-coor      y-coor      z-coor
    22626  3.77774E-01 2.21562E-01-2.31234E+01 2.01632E-01 7.53955E-02-1.18009E+00 4.94107E-02-2.30547E-02 7.39206E-01 4.83420E+01-2.18082E+01-1.57849E+01



 n o d a l   p r i n t   o u t   f o r   t i m e  s t e p   16602                              ( at time 8.2996694E+00 )

 nodal point  x-rot      y-rot       z-rot       x-rot vel   y-rot vel   z-rot vel   x-rot acc   y-rot acc   z-rot acc
    22626  1.35169E-02 1.96515E-02-4.46458E-03 9.10238E-03 9.40792E-03-2.82480E-03 4.29798E-03 9.05887E-04-9.06017E-04



 n o d a l   p r i n t   o u t   f o r   t i m e  s t e p   16802                              ( at time 8.3996594E+00 )

 nodal point  x-disp     y-disp      z-disp      x-vel       y-vel       z-vel      x-accl      y-accl      z-accl      x-coor      y-coor      z-coor
    22626  3.98227E-01 2.28824E-01-2.32378E+01 2.08001E-01 7.01486E-02-1.10698E+00 6.36958E-02-5.24743E-02 7.31183E-01 4.83624E+01-2.18010E+01-1.58993E+01



 n o d a l   p r i n t   o u t   f o r   t i m e  s t e p   16802                              ( at time 8.3996594E+00 )

 nodal point  x-rot      y-rot       z-rot       x-rot vel   y-rot vel   z-rot vel   x-rot acc   y-rot acc   z-rot acc
    22626  1.44448E-02 2.05956E-02-4.74704E-03 9.43436E-03 9.47575E-03-2.86183E-03 3.32015E-03 6.78369E-04-3.70373E-04



 n o d a l   p r i n t   o u t   f o r   t i m e  s t e p   17002                              ( at time 8.4996494E+00 )

 nodal point  x-disp     y-disp      z-disp      x-vel       y-vel       z-vel      x-accl      y-accl      z-accl      x-coor      y-coor      z-coor
    22626  4.19371E-01 2.35601E-01-2.33450E+01 2.14913E-01 6.64817E-02-1.03931E+00 6.91275E-02-3.66720E-02 6.76803E-01 4.83835E+01-2.17942E+01-1.60065E+01



 n o d a l   p r i n t   o u t   f o r   t i m e  s t e p   17002                              ( at time 8.4996494E+00 )

 nodal point  x-rot      y-rot       z-rot       x-rot vel   y-rot vel   z-rot vel   x-rot acc   y-rot acc   z-rot acc
    22626  1.54102E-02 2.15452E-02-5.03425E-03 9.88522E-03 9.52396E-03-2.91372E-03 4.50904E-03 4.82204E-04-5.18916E-04



 n o d a l   p r i n t   o u t   f o r   t i m e  s t e p   17202                              ( at time 8.5996394E+00 )

 nodal point  x-disp     y-disp      z-disp      x-vel       y-vel       z-vel      x-accl      y-accl      z-accl      x-coor      y-coor      z-coor
    22626  4.41125E-01 2.42197E-01-2.34454E+01 2.22040E-01 6.32471E-02-9.70364E-01 7.12720E-02-3.23492E-02 6.89490E-01 4.84053E+01-2.17876E+01-1.61069E+01



 n o d a l   p r i n t   o u t   f o r   t i m e  s t e p   17202                              ( at time 8.5996394E+00 )

 nodal point  x-rot      y-rot       z-rot       x-rot vel   y-rot vel   z-rot vel   x-rot acc   y-rot acc   z-rot acc
    22626  1.64196E-02 2.25011E-02-5.32563E-03 1.02573E-02 9.57186E-03-2.91071E-03 3.72153E-03 4.79028E-04 3.01011E-05



 n o d a l   p r i n t   o u t   f o r   t i m e  s t e p   17402                              ( at time 8.6996293E+00 )

 nodal point  x-disp     y-disp      z-disp      x-vel       y-vel       z-vel      x-accl      y-accl      z-accl      x-coor      y-coor      z-coor
    22626  4.63677E-01 2.48502E-01-2.35387E+01 2.28888E-01 6.26826E-02-8.99198E-01 6.84941E-02-5.64627E-03 7.11728E-01 4.84279E+01-2.17813E+01-1.62002E+01



 n o d a l   p r i n t   o u t   f o r   t i m e  s t e p   17402                              ( at time 8.6996293E+00 )

 nodal point  x-rot      y-rot       z-rot       x-rot vel   y-rot vel   z-rot vel   x-rot acc   y-rot acc   z-rot acc
    22626  1.74662E-02 2.34605E-02-5.62035E-03 1.07180E-02 9.58948E-03-2.96961E-03 4.60692E-03 1.76176E-04-5.89129E-04



 n o d a l   p r i n t   o u t   f o r   t i m e  s t e p   17602                              ( at time 8.7996193E+00 )

 nodal point  x-disp     y-disp      z-disp      x-vel       y-vel       z-vel      x-accl      y-accl      z-accl      x-coor      y-coor      z-coor
    22626  4.87023E-01 2.54698E-01-2.36254E+01 2.37281E-01 6.13467E-02-8.31818E-01 8.39388E-02-1.33605E-02 6.73868E-01 4.84512E+01-2.17751E+01-1.62869E+01



 n o d a l   p r i n t   o u t   f o r   t i m e  s t e p   17602                              ( at time 8.7996193E+00 )

 nodal point  x-rot      y-rot       z-rot       x-rot vel   y-rot vel   z-rot vel   x-rot acc   y-rot acc   z-rot acc
    22626  1.85573E-02 2.44225E-02-5.91868E-03 1.10884E-02 9.63182E-03-3.00020E-03 3.70405E-03 4.23478E-04-3.05919E-04



 n o d a l   p r i n t   o u t   f o r   t i m e  s t e p   17802                              ( at time 8.8996093E+00 )

 nodal point  x-disp     y-disp      z-disp      x-vel       y-vel       z-vel      x-accl      y-accl      z-accl      x-coor      y-coor      z-coor
    22626  5.11150E-01 2.60675E-01-2.37051E+01 2.46480E-01 5.98748E-02-7.64997E-01 9.19949E-02-1.47196E-02 6.68275E-01 4.84753E+01-2.17691E+01-1.63666E+01



 n o d a l   p r i n t   o u t   f o r   t i m e  s t e p   17802                              ( at time 8.8996093E+00 )

 nodal point  x-rot      y-rot       z-rot       x-rot vel   y-rot vel   z-rot vel   x-rot acc   y-rot acc   z-rot acc
    22626  1.96874E-02 2.53901E-02-6.21932E-03 1.15359E-02 9.70388E-03-3.02722E-03 4.47623E-03 7.20674E-04-2.70199E-04



 n o d a l   p r i n t   o u t   f o r   t i m e  s t e p   18002                              ( at time 8.9995993E+00 )

 nodal point  x-disp     y-disp      z-disp      x-vel       y-vel       z-vel      x-accl      y-accl      z-accl      x-coor      y-coor      z-coor
    22626  5.36125E-01 2.66493E-01-2.37782E+01 2.53309E-01 5.94484E-02-6.94881E-01 6.82983E-02-4.26451E-03 7.01237E-01 4.85003E+01-2.17633E+01-1.64397E+01



 n o d a l   p r i n t   o u t   f o r   t i m e  s t e p   18002                              ( at time 8.9995993E+00 )

 nodal point  x-rot      y-rot       z-rot       x-rot vel   y-rot vel   z-rot vel   x-rot acc   y-rot acc   z-rot acc
    22626  2.08598E-02 2.63606E-02-6.52203E-03 1.19282E-02 9.71645E-03-3.08134E-03 3.92347E-03 1.25685E-04-5.41302E-04



 n o d a l   p r i n t   o u t   f o r   t i m e  s t e p   18202                              ( at time 9.0995893E+00 )

 nodal point  x-disp     y-disp      z-disp      x-vel       y-vel       z-vel      x-accl      y-accl      z-accl      x-coor      y-coor      z-coor
    22626  5.62012E-01 2.72329E-01-2.38445E+01 2.63123E-01 5.78820E-02-6.30713E-01 9.81511E-02-1.56661E-02 6.41745E-01 4.85262E+01-2.17575E+01-1.65060E+01



 n o d a l   p r i n t   o u t   f o r   t i m e  s t e p   18202                              ( at time 9.0995893E+00 )

 nodal point  x-rot      y-rot       z-rot       x-rot vel   y-rot vel   z-rot vel   x-rot acc   y-rot acc   z-rot acc
    22626  2.20734E-02 2.73340E-02-6.82948E-03 1.23752E-02 9.77179E-03-3.09523E-03 4.46979E-03 5.53457E-04-1.38870E-04



 n o d a l   p r i n t   o u t   f o r   t i m e  s t e p   18402                              ( at time 9.1995793E+00 )

 nodal point  x-disp     y-disp      z-disp      x-vel       y-vel       z-vel      x-accl      y-accl      z-accl      x-coor      y-coor      z-coor
    22626  5.88696E-01 2.78171E-01-2.39041E+01 2.71237E-01 5.80198E-02-5.65295E-01 8.11459E-02 1.37809E-03 6.54247E-01 4.85529E+01-2.17516E+01-1.65656E+01



 n o d a l   p r i n t   o u t   f o r   t i m e  s t e p   18402                              ( at time 9.1995793E+00 )

 nodal point  x-rot      y-rot       z-rot       x-rot vel   y-rot vel   z-rot vel   x-rot acc   y-rot acc   z-rot acc
    22626  2.33282E-02 2.83118E-02-7.13783E-03 1.27242E-02 9.77635E-03-3.10038E-03 3.49085E-03 4.56767E-05-5.15213E-05



 n o d a l   p r i n t   o u t   f o r   t i m e  s t e p   18602                              ( at time 9.2995693E+00 )

 nodal point  x-disp     y-disp      z-disp      x-vel       y-vel       z-vel      x-accl      y-accl      z-accl      x-coor      y-coor      z-coor
    22626  6.16205E-01 2.83934E-01-2.39571E+01 2.79298E-01 5.71991E-02-4.94276E-01 8.06169E-02-8.20723E-03 7.10262E-01 4.85804E+01-2.17459E+01-1.66186E+01



 n o d a l   p r i n t   o u t   f o r   t i m e  s t e p   18602                              ( at time 9.2995693E+00 )

 nodal point  x-rot      y-rot       z-rot       x-rot vel   y-rot vel   z-rot vel   x-rot acc   y-rot acc   z-rot acc
    22626  2.46210E-02 2.92940E-02-7.44831E-03 1.31483E-02 9.83908E-03-3.11243E-03 4.24112E-03 6.27281E-04-1.20535E-04



 n o d a l   p r i n t   o u t   f o r   t i m e  s t e p   18802                              ( at time 9.3995593E+00 )

 nodal point  x-disp     y-disp      z-disp      x-vel       y-vel       z-vel      x-accl      y-accl      z-accl      x-coor      y-coor      z-coor
    22626  6.44496E-01 2.90010E-01-2.40031E+01 2.87881E-01 6.28619E-02-4.28492E-01 8.58352E-02 5.66330E-02 6.57905E-01 4.86087E+01-2.17398E+01-1.66646E+01



 n o d a l   p r i n t   o u t   f o r   t i m e  s t e p   18802                              ( at time 9.3995593E+00 )

 nodal point  x-rot      y-rot       z-rot       x-rot vel   y-rot vel   z-rot vel   x-rot acc   y-rot acc   z-rot acc
    22626  2.59611E-02 3.02759E-02-7.76142E-03 1.36211E-02 9.84776E-03-3.11660E-03 4.72870E-03 8.68919E-05-4.16413E-05



 n o d a l   p r i n t   o u t   f o r   t i m e  s t e p   19002                              ( at time 9.4995493E+00 )

 nodal point  x-disp     y-disp      z-disp      x-vel       y-vel       z-vel      x-accl      y-accl      z-accl      x-coor      y-coor      z-coor
    22626  6.73635E-01 2.96224E-01-2.40428E+01 2.95271E-01 5.95389E-02-3.63341E-01 7.39137E-02-3.32331E-02 6.51572E-01 4.86378E+01-2.17336E+01-1.67043E+01



 n o d a l   p r i n t   o u t   f o r   t i m e  s t e p   19002                              ( at time 9.4995493E+00 )

 nodal point  x-rot      y-rot       z-rot       x-rot vel   y-rot vel   z-rot vel   x-rot acc   y-rot acc   z-rot acc
    22626  2.73397E-02 3.12618E-02-8.07423E-03 1.39076E-02 9.87612E-03-3.11353E-03 2.86553E-03 2.83598E-04 3.06809E-05



 n o d a l   p r i n t   o u t   f o r   t i m e  s t e p   19202                              ( at time 9.5995393E+00 )

 nodal point  x-disp     y-disp      z-disp      x-vel       y-vel       z-vel      x-accl      y-accl      z-accl      x-coor      y-coor      z-coor
    22626  7.03459E-01 3.02484E-01-2.40756E+01 3.01523E-01 6.65493E-02-2.96568E-01 6.25209E-02 7.01107E-02 6.67796E-01 4.86676E+01-2.17273E+01-1.67371E+01



 n o d a l   p r i n t   o u t   f o r   t i m e  s t e p   19202                              ( at time 9.5995393E+00 )

 nodal point  x-rot      y-rot       z-rot       x-rot vel   y-rot vel   z-rot vel   x-rot acc   y-rot acc   z-rot acc
    22626  2.87556E-02 3.22493E-02-8.38876E-03 1.44408E-02 9.89002E-03-3.16869E-03 5.33198E-03 1.38966E-04-5.51598E-04



 n o d a l   p r i n t   o u t   f o r   t i m e  s t e p   19402                              ( at time 9.6995293E+00 )

 nodal point  x-disp     y-disp      z-disp      x-vel       y-vel       z-vel      x-accl      y-accl      z-accl      x-coor      y-coor      z-coor
    22626  7.33843E-01 3.09420E-01-2.41024E+01 3.07740E-01 6.80720E-02-2.37771E-01 6.21832E-02 1.52286E-02 5.88021E-01 4.86980E+01-2.17204E+01-1.67639E+01



 n o d a l   p r i n t   o u t   f o r   t i m e  s t e p   19402                              ( at time 9.6995293E+00 )

 nodal point  x-rot      y-rot       z-rot       x-rot vel   y-rot vel   z-rot vel   x-rot acc   y-rot acc   z-rot acc
    22626  3.02203E-02 3.32373E-02-8.70667E-03 1.47495E-02 9.93834E-03-3.17707E-03 3.08753E-03 4.83284E-04-8.38671E-05



 n o d a l   p r i n t   o u t   f o r   t i m e  s t e p   19602                              ( at time 9.7995193E+00 )

 nodal point  x-disp     y-disp      z-disp      x-vel       y-vel       z-vel      x-accl      y-accl      z-accl      x-coor      y-coor      z-coor
    22626  7.64951E-01 3.16076E-01-2.41229E+01 3.12749E-01 6.71062E-02-1.77659E-01 5.00941E-02-9.65916E-03 6.01186E-01 4.87291E+01-2.17137E+01-1.67844E+01



 n o d a l   p r i n t   o u t   f o r   t i m e  s t e p   19602                              ( at time 9.7995193E+00 )

 nodal point  x-rot      y-rot       z-rot       x-rot vel   y-rot vel   z-rot vel   x-rot acc   y-rot acc   z-rot acc
    22626  3.17100E-02 3.42328E-02-9.02595E-03 1.51539E-02 9.94292E-03-3.20808E-03 4.04479E-03 4.57791E-05-3.10134E-04



 n o d a l   p r i n t   o u t   f o r   t i m e  s t e p   19802                              ( at time 9.8995093E+00 )

 nodal point  x-disp     y-disp      z-disp      x-vel       y-vel       z-vel      x-accl      y-accl      z-accl      x-coor      y-coor      z-coor
    22626  7.96394E-01 3.23413E-01-2.41381E+01 3.15834E-01 7.76820E-02-1.25500E-01 3.08533E-02 1.05769E-01 5.21643E-01 4.87606E+01-2.17064E+01-1.67996E+01



 n o d a l   p r i n t   o u t   f o r   t i m e  s t e p   19802                              ( at time 9.8995093E+00 )

 nodal point  x-rot      y-rot       z-rot       x-rot vel   y-rot vel   z-rot vel   x-rot acc   y-rot acc   z-rot acc
    22626  3.32474E-02 3.52264E-02-9.34992E-03 1.55329E-02 9.94661E-03-3.22321E-03 3.79032E-03 3.69120E-05-1.51327E-04



 n o d a l   p r i n t   o u t   f o r   t i m e  s t e p   20003                              ( at time 9.9999992E+00 )

 nodal point  x-disp     y-disp      z-disp      x-vel       y-vel       z-vel      x-accl      y-accl      z-accl      x-coor      y-coor      z-coor
[...]
    22626  2.68296E-01 1.50366E-01-7.08685E-02 1.88378E-02 8.50802E-03-5.93132E-03 5.55119E-06 1.66498E-04 3.14993E-04



 n o d a l   p r i n t   o u t   f o r   t i m e  s t e p   45205                              ( at time 2.2599738E+01 )

 nodal point  x-disp     y-disp      z-disp      x-vel       y-vel       z-vel      x-accl      y-accl      z-accl      x-coor      y-coor      z-coor
    22626  4.42194E+00 9.05661E-01-1.82512E+01 2.45445E-01-9.87370E-03 5.14418E-01 8.59190E-03-1.13308E-02-1.43255E-02 5.23861E+01-2.11241E+01-1.09127E+01



 n o d a l   p r i n t   o u t   f o r   t i m e  s t e p   45205                              ( at time 2.2599738E+01 )

 nodal point  x-rot      y-rot       z-rot       x-rot vel   y-rot vel   z-rot vel   x-rot acc   y-rot acc   z-rot acc
    22626  2.70180E-01 1.51217E-01-7.14600E-02 1.88501E-02 8.51330E-03-5.90140E-03 1.23244E-04 5.28295E-05 2.99224E-04



 n o d a l   p r i n t   o u t   f o r   t i m e  s t e p   45405                              ( at time 2.2699728E+01 )

 nodal point  x-disp     y-disp      z-disp      x-vel       y-vel       z-vel      x-accl      y-accl      z-accl      x-coor      y-coor      z-coor
    22626  4.44654E+00 9.04594E-01-1.81998E+01 2.46570E-01-1.13730E-02 5.13331E-01 1.12433E-02-1.49944E-02-1.08731E-02 5.24107E+01-2.11252E+01-1.08613E+01



 n o d a l   p r i n t   o u t   f o r   t i m e  s t e p   45405                              ( at time 2.2699728E+01 )

 nodal point  x-rot      y-rot       z-rot       x-rot vel   y-rot vel   z-rot vel   x-rot acc   y-rot acc   z-rot acc
    22626  2.72066E-01 1.52069E-01-7.20487E-02 1.88705E-02 8.51796E-03-5.87146E-03 2.04131E-04 4.65527E-05 2.99463E-04



 n o d a l   p r i n t   o u t   f o r   t i m e  s t e p   45605                              ( at time 2.2799718E+01 )

 nodal point  x-disp     y-disp      z-disp      x-vel       y-vel       z-vel      x-accl      y-accl      z-accl      x-coor      y-coor      z-coor
    22626  4.47125E+00 9.03391E-01-1.81485E+01 2.47623E-01-1.27227E-02 5.12214E-01 1.05361E-02-1.34982E-02-1.11650E-02 5.24354E+01-2.11264E+01-1.08100E+01



 n o d a l   p r i n t   o u t   f o r   t i m e  s t e p   45605                              ( at time 2.2799718E+01 )

 nodal point  x-rot      y-rot       z-rot       x-rot vel   y-rot vel   z-rot vel   x-rot acc   y-rot acc   z-rot acc
    22626  2.73953E-01 1.52921E-01-7.26342E-02 1.88774E-02 8.52499E-03-5.83816E-03 6.92222E-05 7.03399E-05 3.33034E-04



 n o d a l   p r i n t   o u t   f o r   t i m e  s t e p   45805                              ( at time 2.2899708E+01 )

 nodal point  x-disp     y-disp      z-disp      x-vel       y-vel       z-vel      x-accl      y-accl      z-accl      x-coor      y-coor      z-coor
    22626  4.49603E+00 9.02074E-01-1.80974E+01 2.48326E-01-1.35205E-02 5.10977E-01 7.02802E-03-7.97900E-03-1.23759E-02 5.24602E+01-2.11277E+01-1.07589E+01



 n o d a l   p r i n t   o u t   f o r   t i m e  s t e p   45805                              ( at time 2.2899708E+01 )

 nodal point  x-rot      y-rot       z-rot       x-rot vel   y-rot vel   z-rot vel   x-rot acc   y-rot acc   z-rot acc
    22626  2.75841E-01 1.53773E-01-7.32168E-02 1.88879E-02 8.52977E-03-5.81666E-03 1.04729E-04 4.78101E-05 2.15001E-04



 n o d a l   p r i n t   o u t   f o r   t i m e  s t e p   46005                              ( at time 2.2999698E+01 )

 nodal point  x-disp     y-disp      z-disp      x-vel       y-vel       z-vel      x-accl      y-accl      z-accl      x-coor      y-coor      z-coor
    22626  4.52092E+00 9.00680E-01-1.80463E+01 2.49199E-01-1.43930E-02 5.09343E-01 8.72960E-03-8.72576E-03-1.63433E-02 5.24851E+01-2.11291E+01-1.07078E+01



 n o d a l   p r i n t   o u t   f o r   t i m e  s t e p   46005                              ( at time 2.2999698E+01 )

 nodal point  x-rot      y-rot       z-rot       x-rot vel   y-rot vel   z-rot vel   x-rot acc   y-rot acc   z-rot acc
    22626  2.77730E-01 1.54627E-01-7.37967E-02 1.88994E-02 8.53221E-03-5.78567E-03 1.15383E-04 2.44401E-05 3.09945E-04



 n o d a l   p r i n t   o u t   f o r   t i m e  s t e p   46205                              ( at time 2.3099688E+01 )

 nodal point  x-disp     y-disp      z-disp      x-vel       y-vel       z-vel      x-accl      y-accl      z-accl      x-coor      y-coor      z-coor
    22626  4.54588E+00 8.99206E-01-1.79955E+01 2.50184E-01-1.49329E-02 5.08313E-01 9.85418E-03-5.39962E-03-1.02961E-02 5.25101E+01-2.11306E+01-1.06570E+01



 n o d a l   p r i n t   o u t   f o r   t i m e  s t e p   46205                              ( at time 2.3099688E+01 )

 nodal point  x-rot      y-rot       z-rot       x-rot vel   y-rot vel   z-rot vel   x-rot acc   y-rot acc   z-rot acc
    22626  2.79620E-01 1.55481E-01-7.43733E-02 1.89149E-02 8.54522E-03-5.75071E-03 1.55120E-04 1.30036E-04 3.49625E-04



 n o d a l   p r i n t   o u t   f o r   t i m e  s t e p   46405                              ( at time 2.3199678E+01 )

 nodal point  x-disp     y-disp      z-disp      x-vel       y-vel       z-vel      x-accl      y-accl      z-accl      x-coor      y-coor      z-coor
    22626  4.57093E+00 8.97693E-01-1.79447E+01 2.50911E-01-1.53878E-02 5.06773E-01 7.26766E-03-4.54922E-03-1.54068E-02 5.25351E+01-2.11321E+01-1.06062E+01



 n o d a l   p r i n t   o u t   f o r   t i m e  s t e p   46405                              ( at time 2.3199678E+01 )

 nodal point  x-rot      y-rot       z-rot       x-rot vel   y-rot vel   z-rot vel   x-rot acc   y-rot acc   z-rot acc
    22626  2.81512E-01 1.56335E-01-7.49471E-02 1.89295E-02 8.54881E-03-5.72918E-03 1.45113E-04 3.59989E-05 2.15351E-04



 n o d a l   p r i n t   o u t   f o r   t i m e  s t e p   46605                              ( at time 2.3299668E+01 )

 nodal point  x-disp     y-disp      z-disp      x-vel       y-vel       z-vel      x-accl      y-accl      z-accl      x-coor      y-coor      z-coor
    22626  4.59603E+00 8.96126E-01-1.78941E+01 2.51461E-01-1.58068E-02 5.05063E-01 5.50301E-03-4.19097E-03-1.70971E-02 5.25602E+01-2.11337E+01-1.05556E+01



 n o d a l   p r i n t   o u t   f o r   t i m e  s t e p   46605                              ( at time 2.3299668E+01 )

 nodal point  x-rot      y-rot       z-rot       x-rot vel   y-rot vel   z-rot vel   x-rot acc   y-rot acc   z-rot acc
    22626  2.83406E-01 1.57190E-01-7.55187E-02 1.89451E-02 8.55255E-03-5.70116E-03 1.56610E-04 3.74061E-05 2.80173E-04



 n o d a l   p r i n t   o u t   f o r   t i m e  s t e p   46805                              ( at time 2.3399658E+01 )

 nodal point  x-disp     y-disp      z-disp      x-vel       y-vel       z-vel      x-accl      y-accl      z-accl      x-coor      y-coor      z-coor
    22626  4.62121E+00 8.94553E-01-1.78437E+01 2.52087E-01-1.58824E-02 5.03243E-01 6.25817E-03-7.55968E-04-1.81984E-02 5.25854E+01-2.11352E+01-1.05052E+01



 n o d a l   p r i n t   o u t   f o r   t i m e  s t e p   46805                              ( at time 2.3399658E+01 )

 nodal point  x-rot      y-rot       z-rot       x-rot vel   y-rot vel   z-rot vel   x-rot acc   y-rot acc   z-rot acc
    22626  2.85301E-01 1.58045E-01-7.60877E-02 1.89641E-02 8.55480E-03-5.67576E-03 1.90175E-04 2.24376E-05 2.54069E-04



 n o d a l   p r i n t   o u t   f o r   t i m e  s t e p   47005                              ( at time 2.3499648E+01 )

 nodal point  x-disp     y-disp      z-disp      x-vel       y-vel       z-vel      x-accl      y-accl      z-accl      x-coor      y-coor      z-coor
    22626  4.64645E+00 8.92969E-01-1.77935E+01 2.52510E-01-1.56131E-02 5.01666E-01 4.23709E-03 2.69307E-03-1.57728E-02 5.26106E+01-2.11368E+01-1.04550E+01



 n o d a l   p r i n t   o u t   f o r   t i m e  s t e p   47005                              ( at time 2.3499648E+01 )

 nodal point  x-rot      y-rot       z-rot       x-rot vel   y-rot vel   z-rot vel   x-rot acc   y-rot acc   z-rot acc
    22626  2.87199E-01 1.58901E-01-7.66543E-02 1.89874E-02 8.55464E-03-5.65616E-03 2.32833E-04-1.53682E-06 1.96024E-04



 n o d a l   p r i n t   o u t   f o r   t i m e  s t e p   47205                              ( at time 2.3599638E+01 )

 nodal point  x-disp     y-disp      z-disp      x-vel       y-vel       z-vel      x-accl      y-accl      z-accl      x-coor      y-coor      z-coor
    22626  4.67173E+00 8.91427E-01-1.77434E+01 2.53080E-01-1.53191E-02 4.99237E-01 5.69675E-03 2.94036E-03-2.42934E-02 5.26359E+01-2.11384E+01-1.04049E+01



 n o d a l   p r i n t   o u t   f o r   t i m e  s t e p   47205                              ( at time 2.3599638E+01 )

 nodal point  x-rot      y-rot       z-rot       x-rot vel   y-rot vel   z-rot vel   x-rot acc   y-rot acc   z-rot acc
    22626  2.89098E-01 1.59756E-01-7.72186E-02 1.90102E-02 8.54791E-03-5.63167E-03 2.27883E-04-6.73886E-05 2.44909E-04



 n o d a l   p r i n t   o u t   f o r   t i m e  s t e p   47405                              ( at time 2.3699628E+01 )

 nodal point  x-disp     y-disp      z-disp      x-vel       y-vel       z-vel      x-accl      y-accl      z-accl      x-coor      y-coor      z-coor
    22626  4.69706E+00 8.89914E-01-1.76936E+01 2.53490E-01-1.49233E-02 4.97463E-01 4.09611E-03 3.95871E-03-1.77465E-02 5.26612E+01-2.11399E+01-1.03551E+01



 n o d a l   p r i n t   o u t   f o r   t i m e  s t e p   47405                              ( at time 2.3699628E+01 )

 nodal point  x-rot      y-rot       z-rot       x-rot vel   y-rot vel   z-rot vel   x-rot acc   y-rot acc   z-rot acc
    22626  2.91000E-01 1.60610E-01-7.77810E-02 1.90366E-02 8.54921E-03-5.61200E-03 2.64501E-04 1.30118E-05 1.96723E-04



 n o d a l   p r i n t   o u t   f o r   t i m e  s t e p   47605                              ( at time 2.3799618E+01 )

 nodal point  x-disp     y-disp      z-disp      x-vel       y-vel       z-vel      x-accl      y-accl      z-accl      x-coor      y-coor      z-coor
    22626  4.72244E+00 8.88462E-01-1.76440E+01 2.54106E-01-1.41288E-02 4.95564E-01 6.16440E-03 7.94547E-03-1.89865E-02 5.26866E+01-2.11413E+01-1.03055E+01



 n o d a l   p r i n t   o u t   f o r   t i m e  s t e p   47605                              ( at time 2.3799618E+01 )

 nodal point  x-rot      y-rot       z-rot       x-rot vel   y-rot vel   z-rot vel   x-rot acc   y-rot acc   z-rot acc
    22626  2.92905E-01 1.61465E-01-7.83413E-02 1.90544E-02 8.54767E-03-5.59432E-03 1.77697E-04-1.54058E-05 1.76761E-04



 n o d a l   p r i n t   o u t   f o r   t i m e  s t e p   47805                              ( at time 2.3899608E+01 )

 nodal point  x-disp     y-disp      z-disp      x-vel       y-vel       z-vel      x-accl      y-accl      z-accl      x-coor      y-coor      z-coor
    22626  4.74783E+00 8.87075E-01-1.75945E+01 2.53988E-01-1.35087E-02 4.93461E-01-1.17730E-03 6.20176E-03-2.10296E-02 5.27120E+01-2.11427E+01-1.02560E+01



 n o d a l   p r i n t   o u t   f o r   t i m e  s t e p   47805                              ( at time 2.3899608E+01 )

 nodal point  x-rot      y-rot       z-rot       x-rot vel   y-rot vel   z-rot vel   x-rot acc   y-rot acc   z-rot acc
    22626  2.94811E-01 1.62320E-01-7.88999E-02 1.90737E-02 8.54810E-03-5.57921E-03 1.92541E-04 4.35899E-06 1.51172E-04



 n o d a l   p r i n t   o u t   f o r   t i m e  s t e p   48005                              ( at time 2.3999598E+01 )

 nodal point  x-disp     y-disp      z-disp      x-vel       y-vel       z-vel      x-accl      y-accl      z-accl      x-coor      y-coor      z-coor
    22626  4.77324E+00 8.85796E-01-1.75453E+01 2.54192E-01-1.22637E-02 4.91407E-01 2.04288E-03 1.24516E-02-2.05513E-02 5.27374E+01-2.11440E+01-1.02068E+01



 n o d a l   p r i n t   o u t   f o r   t i m e  s t e p   48005                              ( at time 2.3999598E+01 )

 nodal point  x-rot      y-rot       z-rot       x-rot vel   y-rot vel   z-rot vel   x-rot acc   y-rot acc   z-rot acc
    22626  2.96719E-01 1.63174E-01-7.94570E-02 1.90926E-02 8.54684E-03-5.56166E-03 1.89843E-04-1.26767E-05 1.75522E-04



 n o d a l   p r i n t   o u t   f o r   t i m e  s t e p   48205                              ( at time 2.4099588E+01 )

 nodal point  x-disp     y-disp      z-disp      x-vel       y-vel       z-vel      x-accl      y-accl      z-accl      x-coor      y-coor      z-coor
    22626  4.79865E+00 8.84595E-01-1.74962E+01 2.54175E-01-1.15887E-02 4.89534E-01-1.70485E-04 6.75066E-03-1.87238E-02 5.27628E+01-2.11452E+01-1.01577E+01



 n o d a l   p r i n t   o u t   f o r   t i m e  s t e p   48205                              ( at time 2.4099588E+01 )

 nodal point  x-rot      y-rot       z-rot       x-rot vel   y-rot vel   z-rot vel   x-rot acc   y-rot acc   z-rot acc
    22626  2.98629E-01 1.64029E-01-8.00123E-02 1.91122E-02 8.54937E-03-5.54988E-03 1.95987E-04 2.53715E-05 1.17767E-04



 n o d a l   p r i n t   o u t   f o r   t i m e  s t e p   48405                              ( at time 2.4199578E+01 )

 nodal point  x-disp     y-disp      z-disp      x-vel       y-vel       z-vel      x-accl      y-accl      z-accl      x-coor      y-coor      z-coor
    22626  4.82407E+00 8.83481E-01-1.74474E+01 2.54070E-01-1.06172E-02 4.87451E-01-1.05393E-03 9.71600E-03-2.08374E-02 5.27882E+01-2.11463E+01-1.01089E+01



 n o d a l   p r i n t   o u t   f o r   t i m e  s t e p   48405                              ( at time 2.4199578E+01 )

 nodal point  x-rot      y-rot       z-rot       x-rot vel   y-rot vel   z-rot vel   x-rot acc   y-rot acc   z-rot acc
    22626  3.00541E-01 1.64884E-01-8.05667E-02 1.91330E-02 8.54462E-03-5.53853E-03 2.07727E-04-4.75679E-05 1.13517E-04



 n o d a l   p r i n t   o u t   f o r   t i m e  s t e p   48605                              ( at time 2.4299568E+01 )

 nodal point  x-disp     y-disp      z-disp      x-vel       y-vel       z-vel      x-accl      y-accl      z-accl      x-coor      y-coor      z-coor
    22626  4.84946E+00 8.82487E-01-1.73988E+01 2.53832E-01-9.39805E-03 4.85272E-01-2.38381E-03 1.21925E-02-2.17860E-02 5.28136E+01-2.11473E+01-1.00603E+01



 n o d a l   p r i n t   o u t   f o r   t i m e  s t e p   48605                              ( at time 2.4299568E+01 )

 nodal point  x-rot      y-rot       z-rot       x-rot vel   y-rot vel   z-rot vel   x-rot acc   y-rot acc   z-rot acc
    22626  3.02455E-01 1.65738E-01-8.11198E-02 1.91526E-02 8.54183E-03-5.52511E-03 1.96005E-04-2.78863E-05 1.34272E-04



 n o d a l   p r i n t   o u t   f o r   t i m e  s t e p   48805                              ( at time 2.4399558E+01 )

 nodal point  x-disp     y-disp      z-disp      x-vel       y-vel       z-vel      x-accl      y-accl      z-accl      x-coor      y-coor      z-coor
    22626  4.87483E+00 8.81596E-01-1.73503E+01 2.53636E-01-8.38585E-03 4.83225E-01-1.95223E-03 1.01230E-02-2.04779E-02 5.28390E+01-2.11482E+01-1.00118E+01



 n o d a l   p r i n t   o u t   f o r   t i m e  s t e p   48805                              ( at time 2.4399558E+01 )

 nodal point  x-rot      y-rot       z-rot       x-rot vel   y-rot vel   z-rot vel   x-rot acc   y-rot acc   z-rot acc
    22626  3.04371E-01 1.66592E-01-8.16716E-02 1.91691E-02 8.53884E-03-5.51718E-03 1.65176E-04-2.98516E-05 7.93047E-05



 n o d a l   p r i n t   o u t   f o r   t i m e  s t e p   49006                              ( at time 2.4500048E+01 )

 nodal point  x-disp     y-disp      z-disp      x-vel       y-vel       z-vel      x-accl      y-accl      z-accl      x-coor      y-coor      z-coor
    22626  4.90030E+00 8.80795E-01-1.73019E+01 2.53144E-01-7.49352E-03 4.81336E-01-4.90118E-03 8.87987E-03-1.88004E-02 5.28645E+01-2.11490E+01-9.96338E+00



 n o d a l   p r i n t   o u t   f o r   t i m e  s t e p   49006                              ( at time 2.4500048E+01 )

 nodal point  x-rot      y-rot       z-rot       x-rot vel   y-rot vel   z-rot vel   x-rot acc   y-rot acc   z-rot acc
    22626  3.06299E-01 1.67450E-01-8.22254E-02 1.91889E-02 8.53426E-03-5.50593E-03 1.96573E-04-4.55890E-05 1.11961E-04



 n o d a l   p r i n t   o u t   f o r   t i m e  s t e p   49206                              ( at time 2.4600038E+01 )

 nodal point  x-disp     y-disp      z-disp      x-vel       y-vel       z-vel      x-accl      y-accl      z-accl      x-coor      y-coor      z-coor
    22626  4.92560E+00 8.80080E-01-1.72539E+01 2.52966E-01-6.71532E-03 4.79284E-01-1.78294E-03 7.78269E-03-2.05214E-02 5.28898E+01-2.11497E+01-9.91536E+00



 n o d a l   p r i n t   o u t   f o r   t i m e  s t e p   49206                              ( at time 2.4600038E+01 )

 nodal point  x-rot      y-rot       z-rot       x-rot vel   y-rot vel   z-rot vel   x-rot acc   y-rot acc   z-rot acc
    22626  3.08218E-01 1.68303E-01-8.27757E-02 1.92015E-02 8.53060E-03-5.50027E-03 1.25759E-04-3.66323E-05 5.65551E-05



 n o d a l   p r i n t   o u t   f o r   t i m e  s t e p   49406                              ( at time 2.4700028E+01 )

 nodal point  x-disp     y-disp      z-disp      x-vel       y-vel       z-vel      x-accl      y-accl      z-accl      x-coor      y-coor      z-coor
    22626  4.95087E+00 8.79418E-01-1.72061E+01 2.52655E-01-6.69029E-03 4.76608E-01-3.10813E-03 2.50367E-04-2.67643E-02 5.29151E+01-2.11504E+01-9.86757E+00



 n o d a l   p r i n t   o u t   f o r   t i m e  s t e p   49406                              ( at time 2.4700028E+01 )

 nodal point  x-rot      y-rot       z-rot       x-rot vel   y-rot vel   z-rot vel   x-rot acc   y-rot acc   z-rot acc
    22626  3.10138E-01 1.69156E-01-8.33255E-02 1.91999E-02 8.52621E-03-5.49590E-03-1.56480E-05-4.39074E-05 4.37258E-05



 n o d a l   p r i n t   o u t   f o r   t i m e  s t e p   49606                              ( at time 2.4800018E+01 )

 nodal point  x-disp     y-disp      z-disp      x-vel       y-vel       z-vel      x-accl      y-accl      z-accl      x-coor      y-coor      z-coor
    22626  4.97611E+00 8.78744E-01-1.71585E+01 2.52299E-01-6.80903E-03 4.74258E-01-3.56111E-03-1.18751E-03-2.34956E-02 5.29403E+01-2.11510E+01-9.82002E+00



 n o d a l   p r i n t   o u t   f o r   t i m e  s t e p   49606                              ( at time 2.4800018E+01 )

 nodal point  x-rot      y-rot       z-rot       x-rot vel   y-rot vel   z-rot vel   x-rot acc   y-rot acc   z-rot acc
    22626  3.12058E-01 1.70008E-01-8.38745E-02 1.91965E-02 8.51991E-03-5.48790E-03-3.35866E-05-6.30377E-05 7.99846E-05



 n o d a l   p r i n t   o u t   f o r   t i m e  s t e p   49806                              ( at time 2.4900008E+01 )

 nodal point  x-disp     y-disp      z-disp      x-vel       y-vel       z-vel      x-accl      y-accl      z-accl      x-coor      y-coor      z-coor
    22626  5.00133E+00 8.78024E-01-1.71112E+01 2.52041E-01-7.83281E-03 4.71494E-01-2.57938E-03-1.02389E-02-2.76474E-02 5.29655E+01-2.11518E+01-9.77274E+00



 n o d a l   p r i n t   o u t   f o r   t i m e  s t e p   49806                              ( at time 2.4900008E+01 )

 nodal point  x-rot      y-rot       z-rot       x-rot vel   y-rot vel   z-rot vel   x-rot acc   y-rot acc   z-rot acc
    22626  3.13977E-01 1.70860E-01-8.44229E-02 1.91789E-02 8.50874E-03-5.48180E-03-1.75928E-04-1.11622E-04 6.10270E-05



 n o d a l   p r i n t   o u t   f o r   t i m e  s t e p   50006                              ( at time 2.4999998E+01 )

 nodal point  x-disp     y-disp      z-disp      x-vel       y-vel       z-vel      x-accl      y-accl      z-accl      x-coor      y-coor      z-coor
    22626  5.02654E+00 8.77171E-01-1.70643E+01 2.52145E-01-9.39268E-03 4.68098E-01 1.04586E-03-1.56001E-02-3.39646E-02 5.29907E+01-2.11526E+01-9.72576E+00



 n o d a l   p r i n t   o u t   f o r   t i m e  s t e p   50006                              ( at time 2.4999998E+01 )

 nodal point  x-rot      y-rot       z-rot       x-rot vel   y-rot vel   z-rot vel   x-rot acc   y-rot acc   z-rot acc
    22626  3.15893E-01 1.71710E-01-8.49709E-02 1.91520E-02 8.49685E-03-5.47752E-03-2.69251E-04-1.18969E-04 4.27796E-05
