 LSTC 50th% Full_FE H-III Dummy (Beta Version, February 17, 2019)        
                    ls-dyna smp s R16 R16.0_619_d222963 date 03/18/2025

{BEGIN LEGEND}
 Entity #        Title
    22626                                                                                     
{END LEGEND}




 n o d a l   p r i n t   o u t   f o r   t i m e  s t e p       1                              ( at time 0.0000000E+00 )

 nodal point  x-disp     y-disp      z-disp      x-vel       y-vel       z-vel      x-accl      y-accl      z-accl      x-coor      y-coor      z-coor
    22626  0.00000E+00 0.00000E+00 0.00000E+00 0.00000E+00 0.00000E+00-3.12000E+00 0.00000E+00 0.00000E+00 0.00000E+00 4.79642E+01-2.20298E+01 7.33850E+00



 n o d a l   p r i n t   o u t   f o r   t i m e  s t e p       1                              ( at time 0.0000000E+00 )

 nodal point  x-rot      y-rot       z-rot       x-rot vel   y-rot vel   z-rot vel   x-rot acc   y-rot acc   z-rot acc
    22626  0.00000E+00 0.00000E+00 0.00000E+00 0.00000E+00 0.00000E+00 0.00000E+00 0.00000E+00 0.00000E+00 0.00000E+00



 n o d a l   p r i n t   o u t   f o r   t i m e  s t e p     201                              ( at time 9.9989993E-02 )

 nodal point  x-disp     y-disp      z-disp      x-vel       y-vel       z-vel      x-accl      y-accl      z-accl      x-coor      y-coor      z-coor
    22626  8.34407E-07-4.04405E-06-3.12016E-01 4.76753E-05-4.96394E-04-3.12074E+00 4.76801E-04-4.96443E-03-7.42748E-03 4.79642E+01-2.20298E+01 7.02648E+00



 n o d a l   p r i n t   o u t   f o r   t i m e  s t e p     201                              ( at time 9.9989993E-02 )

 nodal point  x-rot      y-rot       z-rot       x-rot vel   y-rot vel   z-rot vel   x-rot acc   y-rot acc   z-rot acc
    22626  9.60258E-09 3.04077E-08 5.27192E-08 1.30676E-06 2.72272E-06 5.21335E-06 1.30689E-05 2.72299E-05 5.21387E-05



 n o d a l   p r i n t   o u t   f o r   t i m e  s t e p     401                              ( at time 1.9997999E-01 )

 nodal point  x-disp     y-disp      z-disp      x-vel       y-vel       z-vel      x-accl      y-accl      z-accl      x-coor      y-coor      z-coor
    22626 -5.12734E-05-5.21501E-04-6.23853E-01-1.09583E-03-1.11135E-02-3.11558E+00-1.14362E-02-1.06182E-01 5.16156E-02 4.79641E+01-2.20303E+01 6.71465E+00



 n o d a l   p r i n t   o u t   f o r   t i m e  s t e p     401                              ( at time 1.9997999E-01 )

 nodal point  x-rot      y-rot       z-rot       x-rot vel   y-rot vel   z-rot vel   x-rot acc   y-rot acc   z-rot acc
    22626  4.60036E-07 1.33022E-06 2.50282E-06 2.64786E-06 1.90811E-05 3.50119E-05 1.34124E-05 1.63600E-04 2.98016E-04



 n o d a l   p r i n t   o u t   f o r   t i m e  s t e p     601                              ( at time 2.9996998E-01 )

 nodal point  x-disp     y-disp      z-disp      x-vel       y-vel       z-vel      x-accl      y-accl      z-accl      x-coor      y-coor      z-coor
    22626 -2.45189E-05-1.97555E-03-9.35239E-01 1.66075E-03-1.60323E-02-3.11416E+00 2.75685E-02-4.91932E-02 1.42541E-02 4.79642E+01-2.20318E+01 6.40326E+00



 n o d a l   p r i n t   o u t   f o r   t i m e  s t e p     601                              ( at time 2.9996998E-01 )

 nodal point  x-rot      y-rot       z-rot       x-rot vel   y-rot vel   z-rot vel   x-rot acc   y-rot acc   z-rot acc
    22626  6.74983E-07 2.41627E-06 4.83555E-06 8.26675E-06 5.43995E-06 1.48361E-05 5.61946E-05-1.36425E-04-2.01779E-04



 n o d a l   p r i n t   o u t   f o r   t i m e  s t e p     801                              ( at time 3.9995997E-01 )

 nodal point  x-disp     y-disp      z-disp      x-vel       y-vel       z-vel      x-accl      y-accl      z-accl      x-coor      y-coor      z-coor
    22626  5.94909E-05-3.57168E-03-1.24663E+00 1.88012E-04-1.73738E-02-3.11354E+00-1.47288E-02-1.34159E-02 6.13274E-03 4.79642E+01-2.20334E+01 6.09187E+00



 n o d a l   p r i n t   o u t   f o r   t i m e  s t e p     801                              ( at time 3.9995997E-01 )

 nodal point  x-rot      y-rot       z-rot       x-rot vel   y-rot vel   z-rot vel   x-rot acc   y-rot acc   z-rot acc
    22626  1.58369E-06 3.68886E-06 6.69762E-06 6.29625E-06 2.42809E-05 3.82484E-05-1.97070E-05 1.88428E-04 2.34146E-04



 n o d a l   p r i n t   o u t   f o r   t i m e  s t e p    1001                              ( at time 4.9994997E-01 )

 nodal point  x-disp     y-disp      z-disp      x-vel       y-vel       z-vel      x-accl      y-accl      z-accl      x-coor      y-coor      z-coor
    22626  7.17110E-05-5.62688E-03-1.55783E+00 8.82028E-04-2.38141E-02-3.11087E+00 6.94085E-03-6.44099E-02 2.66936E-02 4.79643E+01-2.20354E+01 5.78067E+00



 n o d a l   p r i n t   o u t   f o r   t i m e  s t e p    1001                              ( at time 4.9994997E-01 )

 nodal point  x-rot      y-rot       z-rot       x-rot vel   y-rot vel   z-rot vel   x-rot acc   y-rot acc   z-rot acc
    22626  1.50130E-06 6.66137E-06 1.18617E-05-4.87196E-06 4.38368E-05 7.21191E-05-1.11693E-04 1.95579E-04 3.38741E-04



 n o d a l   p r i n t   o u t   f o r   t i m e  s t e p    1201                              ( at time 5.9993996E-01 )

 nodal point  x-disp     y-disp      z-disp      x-vel       y-vel       z-vel      x-accl      y-accl      z-accl      x-coor      y-coor      z-coor
    22626  5.24689E-05-8.12812E-03-1.86888E+00-5.45520E-04-2.60661E-02-3.11086E+00-1.42769E-02-2.25218E-02 1.02530E-04 4.79642E+01-2.20379E+01 5.46962E+00



 n o d a l   p r i n t   o u t   f o r   t i m e  s t e p    1201                              ( at time 5.9993996E-01 )

 nodal point  x-rot      y-rot       z-rot       x-rot vel   y-rot vel   z-rot vel   x-rot acc   y-rot acc   z-rot acc
    22626  1.26921E-06 9.91224E-06 1.78054E-05-2.06819E-06 2.65821E-05 5.34476E-05 2.80405E-05-1.72564E-04-1.86734E-04



 n o d a l   p r i n t   o u t   f o r   t i m e  s t e p    1401                              ( at time 6.9992995E-01 )

 nodal point  x-disp     y-disp      z-disp      x-vel       y-vel       z-vel      x-accl      y-accl      z-accl      x-coor      y-coor      z-coor
    22626  1.94059E-05-1.10068E-02-2.17977E+00 6.93103E-04-3.21950E-02-3.10774E+00 1.23875E-02-6.12947E-02 3.12503E-02 4.79642E+01-2.20408E+01 5.15873E+00



 n o d a l   p r i n t   o u t   f o r   t i m e  s t e p    1401                              ( at time 6.9992995E-01 )

 nodal point  x-rot      y-rot       z-rot       x-rot vel   y-rot vel   z-rot vel   x-rot acc   y-rot acc   z-rot acc
    22626  1.12949E-06 1.31193E-05 2.28099E-05-2.04095E-06 3.76909E-05 5.90821E-05 2.72391E-07 1.11099E-04 5.63512E-05



 n o d a l   p r i n t   o u t   f o r   t i m e  s t e p    1601                              ( at time 7.9991994E-01 )

 nodal point  x-disp     y-disp      z-disp      x-vel       y-vel       z-vel      x-accl      y-accl      z-accl      x-coor      y-coor      z-coor
    22626  1.30659E-04-1.45514E-02-2.49040E+00 1.35087E-03-3.67492E-02-3.10605E+00 6.57832E-03-4.55473E-02 1.68555E-02 4.79643E+01-2.20443E+01 4.84811E+00



 n o d a l   p r i n t   o u t   f o r   t i m e  s t e p    1601                              ( at time 7.9991994E-01 )

 nodal point  x-rot      y-rot       z-rot       x-rot vel   y-rot vel   z-rot vel   x-rot acc   y-rot acc   z-rot acc
    22626  1.06585E-06 1.72660E-05 2.97879E-05 3.31413E-06 4.89368E-05 7.66818E-05 5.35562E-05 1.12470E-04 1.76014E-04



 n o d a l   p r i n t   o u t   f o r   t i m e  s t e p    1801                              ( at time 8.9990994E-01 )

 nodal point  x-disp     y-disp      z-disp      x-vel       y-vel       z-vel      x-accl      y-accl      z-accl      x-coor      y-coor      z-coor
    22626  2.03446E-04-1.81872E-02-2.80106E+00-5.17838E-04-3.63542E-02-3.10747E+00-1.86890E-02 3.95118E-03-1.41492E-02 4.79644E+01-2.20480E+01 4.53745E+00



 n o d a l   p r i n t   o u t   f o r   t i m e  s t e p    1801                              ( at time 8.9990994E-01 )

 nodal point  x-rot      y-rot       z-rot       x-rot vel   y-rot vel   z-rot vel   x-rot acc   y-rot acc   z-rot acc
    22626  1.12653E-06 2.14055E-05 3.68254E-05-1.36481E-06 3.81694E-05 6.86961E-05-4.67942E-05-1.07684E-04-7.98651E-05



 n o d a l   p r i n t   o u t   f o r   t i m e  s t e p    2001                              ( at time 9.9989993E-01 )

 nodal point  x-disp     y-disp      z-disp      x-vel       y-vel       z-vel      x-accl      y-accl      z-accl      x-coor      y-coor      z-coor
    22626  1.04194E-04-2.18898E-02-3.11178E+00-8.38749E-04-3.82603E-02-3.10767E+00-3.20943E-03-1.90633E-02-2.04345E-03 4.79643E+01-2.20517E+01 4.22672E+00



 n o d a l   p r i n t   o u t   f o r   t i m e  s t e p    2001                              ( at time 9.9989993E-01 )

 nodal point  x-rot      y-rot       z-rot       x-rot vel   y-rot vel   z-rot vel   x-rot acc   y-rot acc   z-rot acc
    22626  1.01197E-06 2.56522E-05 4.40865E-05-3.07781E-07 4.66136E-05 8.66598E-05 1.05714E-05 8.44503E-05 1.79656E-04



 n o d a l   p r i n t   o u t   f o r   t i m e  s t e p    2201                              ( at time 1.0998899E+00 )

 nodal point  x-disp     y-disp      z-disp      x-vel       y-vel       z-vel      x-accl      y-accl      z-accl      x-coor      y-coor      z-coor
    22626  8.33130E-05-2.58251E-02-3.42249E+00-2.55470E-04-4.01586E-02-3.10718E+00 5.83337E-03-1.89847E-02 4.88569E-03 4.79643E+01-2.20556E+01 3.91601E+00



 n o d a l   p r i n t   o u t   f o r   t i m e  s t e p    2201                              ( at time 1.0998899E+00 )

 nodal point  x-rot      y-rot       z-rot       x-rot vel   y-rot vel   z-rot vel   x-rot acc   y-rot acc   z-rot acc
    22626  1.14777E-06 3.04626E-05 5.27729E-05 5.94744E-06 4.64047E-05 7.51433E-05 6.25585E-05-2.08994E-06-1.15177E-04



 n o d a l   p r i n t   o u t   f o r   t i m e  s t e p    2401                              ( at time 1.1998799E+00 )

 nodal point  x-disp     y-disp      z-disp      x-vel       y-vel       z-vel      x-accl      y-accl      z-accl      x-coor      y-coor      z-coor
    22626  1.21965E-04-2.98296E-02-3.73324E+00 7.06099E-04-3.96517E-02-3.10859E+00 9.61665E-03 5.06940E-03-1.40109E-02 4.79643E+01-2.20596E+01 3.60526E+00



 n o d a l   p r i n t   o u t   f o r   t i m e  s t e p    2401                              ( at time 1.1998799E+00 )

 nodal point  x-rot      y-rot       z-rot       x-rot vel   y-rot vel   z-rot vel   x-rot acc   y-rot acc   z-rot acc
    22626  1.60768E-06 3.46333E-05 5.96666E-05 5.70423E-06 4.02789E-05 6.63906E-05-2.43234E-06-6.12639E-05-8.75363E-05



 n o d a l   p r i n t   o u t   f o r   t i m e  s t e p    2601                              ( at time 1.2998699E+00 )

 nodal point  x-disp     y-disp      z-disp      x-vel       y-vel       z-vel      x-accl      y-accl      z-accl      x-coor      y-coor      z-coor
    22626  1.31623E-04-3.36544E-02-4.04418E+00-4.46131E-04-3.64599E-02-3.11143E+00-1.15235E-02 3.19214E-02-2.84128E-02 4.79643E+01-2.20634E+01 3.29432E+00



 n o d a l   p r i n t   o u t   f o r   t i m e  s t e p    2601                              ( at time 1.2998699E+00 )

 nodal point  x-rot      y-rot       z-rot       x-rot vel   y-rot vel   z-rot vel   x-rot acc   y-rot acc   z-rot acc
    22626  1.96938E-06 3.87569E-05 6.65702E-05-1.92433E-06 4.58580E-05 8.08676E-05-7.62932E-05 5.57970E-05 1.44785E-04



 n o d a l   p r i n t   o u t   f o r   t i m e  s t e p    2801                              ( at time 1.3998599E+00 )

 nodal point  x-disp     y-disp      z-disp      x-vel       y-vel       z-vel      x-accl      y-accl      z-accl      x-coor      y-coor      z-coor
    22626  1.35848E-05-3.70346E-02-4.35550E+00-1.34062E-03-3.12892E-02-3.11521E+00-8.94578E-03 5.17113E-02-3.78790E-02 4.79642E+01-2.20668E+01 2.98301E+00



 n o d a l   p r i n t   o u t   f o r   t i m e  s t e p    2801                              ( at time 1.3998599E+00 )

 nodal point  x-rot      y-rot       z-rot       x-rot vel   y-rot vel   z-rot vel   x-rot acc   y-rot acc   z-rot acc
    22626  1.61054E-06 4.31930E-05 7.44830E-05-4.12547E-06 4.51094E-05 7.42253E-05-2.20136E-05-7.48694E-06-6.64295E-05



 n o d a l   p r i n t   o u t   f o r   t i m e  s t e p    3001                              ( at time 1.4998499E+00 )

 nodal point  x-disp     y-disp      z-disp      x-vel       y-vel       z-vel      x-accl      y-accl      z-accl      x-coor      y-coor      z-coor
    22626 -9.81275E-05-4.00637E-02-4.66710E+00-4.91048E-04-2.96192E-02-3.11722E+00 8.49657E-03 1.67025E-02-2.00864E-02 4.79641E+01-2.20699E+01 2.67141E+00



 n o d a l   p r i n t   o u t   f o r   t i m e  s t e p    3001                              ( at time 1.4998499E+00 )

 nodal point  x-rot      y-rot       z-rot       x-rot vel   y-rot vel   z-rot vel   x-rot acc   y-rot acc   z-rot acc
    22626  1.27830E-06 4.71586E-05 8.11116E-05-9.25662E-07 3.24165E-05 5.79122E-05 3.20013E-05-1.26942E-04-1.63147E-04



 n o d a l   p r i n t   o u t   f o r   t i m e  s t e p    3201                              ( at time 1.5998399E+00 )

 nodal point  x-disp     y-disp      z-disp      x-vel       y-vel       z-vel      x-accl      y-accl      z-accl      x-coor      y-coor      z-coor
    22626 -1.48509E-04-4.29430E-02-4.97887E+00-7.72597E-04-2.74075E-02-3.11950E+00-2.81578E-03 2.21187E-02-2.27331E-02 4.79640E+01-2.20727E+01 2.35963E+00



 n o d a l   p r i n t   o u t   f o r   t i m e  s t e p    3201                              ( at time 1.5998399E+00 )

 nodal point  x-rot      y-rot       z-rot       x-rot vel   y-rot vel   z-rot vel   x-rot acc   y-rot acc   z-rot acc
    22626  1.03563E-06 5.02281E-05 8.60366E-05-8.72108E-07 3.24919E-05 4.82536E-05 5.35594E-07 7.53719E-07-9.65958E-05



 n o d a l   p r i n t   o u t   f o r   t i m e  s t e p    3401                              ( at time 1.6998299E+00 )

 nodal point  x-disp     y-disp      z-disp      x-vel       y-vel       z-vel      x-accl      y-accl      z-accl      x-coor      y-coor      z-coor
    22626 -2.38516E-04-4.54479E-02-5.29098E+00-1.13621E-03-2.23556E-02-3.12330E+00-3.63654E-03 5.05238E-02-3.80816E-02 4.79639E+01-2.20752E+01 2.04753E+00



 n o d a l   p r i n t   o u t   f o r   t i m e  s t e p    3401                              ( at time 1.6998299E+00 )

 nodal point  x-rot      y-rot       z-rot       x-rot vel   y-rot vel   z-rot vel   x-rot acc   y-rot acc   z-rot acc
    22626  8.50866E-07 5.33512E-05 9.11224E-05-3.91085E-06 3.07550E-05 4.85851E-05-3.03904E-05-1.73703E-05 3.31562E-06



 n o d a l   p r i n t   o u t   f o r   t i m e  s t e p    3601                              ( at time 1.7998199E+00 )

 nodal point  x-disp     y-disp      z-disp      x-vel       y-vel       z-vel      x-accl      y-accl      z-accl      x-coor      y-coor      z-coor
    22626 -3.41391E-04-4.74273E-02-5.60349E+00-1.35619E-03-1.75972E-02-3.12737E+00-2.20000E-03 4.75897E-02-4.06879E-02 4.79638E+01-2.20772E+01 1.73502E+00



 n o d a l   p r i n t   o u t   f o r   t i m e  s t e p    3601                              ( at time 1.7998199E+00 )

 nodal point  x-rot      y-rot       z-rot       x-rot vel   y-rot vel   z-rot vel   x-rot acc   y-rot acc   z-rot acc
    22626  6.89817E-07 5.61920E-05 9.59491E-05-4.82310E-07 2.16699E-05 4.27544E-05 3.42888E-05-9.08601E-05-5.83132E-05



 n o d a l   p r i n t   o u t   f o r   t i m e  s t e p    3801                              ( at time 1.8998099E+00 )

 nodal point  x-disp     y-disp      z-disp      x-vel       y-vel       z-vel      x-accl      y-accl      z-accl      x-coor      y-coor      z-coor
    22626 -5.31580E-04-4.90511E-02-5.91631E+00-2.16702E-03-1.50394E-02-3.12990E+00-8.10910E-03 2.55804E-02-2.52868E-02 4.79636E+01-2.20788E+01 1.42219E+00



 n o d a l   p r i n t   o u t   f o r   t i m e  s t e p    3801                              ( at time 1.8998099E+00 )

 nodal point  x-rot      y-rot       z-rot       x-rot vel   y-rot vel   z-rot vel   x-rot acc   y-rot acc   z-rot acc
    22626  4.21975E-07 5.81274E-05 9.94331E-05 1.00567E-06 1.60194E-05 2.82036E-05 1.48813E-05-5.65111E-05-1.45523E-04



 n o d a l   p r i n t   o u t   f o r   t i m e  s t e p    4001                              ( at time 1.9997999E+00 )

 nodal point  x-disp     y-disp      z-disp      x-vel       y-vel       z-vel      x-accl      y-accl      z-accl      x-coor      y-coor      z-coor
    22626 -7.05351E-04-5.04318E-02-6.22939E+00-1.66135E-03-1.27116E-02-3.13211E+00 5.05721E-03 2.32802E-02-2.21036E-02 4.79635E+01-2.20802E+01 1.10911E+00



 n o d a l   p r i n t   o u t   f o r   t i m e  s t e p    4001                              ( at time 1.9997999E+00 )

 nodal point  x-rot      y-rot       z-rot       x-rot vel   y-rot vel   z-rot vel   x-rot acc   y-rot acc   z-rot acc
    22626  5.29689E-07 5.95168E-05 1.01830E-04 2.13617E-06 1.35330E-05 2.05987E-05 1.13061E-05-2.48657E-05-7.60557E-05



 n o d a l   p r i n t   o u t   f o r   t i m e  s t e p    4201                              ( at time 2.0997899E+00 )

 nodal point  x-disp     y-disp      z-disp      x-vel       y-vel       z-vel      x-accl      y-accl      z-accl      x-coor      y-coor      z-coor
    22626 -8.77050E-04-5.15136E-02-6.54273E+00-1.90242E-03-9.05284E-03-3.13517E+00-2.41095E-03 3.65911E-02-3.05874E-02 4.79633E+01-2.20813E+01 7.95771E-01



 n o d a l   p r i n t   o u t   f o r   t i m e  s t e p    4201                              ( at time 2.0997899E+00 )

 nodal point  x-rot      y-rot       z-rot       x-rot vel   y-rot vel   z-rot vel   x-rot acc   y-rot acc   z-rot acc
    22626  6.62523E-07 6.01445E-05 1.02955E-04-2.85055E-06 3.21782E-06 1.96513E-06-4.98722E-05-1.03163E-04-1.86355E-04



 n o d a l   p r i n t   o u t   f o r   t i m e  s t e p    4401                              ( at time 2.1997798E+00 )

 nodal point  x-disp     y-disp      z-disp      x-vel       y-vel       z-vel      x-accl      y-accl      z-accl      x-coor      y-coor      z-coor
    22626 -1.12055E-03-5.21900E-02-6.85639E+00-2.74530E-03-4.29064E-03-3.13894E+00-8.42965E-03 4.76269E-02-3.77312E-02 4.79631E+01-2.20820E+01 4.82109E-01



 n o d a l   p r i n t   o u t   f o r   t i m e  s t e p    4401                              ( at time 2.1997798E+00 )

 nodal point  x-rot      y-rot       z-rot       x-rot vel   y-rot vel   z-rot vel   x-rot acc   y-rot acc   z-rot acc
    22626  3.09855E-07 6.01828E-05 1.02984E-04-3.03028E-06-1.53916E-06-1.87492E-06-1.79748E-06-4.75746E-05-3.84044E-05



 n o d a l   p r i n t   o u t   f o r   t i m e  s t e p    4601                              ( at time 2.2997698E+00 )

 nodal point  x-disp     y-disp      z-disp      x-vel       y-vel       z-vel      x-accl      y-accl      z-accl      x-coor      y-coor      z-coor
    22626 -1.42825E-03-5.23736E-02-7.17044E+00-3.51005E-03 4.02334E-06-3.14229E+00-7.64821E-03 4.29508E-02-3.34558E-02 4.79628E+01-2.20822E+01 1.68059E-01



 n o d a l   p r i n t   o u t   f o r   t i m e  s t e p    4601                              ( at time 2.2997698E+00 )

 nodal point  x-rot      y-rot       z-rot       x-rot vel   y-rot vel   z-rot vel   x-rot acc   y-rot acc   z-rot acc
    22626 -2.79532E-07 5.99136E-05 1.02703E-04-6.58605E-06-9.31273E-06-1.21069E-05-3.55612E-05-7.77434E-05-1.02330E-04



 n o d a l   p r i n t   o u t   f o r   t i m e  s t e p    4801                              ( at time 2.3997598E+00 )

 nodal point  x-disp     y-disp      z-disp      x-vel       y-vel       z-vel      x-accl      y-accl      z-accl      x-coor      y-coor      z-coor
    22626 -1.79676E-03-5.22764E-02-7.48474E+00-3.57220E-03 1.92613E-03-3.14440E+00-6.21590E-04 1.92230E-02-2.10903E-02 4.79624E+01-2.20821E+01-1.46241E-01



 n o d a l   p r i n t   o u t   f o r   t i m e  s t e p    4801                              ( at time 2.3997598E+00 )

 nodal point  x-rot      y-rot       z-rot       x-rot vel   y-rot vel   z-rot vel   x-rot acc   y-rot acc   z-rot acc
    22626 -9.95942E-07 5.86673E-05 1.00271E-04-7.67595E-06-1.55643E-05-3.27430E-05-1.09001E-05-6.25217E-05-2.06383E-04



 n o d a l   p r i n t   o u t   f o r   t i m e  s t e p    5001                              ( at time 2.4997498E+00 )

 nodal point  x-disp     y-disp      z-disp      x-vel       y-vel       z-vel      x-accl      y-accl      z-accl      x-coor      y-coor      z-coor
    22626 -2.18835E-03-5.19651E-02-7.79927E+00-4.24705E-03 4.99124E-03-3.14708E+00-6.74912E-03 3.06541E-02-2.68915E-02 4.79620E+01-2.20818E+01-4.60765E-01



 n o d a l   p r i n t   o u t   f o r   t i m e  s t e p    5001                              ( at time 2.4997498E+00 )

 nodal point  x-rot      y-rot       z-rot       x-rot vel   y-rot vel   z-rot vel   x-rot acc   y-rot acc   z-rot acc
    22626 -1.61676E-06 5.64721E-05 9.63647E-05-5.92629E-06-2.63285E-05-4.81926E-05 1.74983E-05-1.07653E-04-1.54511E-04



 n o d a l   p r i n t   o u t   f o r   t i m e  s t e p    5201                              ( at time 2.5997398E+00 )

 nodal point  x-disp     y-disp      z-disp      x-vel       y-vel       z-vel      x-accl      y-accl      z-accl      x-coor      y-coor      z-coor
    22626 -2.66087E-03-5.12418E-02-8.11413E+00-5.23343E-03 9.43589E-03-3.15072E+00-9.86490E-03 4.44510E-02-3.63887E-02 4.79615E+01-2.20810E+01-7.75630E-01



 n o d a l   p r i n t   o u t   f o r   t i m e  s t e p    5201                              ( at time 2.5997398E+00 )

 nodal point  x-rot      y-rot       z-rot       x-rot vel   y-rot vel   z-rot vel   x-rot acc   y-rot acc   z-rot acc
    22626 -2.19901E-06 5.34331E-05 9.10304E-05-6.86852E-06-3.49997E-05-6.14297E-05-9.42329E-06-8.67212E-05-1.32384E-04



 n o d a l   p r i n t   o u t   f o r   t i m e  s t e p    5401                              ( at time 2.6997298E+00 )

 nodal point  x-disp     y-disp      z-disp      x-vel       y-vel       z-vel      x-accl      y-accl      z-accl      x-coor      y-coor      z-coor
    22626 -3.22879E-03-5.00933E-02-8.42935E+00-6.39401E-03 1.30581E-02-3.15417E+00-1.16069E-02 3.62257E-02-3.44501E-02 4.79610E+01-2.20799E+01-1.09085E+00



 n o d a l   p r i n t   o u t   f o r   t i m e  s t e p    5401                              ( at time 2.6997298E+00 )

 nodal point  x-rot      y-rot       z-rot       x-rot vel   y-rot vel   z-rot vel   x-rot acc   y-rot acc   z-rot acc
    22626 -2.75183E-06 4.97736E-05 8.46195E-05-4.34945E-06-4.07029E-05-6.61269E-05 2.51932E-05-5.70374E-05-4.69773E-05



 n o d a l   p r i n t   o u t   f o r   t i m e  s t e p    5601                              ( at time 2.7997198E+00 )

 nodal point  x-disp     y-disp      z-disp      x-vel       y-vel       z-vel      x-accl      y-accl      z-accl      x-coor      y-coor      z-coor
    22626 -3.93786E-03-4.86633E-02-8.74485E+00-7.61364E-03 1.52116E-02-3.15636E+00-1.21975E-02 2.15368E-02-2.18938E-02 4.79602E+01-2.20785E+01-1.40635E+00



 n o d a l   p r i n t   o u t   f o r   t i m e  s t e p    5601                              ( at time 2.7997198E+00 )

 nodal point  x-rot      y-rot       z-rot       x-rot vel   y-rot vel   z-rot vel   x-rot acc   y-rot acc   z-rot acc
    22626 -3.09477E-06 4.49495E-05 7.65927E-05-1.86975E-06-5.64709E-05-9.73487E-05 2.47995E-05-1.57696E-04-3.12250E-04



 n o d a l   p r i n t   o u t   f o r   t i m e  s t e p    5801                              ( at time 2.8997098E+00 )

 nodal point  x-disp     y-disp      z-disp      x-vel       y-vel       z-vel      x-accl      y-accl      z-accl      x-coor      y-coor      z-coor
    22626 -4.70392E-03-4.70863E-02-9.06055E+00-7.79546E-03 1.62240E-02-3.15804E+00-1.81836E-03 1.01252E-02-1.68317E-02 4.79595E+01-2.20769E+01-1.72205E+00



 n o d a l   p r i n t   o u t   f o r   t i m e  s t e p    5801                              ( at time 2.8997098E+00 )

 nodal point  x-rot      y-rot       z-rot       x-rot vel   y-rot vel   z-rot vel   x-rot acc   y-rot acc   z-rot acc
    22626 -3.12646E-06 3.86028E-05 6.57827E-05-1.27380E-07-6.60989E-05-1.14968E-04 1.74255E-05-9.62889E-05-1.76209E-04



 n o d a l   p r i n t   o u t   f o r   t i m e  s t e p    6001                              ( at time 2.9996998E+00 )

 nodal point  x-disp     y-disp      z-disp      x-vel       y-vel       z-vel      x-accl      y-accl      z-accl      x-coor      y-coor      z-coor
    22626 -5.52337E-03-4.53489E-02-9.37642E+00-8.82577E-03 1.86942E-02-3.16039E+00-1.03041E-02 2.47050E-02-2.35104E-02 4.79587E+01-2.20751E+01-2.03792E+00



 n o d a l   p r i n t   o u t   f o r   t i m e  s t e p    6001                              ( at time 2.9996998E+00 )

 nodal point  x-rot      y-rot       z-rot       x-rot vel   y-rot vel   z-rot vel   x-rot acc   y-rot acc   z-rot acc
    22626 -3.11738E-06 3.17870E-05 5.42426E-05-1.31089E-06-7.03121E-05-1.20426E-04-1.18363E-05-4.21370E-05-5.45899E-05



 n o d a l   p r i n t   o u t   f o r   t i m e  s t e p    6201                              ( at time 3.0996898E+00 )

 nodal point  x-disp     y-disp      z-disp      x-vel       y-vel       z-vel      x-accl      y-accl      z-accl      x-coor      y-coor      z-coor
    22626 -6.48272E-03-4.33579E-02-9.69255E+00-1.02916E-02 2.06929E-02-3.16240E+00-1.46602E-02 1.99892E-02-2.00626E-02 4.79577E+01-2.20731E+01-2.35405E+00



 n o d a l   p r i n t   o u t   f o r   t i m e  s t e p    6201                              ( at time 3.0996898E+00 )

 nodal point  x-rot      y-rot       z-rot       x-rot vel   y-rot vel   z-rot vel   x-rot acc   y-rot acc   z-rot acc
    22626 -3.38363E-06 2.45747E-05 4.17707E-05-4.36853E-06-7.38052E-05-1.31428E-04-3.05795E-05-3.49347E-05-1.10032E-04



 n o d a l   p r i n t   o u t   f o r   t i m e  s t e p    6401                              ( at time 3.1996798E+00 )

 nodal point  x-disp     y-disp      z-disp      x-vel       y-vel       z-vel      x-accl      y-accl      z-accl      x-coor      y-coor      z-coor
    22626 -7.54397E-03-4.13172E-02-1.00088E+01-1.08614E-02 1.98106E-02-3.16300E+00-5.69863E-03-8.82415E-03-6.03974E-03 4.79566E+01-2.20711E+01-2.67030E+00



 n o d a l   p r i n t   o u t   f o r   t i m e  s t e p    6401                              ( at time 3.1996798E+00 )

 nodal point  x-rot      y-rot       z-rot       x-rot vel   y-rot vel   z-rot vel   x-rot acc   y-rot acc   z-rot acc
    22626 -3.74790E-06 1.66344E-05 2.82886E-05-3.41916E-06-8.46200E-05-1.43482E-04 9.49466E-06-1.08158E-04-1.20545E-04



 n o d a l   p r i n t   o u t   f o r   t i m e  s t e p    6601                              ( at time 3.2996698E+00 )

 nodal point  x-disp     y-disp      z-disp      x-vel       y-vel       z-vel      x-accl      y-accl      z-accl      x-coor      y-coor      z-coor
    22626 -8.64415E-03-3.94330E-02-1.03251E+01-1.10973E-02 1.78651E-02-3.16271E+00-2.35921E-03-1.94576E-02 2.90423E-03 4.79555E+01-2.20692E+01-2.98655E+00



 n o d a l   p r i n t   o u t   f o r   t i m e  s t e p    6601                              ( at time 3.2996698E+00 )

 nodal point  x-rot      y-rot       z-rot       x-rot vel   y-rot vel   z-rot vel   x-rot acc   y-rot acc   z-rot acc
    22626 -4.17849E-06 8.03942E-06 1.35692E-05-4.43491E-06-8.79070E-05-1.50572E-04-1.01585E-05-3.28733E-05-7.09143E-05



 n o d a l   p r i n t   o u t   f o r   t i m e  s t e p    6801                              ( at time 3.3996598E+00 )

 nodal point  x-disp     y-disp      z-disp      x-vel       y-vel       z-vel      x-accl      y-accl      z-accl      x-coor      y-coor      z-coor
    22626 -9.78289E-03-3.77358E-02-1.06413E+01-1.15938E-02 1.61227E-02-3.16264E+00-4.96550E-03-1.74251E-02 6.91482E-04 4.79544E+01-2.20675E+01-3.30279E+00



 n o d a l   p r i n t   o u t   f o r   t i m e  s t e p    6801                              ( at time 3.3996598E+00 )

 nodal point  x-rot      y-rot       z-rot       x-rot vel   y-rot vel   z-rot vel   x-rot acc   y-rot acc   z-rot acc
    22626 -4.43517E-06-6.74393E-07-1.59837E-06-4.89019E-06-8.67251E-05-1.52360E-04-4.55327E-06 1.18202E-05-1.78820E-05



 n o d a l   p r i n t   o u t   f o r   t i m e  s t e p    7001                              ( at time 3.4996498E+00 )

 nodal point  x-disp     y-disp      z-disp      x-vel       y-vel       z-vel      x-accl      y-accl      z-accl      x-coor      y-coor      z-coor
    22626 -1.09770E-02-3.61908E-02-1.09575E+01-1.23016E-02 1.47577E-02-3.16293E+00-7.07825E-03-1.36515E-02-2.84462E-03 4.79532E+01-2.20660E+01-3.61904E+00



 n o d a l   p r i n t   o u t   f o r   t i m e  s t e p    7001                              ( at time 3.4996498E+00 )

 nodal point  x-rot      y-rot       z-rot       x-rot vel   y-rot vel   z-rot vel   x-rot acc   y-rot acc   z-rot acc
    22626 -4.68935E-06-9.22627E-06-1.63105E-05-2.51017E-06-8.62730E-05-1.45890E-04 2.38026E-05 4.52217E-06 6.47118E-05



 n o d a l   p r i n t   o u t   f o r   t i m e  s t e p    7201                              ( at time 3.5996397E+00 )

 nodal point  x-disp     y-disp      z-disp      x-vel       y-vel       z-vel      x-accl      y-accl      z-accl      x-coor      y-coor      z-coor
    22626 -1.22247E-02-3.48194E-02-1.12738E+01-1.23199E-02 1.23438E-02-3.16256E+00-1.83387E-04-2.41418E-02 3.62671E-03 4.79520E+01-2.20646E+01-3.93529E+00



 n o d a l   p r i n t   o u t   f o r   t i m e  s t e p    7201                              ( at time 3.5996397E+00 )

 nodal point  x-rot      y-rot       z-rot       x-rot vel   y-rot vel   z-rot vel   x-rot acc   y-rot acc   z-rot acc
    22626 -5.13817E-06-1.76609E-05-3.05522E-05-3.20010E-06-8.30259E-05-1.36615E-04-6.89998E-06 3.24734E-05 9.27572E-05



 n o d a l   p r i n t   o u t   f o r   t i m e  s t e p    7401                              ( at time 3.6996297E+00 )

 nodal point  x-disp     y-disp      z-disp      x-vel       y-vel       z-vel      x-accl      y-accl      z-accl      x-coor      y-coor      z-coor
    22626 -1.34444E-02-3.37544E-02-1.15900E+01-1.20331E-02 8.98979E-03-3.16158E+00 2.86879E-03-3.35431E-02 9.80236E-03 4.79507E+01-2.20635E+01-4.25146E+00



 n o d a l   p r i n t   o u t   f o r   t i m e  s t e p    7401                              ( at time 3.6996297E+00 )

 nodal point  x-rot      y-rot       z-rot       x-rot vel   y-rot vel   z-rot vel   x-rot acc   y-rot acc   z-rot acc
    22626 -5.41548E-06-2.58517E-05-4.41481E-05-2.20908E-06-8.08407E-05-1.34959E-04 9.91122E-06 2.18542E-05 1.65578E-05



 n o d a l   p r i n t   o u t   f o r   t i m e  s t e p    7601                              ( at time 3.7996197E+00 )

 nodal point  x-disp     y-disp      z-disp      x-vel       y-vel       z-vel      x-accl      y-accl      z-accl      x-coor      y-coor      z-coor
    22626 -1.46221E-02-3.29833E-02-1.19060E+01-1.15630E-02 6.39267E-03-3.16084E+00 4.70084E-03-2.59738E-02 7.42034E-03 4.79496E+01-2.20628E+01-4.56755E+00



 n o d a l   p r i n t   o u t   f o r   t i m e  s t e p    7601                              ( at time 3.7996197E+00 )

 nodal point  x-rot      y-rot       z-rot       x-rot vel   y-rot vel   z-rot vel   x-rot acc   y-rot acc   z-rot acc
    22626 -5.61294E-06-3.35711E-05-5.71893E-05-1.17293E-06-7.09940E-05-1.19342E-04 1.03626E-05 9.84776E-05 1.56193E-04



 n o d a l   p r i n t   o u t   f o r   t i m e  s t e p    7801                              ( at time 3.8996097E+00 )

 nodal point  x-disp     y-disp      z-disp      x-vel       y-vel       z-vel      x-accl      y-accl      z-accl      x-coor      y-coor      z-coor
    22626 -1.57473E-02-3.24496E-02-1.22221E+01-1.09090E-02 4.52489E-03-3.16086E+00 6.54146E-03-1.86796E-02-2.02676E-04 4.79484E+01-2.20622E+01-4.88360E+00



 n o d a l   p r i n t   o u t   f o r   t i m e  s t e p    7801                              ( at time 3.8996097E+00 )

 nodal point  x-rot      y-rot       z-rot       x-rot vel   y-rot vel   z-rot vel   x-rot acc   y-rot acc   z-rot acc
    22626 -5.90031E-06-4.00642E-05-6.80819E-05-5.43999E-06-5.70016E-05-9.35325E-05-4.26748E-05 1.39937E-04 2.58118E-04



 n o d a l   p r i n t   o u t   f o r   t i m e  s t e p    8001                              ( at time 3.9995997E+00 )

 nodal point  x-disp     y-disp      z-disp      x-vel       y-vel       z-vel      x-accl      y-accl      z-accl      x-coor      y-coor      z-coor
    22626 -1.68095E-02-3.20394E-02-1.25382E+01-1.02968E-02 3.59008E-03-3.16119E+00 6.12278E-03-9.34913E-03-3.26905E-03 4.79474E+01-2.20618E+01-5.19967E+00



 n o d a l   p r i n t   o u t   f o r   t i m e  s t e p    8001                              ( at time 3.9995997E+00 )

 nodal point  x-rot      y-rot       z-rot       x-rot vel   y-rot vel   z-rot vel   x-rot acc   y-rot acc   z-rot acc
    22626 -6.43218E-06-4.51693E-05-7.64594E-05-7.03201E-06-4.44366E-05-7.69830E-05-1.59218E-05 1.25663E-04 1.65512E-04



 n o d a l   p r i n t   o u t   f o r   t i m e  s t e p    8201                              ( at time 4.0995897E+00 )

 nodal point  x-disp     y-disp      z-disp      x-vel       y-vel       z-vel      x-accl      y-accl      z-accl      x-coor      y-coor      z-coor
    22626 -1.77555E-02-3.18014E-02-1.28542E+01-8.47269E-03 9.83817E-04-3.16077E+00 1.82424E-02-2.60652E-02 4.14651E-03 4.79464E+01-2.20616E+01-5.51574E+00



 n o d a l   p r i n t   o u t   f o r   t i m e  s t e p    8201                              ( at time 4.0995897E+00 )

 nodal point  x-rot      y-rot       z-rot       x-rot vel   y-rot vel   z-rot vel   x-rot acc   y-rot acc   z-rot acc
    22626 -7.04543E-06-4.90899E-05-8.31159E-05-6.19136E-06-3.06767E-05-5.38483E-05 8.40728E-06 1.37613E-04 2.31369E-04



 n o d a l   p r i n t   o u t   f o r   t i m e  s t e p    8401                              ( at time 4.1995797E+00 )

 nodal point  x-disp     y-disp      z-disp      x-vel       y-vel       z-vel      x-accl      y-accl      z-accl      x-coor      y-coor      z-coor
    22626 -1.85248E-02-3.18246E-02-1.31702E+01-6.86842E-03-1.35379E-03-3.16009E+00 1.60443E-02-2.33785E-02 6.86953E-03 4.79457E+01-2.20616E+01-5.83175E+00



 n o d a l   p r i n t   o u t   f o r   t i m e  s t e p    8401                              ( at time 4.1995797E+00 )

 nodal point  x-rot      y-rot       z-rot       x-rot vel   y-rot vel   z-rot vel   x-rot acc   y-rot acc   z-rot acc
    22626 -7.77007E-06-5.12806E-05-8.67788E-05-8.63743E-06-1.21372E-05-1.98611E-05-2.44631E-05 1.85413E-04 3.39907E-04



 n o d a l   p r i n t   o u t   f o r   t i m e  s t e p    8601                              ( at time 4.2995697E+00 )

 nodal point  x-disp     y-disp      z-disp      x-vel       y-vel       z-vel      x-accl      y-accl      z-accl      x-coor      y-coor      z-coor
    22626 -1.91501E-02-3.20791E-02-1.34862E+01-5.49027E-03-3.45061E-03-3.15987E+00 1.37830E-02-2.09703E-02 2.11499E-03 4.79450E+01-2.20619E+01-6.14771E+00



 n o d a l   p r i n t   o u t   f o r   t i m e  s t e p    8601                              ( at time 4.2995697E+00 )

 nodal point  x-rot      y-rot       z-rot       x-rot vel   y-rot vel   z-rot vel   x-rot acc   y-rot acc   z-rot acc
    22626 -8.61889E-06-5.15110E-05-8.73595E-05-8.23173E-06 5.06153E-06 7.44796E-06 4.05736E-06 1.72005E-04 2.73118E-04



 n o d a l   p r i n t   o u t   f o r   t i m e  s t e p    8801                              ( at time 4.3995597E+00 )

 nodal point  x-disp     y-disp      z-disp      x-vel       y-vel       z-vel      x-accl      y-accl      z-accl      x-coor      y-coor      z-coor
    22626 -1.96132E-02-3.24613E-02-1.38022E+01-3.75784E-03-4.23359E-03-3.16054E+00 1.73260E-02-7.83055E-03-6.64063E-03 4.79446E+01-2.20623E+01-6.46369E+00



 n o d a l   p r i n t   o u t   f o r   t i m e  s t e p    8801                              ( at time 4.3995597E+00 )

 nodal point  x-rot      y-rot       z-rot       x-rot vel   y-rot vel   z-rot vel   x-rot acc   y-rot acc   z-rot acc
    22626 -9.43351E-06-5.00312E-05-8.47501E-05-8.65737E-06 2.47217E-05 4.32133E-05-4.25685E-06 1.96621E-04 3.57689E-04



 n o d a l   p r i n t   o u t   f o r   t i m e  s t e p    9001                              ( at time 4.4995497E+00 )

 nodal point  x-disp     y-disp      z-disp      x-vel       y-vel       z-vel      x-accl      y-accl      z-accl      x-coor      y-coor      z-coor
    22626 -1.98949E-02-3.29939E-02-1.41182E+01-1.60175E-03-6.99012E-03-3.15956E+00 2.15630E-02-2.75680E-02 9.74272E-03 4.79443E+01-2.20628E+01-6.77969E+00



 n o d a l   p r i n t   o u t   f o r   t i m e  s t e p    9001                              ( at time 4.4995497E+00 )

 nodal point  x-rot      y-rot       z-rot       x-rot vel   y-rot vel   z-rot vel   x-rot acc   y-rot acc   z-rot acc
    22626 -1.03617E-05-4.61723E-05-7.80576E-05-1.12516E-05 5.24989E-05 8.93896E-05-2.59448E-05 2.77800E-04 4.61807E-04



 n o d a l   p r i n t   o u t   f o r   t i m e  s t e p    9201                              ( at time 4.5995397E+00 )

 nodal point  x-disp     y-disp      z-disp      x-vel       y-vel       z-vel      x-accl      y-accl      z-accl      x-coor      y-coor      z-coor
    22626 -1.99687E-02-3.38216E-02-1.44340E+01 2.67734E-04-9.32635E-03-3.15671E+00 1.86967E-02-2.33646E-02 2.85440E-02 4.79442E+01-2.20636E+01-7.09547E+00



 n o d a l   p r i n t   o u t   f o r   t i m e  s t e p    9201                              ( at time 4.5995397E+00 )

 nodal point  x-rot      y-rot       z-rot       x-rot vel   y-rot vel   z-rot vel   x-rot acc   y-rot acc   z-rot acc
    22626 -1.09985E-05-3.92539E-05-6.85119E-05 3.06710E-06 8.87547E-05 1.07004E-04 1.43201E-04 3.62594E-04 1.76158E-04



 n o d a l   p r i n t   o u t   f o r   t i m e  s t e p    9401                              ( at time 4.6995297E+00 )

 nodal point  x-disp     y-disp      z-disp      x-vel       y-vel       z-vel      x-accl      y-accl      z-accl      x-coor      y-coor      z-coor
    22626 -1.98156E-02-3.48228E-02-1.47494E+01 2.49336E-03-1.04447E-02-3.15067E+00 2.22586E-02-1.11842E-02 6.03999E-02 4.79444E+01-2.20646E+01-7.41086E+00



 n o d a l   p r i n t   o u t   f o r   t i m e  s t e p    9401                              ( at time 4.6995297E+00 )

 nodal point  x-rot      y-rot       z-rot       x-rot vel   y-rot vel   z-rot vel   x-rot acc   y-rot acc   z-rot acc
    22626 -1.05266E-05-2.63980E-05-5.57893E-05 1.05340E-05 1.73390E-04 1.40669E-04 7.46763E-05 8.46437E-04 3.36684E-04



 n o d a l   p r i n t   o u t   f o r   t i m e  s t e p    9601                              ( at time 4.7995197E+00 )

 nodal point  x-disp     y-disp      z-disp      x-vel       y-vel       z-vel      x-accl      y-accl      z-accl      x-coor      y-coor      z-coor
    22626 -1.94160E-02-3.58840E-02-1.50640E+01 5.23868E-03-1.03806E-02-3.14096E+00 2.74559E-02 6.40666E-04 9.71439E-02 4.79448E+01-2.20657E+01-7.72545E+00



 n o d a l   p r i n t   o u t   f o r   t i m e  s t e p    9601                              ( at time 4.7995197E+00 )

 nodal point  x-rot      y-rot       z-rot       x-rot vel   y-rot vel   z-rot vel   x-rot acc   y-rot acc   z-rot acc
    22626 -7.78727E-06-3.67044E-06-4.04066E-05 5.26658E-05 2.93213E-04 1.63013E-04 4.21361E-04 1.19835E-03 2.23464E-04



 n o d a l   p r i n t   o u t   f o r   t i m e  s t e p    9801                              ( at time 4.8995097E+00 )

 nodal point  x-disp     y-disp      z-disp      x-vel       y-vel       z-vel      x-accl      y-accl      z-accl      x-coor      y-coor      z-coor
    22626 -1.87681E-02-3.68490E-02-1.53773E+01 8.02222E-03-8.85401E-03-3.12474E+00 2.78383E-02 1.52674E-02 1.62201E-01 4.79454E+01-2.20666E+01-8.03876E+00



 n o d a l   p r i n t   o u t   f o r   t i m e  s t e p    9801                              ( at time 4.8995097E+00 )

 nodal point  x-rot      y-rot       z-rot       x-rot vel   y-rot vel   z-rot vel   x-rot acc   y-rot acc   z-rot acc
    22626  4.52819E-07 3.28740E-05-2.37554E-05 1.11423E-04 4.49037E-04 1.64061E-04 5.87633E-04 1.55839E-03 1.04808E-05



 n o d a l   p r i n t   o u t   f o r   t i m e  s t e p   10001                              ( at time 4.9994997E+00 )

 nodal point  x-disp     y-disp      z-disp      x-vel       y-vel       z-vel      x-accl      y-accl      z-accl      x-coor      y-coor      z-coor
    22626 -1.77845E-02-3.76390E-02-1.56886E+01 1.17672E-02-7.44584E-03-3.10120E+00 3.74531E-02 1.40831E-02 2.35392E-01 4.79464E+01-2.20674E+01-8.35008E+00



 n o d a l   p r i n t   o u t   f o r   t i m e  s t e p   10001                              ( at time 4.9994997E+00 )

 nodal point  x-rot      y-rot       z-rot       x-rot vel   y-rot vel   z-rot vel   x-rot acc   y-rot acc   z-rot acc
    22626  1.64501E-05 8.84708E-05-8.11731E-06 2.15675E-04 6.69536E-04 1.51330E-04 1.04262E-03 2.20520E-03-1.27324E-04



 n o d a l   p r i n t   o u t   f o r   t i m e  s t e p   10202                              ( at time 5.0999896E+00 )

 nodal point  x-disp     y-disp      z-disp      x-vel       y-vel       z-vel      x-accl      y-accl      z-accl      x-coor      y-coor      z-coor
    22626 -1.63783E-02-3.81879E-02-1.59988E+01 1.64535E-02-4.30407E-03-3.07241E+00 4.66348E-02 3.12646E-02 2.86549E-01 4.79478E+01-2.20680E+01-8.66026E+00



 n o d a l   p r i n t   o u t   f o r   t i m e  s t e p   10202                              ( at time 5.0999896E+00 )

 nodal point  x-rot      y-rot       z-rot       x-rot vel   y-rot vel   z-rot vel   x-rot acc   y-rot acc   z-rot acc
    22626  4.40189E-05 1.67450E-04 5.76624E-06 3.19798E-04 9.04075E-04 1.27550E-04 1.03615E-03 2.33396E-03-2.36641E-04



 n o d a l   p r i n t   o u t   f o r   t i m e  s t e p   10402                              ( at time 5.1999796E+00 )

 nodal point  x-disp     y-disp      z-disp      x-vel       y-vel       z-vel      x-accl      y-accl      z-accl      x-coor      y-coor      z-coor
    22626 -1.45025E-02-3.83637E-02-1.63044E+01 2.06959E-02 6.88382E-04-3.04103E+00 4.24281E-02 4.99293E-02 3.13842E-01 4.79497E+01-2.20682E+01-8.96591E+00



 n o d a l   p r i n t   o u t   f o r   t i m e  s t e p   10402                              ( at time 5.1999796E+00 )

 nodal point  x-rot      y-rot       z-rot       x-rot vel   y-rot vel   z-rot vel   x-rot acc   y-rot acc   z-rot acc
    22626  8.29864E-05 2.71601E-04 1.66699E-05 4.60216E-04 1.18237E-03 8.87637E-05 1.40432E-03 2.78321E-03-3.87896E-04



 n o d a l   p r i n t   o u t   f o r   t i m e  s t e p   10602                              ( at time 5.2999696E+00 )

 nodal point  x-disp     y-disp      z-disp      x-vel       y-vel       z-vel      x-accl      y-accl      z-accl      x-coor      y-coor      z-coor
    22626 -1.22133E-02-3.79813E-02-1.66068E+01 2.51658E-02 7.08441E-03-3.00736E+00 4.47034E-02 6.39668E-02 3.36686E-01 4.79520E+01-2.20678E+01-9.26831E+00



 n o d a l   p r i n t   o u t   f o r   t i m e  s t e p   10602                              ( at time 5.2999696E+00 )

 nodal point  x-rot      y-rot       z-rot       x-rot vel   y-rot vel   z-rot vel   x-rot acc   y-rot acc   z-rot acc
    22626  1.36361E-04 4.04251E-04 2.36443E-05 6.09498E-04 1.47114E-03 4.80570E-05 1.49298E-03 2.88804E-03-4.07108E-04



 n o d a l   p r i n t   o u t   f o r   t i m e  s t e p   10802                              ( at time 5.3999596E+00 )

 nodal point  x-disp     y-disp      z-disp      x-vel       y-vel       z-vel      x-accl      y-accl      z-accl      x-coor      y-coor      z-coor
    22626 -9.44425E-03-3.70107E-02-1.69057E+01 3.03744E-02 1.25731E-02-2.97103E+00 5.20915E-02 5.48923E-02 3.63389E-01 4.79547E+01-2.20668E+01-9.56720E+00



 n o d a l   p r i n t   o u t   f o r   t i m e  s t e p   10802                              ( at time 5.3999596E+00 )

 nodal point  x-rot      y-rot       z-rot       x-rot vel   y-rot vel   z-rot vel   x-rot acc   y-rot acc   z-rot acc
    22626  2.04006E-04 5.67293E-04 2.64078E-05 7.49529E-04 1.78104E-03-7.20561E-06 1.40045E-03 3.09929E-03-5.52682E-04



 n o d a l   p r i n t   o u t   f o r   t i m e  s t e p   11002                              ( at time 5.4999496E+00 )

 nodal point  x-disp     y-disp      z-disp      x-vel       y-vel       z-vel      x-accl      y-accl      z-accl      x-coor      y-coor      z-coor
    22626 -6.12296E-03-3.53936E-02-1.72008E+01 3.56686E-02 1.98375E-02-2.93208E+00 5.29472E-02 7.26514E-02 3.89525E-01 4.79581E+01-2.20652E+01-9.86230E+00



 n o d a l   p r i n t   o u t   f o r   t i m e  s t e p   11002                              ( at time 5.4999496E+00 )

 nodal point  x-rot      y-rot       z-rot       x-rot vel   y-rot vel   z-rot vel   x-rot acc   y-rot acc   z-rot acc
    22626  2.86761E-04 7.62751E-04 2.25171E-05 9.12316E-04 2.11645E-03-7.94337E-05 1.62803E-03 3.35439E-03-7.22353E-04



 n o d a l   p r i n t   o u t   f o r   t i m e  s t e p   11202                              ( at time 5.5999396E+00 )

 nodal point  x-disp     y-disp      z-disp      x-vel       y-vel       z-vel      x-accl      y-accl      z-accl      x-coor      y-coor      z-coor
    22626 -2.30099E-03-3.29830E-02-1.74921E+01 4.03411E-02 2.94763E-02-2.89235E+00 4.67299E-02 9.63973E-02 3.97279E-01 4.79619E+01-2.20628E+01-1.01536E+01



 n o d a l   p r i n t   o u t   f o r   t i m e  s t e p   11202                              ( at time 5.5999396E+00 )

 nodal point  x-rot      y-rot       z-rot       x-rot vel   y-rot vel   z-rot vel   x-rot acc   y-rot acc   z-rot acc
    22626  3.85932E-04 9.91878E-04 1.22072E-05 1.06534E-03 2.47371E-03-1.47394E-04 1.53040E-03 3.57300E-03-6.79669E-04



 n o d a l   p r i n t   o u t   f o r   t i m e  s t e p   11402                              ( at time 5.6999296E+00 )

 nodal point  x-disp     y-disp      z-disp      x-vel       y-vel       z-vel      x-accl      y-accl      z-accl      x-coor      y-coor      z-coor
    22626  2.00198E-03-2.96603E-02-1.77793E+01 4.58102E-02 3.72578E-02-2.85431E+00 5.46960E-02 7.78233E-02 3.80479E-01 4.79662E+01-2.20595E+01-1.04408E+01



 n o d a l   p r i n t   o u t   f o r   t i m e  s t e p   11402                              ( at time 5.6999296E+00 )

 nodal point  x-rot      y-rot       z-rot       x-rot vel   y-rot vel   z-rot vel   x-rot acc   y-rot acc   z-rot acc
    22626  4.99138E-04 1.25638E-03-5.16568E-06 1.21413E-03 2.80206E-03-2.12055E-04 1.48800E-03 3.28381E-03-6.46680E-04



 n o d a l   p r i n t   o u t   f o r   t i m e  s t e p   11602                              ( at time 5.7999195E+00 )

 nodal point  x-disp     y-disp      z-disp      x-vel       y-vel       z-vel      x-accl      y-accl      z-accl      x-coor      y-coor      z-coor
    22626  6.89482E-03-2.54815E-02-1.80626E+01 5.22273E-02 4.64240E-02-2.81230E+00 6.41777E-02 9.16707E-02 4.20095E-01 4.79711E+01-2.20553E+01-1.07241E+01



 n o d a l   p r i n t   o u t   f o r   t i m e  s t e p   11602                              ( at time 5.7999195E+00 )

 nodal point  x-rot      y-rot       z-rot       x-rot vel   y-rot vel   z-rot vel   x-rot acc   y-rot acc   z-rot acc
    22626  6.27910E-04 1.55447E-03-3.04886E-05 1.36443E-03 3.14219E-03-2.98379E-04 1.50323E-03 3.40165E-03-8.63325E-04



 n o d a l   p r i n t   o u t   f o r   t i m e  s t e p   11802                              ( at time 5.8999095E+00 )

 nodal point  x-disp     y-disp      z-disp      x-vel       y-vel       z-vel      x-accl      y-accl      z-accl      x-coor      y-coor      z-coor
    22626  1.23872E-02-2.04703E-02-1.83417E+01 5.80184E-02 5.38335E-02-2.77033E+00 5.79168E-02 7.41030E-02 4.19745E-01 4.79766E+01-2.20503E+01-1.10032E+01



 n o d a l   p r i n t   o u t   f o r   t i m e  s t e p   11802                              ( at time 5.8999095E+00 )

 nodal point  x-rot      y-rot       z-rot       x-rot vel   y-rot vel   z-rot vel   x-rot acc   y-rot acc   z-rot acc
    22626  7.72881E-04 1.88652E-03-6.50875E-05 1.53056E-03 3.49723E-03-3.81916E-04 1.66147E-03 3.55074E-03-8.35451E-04



 n o d a l   p r i n t   o u t   f o r   t i m e  s t e p   12002                              ( at time 5.9998995E+00 )

 nodal point  x-disp     y-disp      z-disp      x-vel       y-vel       z-vel      x-accl      y-accl      z-accl      x-coor      y-coor      z-coor
    22626  1.85597E-02-1.47521E-02-1.86166E+01 6.56618E-02 6.08416E-02-2.72713E+00 7.64414E-02 7.00879E-02 4.32077E-01 4.79827E+01-2.20445E+01-1.12781E+01



 n o d a l   p r i n t   o u t   f o r   t i m e  s t e p   12002                              ( at time 5.9998995E+00 )

 nodal point  x-rot      y-rot       z-rot       x-rot vel   y-rot vel   z-rot vel   x-rot acc   y-rot acc   z-rot acc
    22626  9.35326E-04 2.25238E-03-1.08068E-04 1.70100E-03 3.82280E-03-4.68915E-04 1.70454E-03 3.25608E-03-8.70078E-04



 n o d a l   p r i n t   o u t   f o r   t i m e  s t e p   12202                              ( at time 6.0998895E+00 )

 nodal point  x-disp     y-disp      z-disp      x-vel       y-vel       z-vel      x-accl      y-accl      z-accl      x-coor      y-coor      z-coor
    22626  2.54947E-02-8.27402E-03-1.88872E+01 7.26243E-02 6.78933E-02-2.68478E+00 6.96318E-02 7.05232E-02 4.23548E-01 4.79897E+01-2.20381E+01-1.15487E+01



 n o d a l   p r i n t   o u t   f o r   t i m e  s t e p   12202                              ( at time 6.0998895E+00 )

 nodal point  x-rot      y-rot       z-rot       x-rot vel   y-rot vel   z-rot vel   x-rot acc   y-rot acc   z-rot acc
    22626  1.11473E-03 2.65081E-03-1.60241E-04 1.88567E-03 4.15235E-03-5.64587E-04 1.84682E-03 3.29577E-03-9.56812E-04



 n o d a l   p r i n t   o u t   f o r   t i m e  s t e p   12402                              ( at time 6.1998795E+00 )

 nodal point  x-disp     y-disp      z-disp      x-vel       y-vel       z-vel      x-accl      y-accl      z-accl      x-coor      y-coor      z-coor
    22626  3.31031E-02-1.05751E-03-1.91534E+01 7.94583E-02 7.58966E-02-2.64070E+00 6.83474E-02 8.00416E-02 4.40857E-01 4.79973E+01-2.20308E+01-1.18149E+01



 n o d a l   p r i n t   o u t   f o r   t i m e  s t e p   12402                              ( at time 6.1998795E+00 )

 nodal point  x-rot      y-rot       z-rot       x-rot vel   y-rot vel   z-rot vel   x-rot acc   y-rot acc   z-rot acc
    22626  1.31234E-03 3.08161E-03-2.22391E-04 2.07442E-03 4.46715E-03-6.75868E-04 1.88771E-03 3.14831E-03-1.11293E-03



 n o d a l   p r i n t   o u t   f o r   t i m e  s t e p   12602                              ( at time 6.2998695E+00 )

 nodal point  x-disp     y-disp      z-disp      x-vel       y-vel       z-vel      x-accl      y-accl      z-accl      x-coor      y-coor      z-coor
    22626  4.14866E-02 6.81353E-03-1.94151E+01 8.79747E-02 8.22912E-02-2.59453E+00 8.51728E-02 6.39526E-02 4.61713E-01 4.80057E+01-2.20230E+01-1.20766E+01



 n o d a l   p r i n t   o u t   f o r   t i m e  s t e p   12602                              ( at time 6.2998695E+00 )

 nodal point  x-rot      y-rot       z-rot       x-rot vel   y-rot vel   z-rot vel   x-rot acc   y-rot acc   z-rot acc
    22626  1.52829E-03 3.54316E-03-2.93515E-04 2.25965E-03 4.76237E-03-7.75245E-04 1.85249E-03 2.95247E-03-9.93861E-04



 n o d a l   p r i n t   o u t   f o r   t i m e  s t e p   12802                              ( at time 6.3998595E+00 )

 nodal point  x-disp     y-disp      z-disp      x-vel       y-vel       z-vel      x-accl      y-accl      z-accl      x-coor      y-coor      z-coor
    22626  5.07779E-02 1.53691E-02-1.96721E+01 9.72473E-02 8.88953E-02-2.54638E+00 9.27345E-02 6.60471E-02 4.81607E-01 4.80150E+01-2.20144E+01-1.23336E+01



 n o d a l   p r i n t   o u t   f o r   t i m e  s t e p   12802                              ( at time 6.3998595E+00 )

 nodal point  x-rot      y-rot       z-rot       x-rot vel   y-rot vel   z-rot vel   x-rot acc   y-rot acc   z-rot acc
    22626  1.76357E-03 4.03489E-03-3.75188E-04 2.43527E-03 5.07637E-03-8.73396E-04 1.75638E-03 3.14034E-03-9.81618E-04



 n o d a l   p r i n t   o u t   f o r   t i m e  s t e p   13002                              ( at time 6.4998495E+00 )

 nodal point  x-disp     y-disp      z-disp      x-vel       y-vel       z-vel      x-accl      y-accl      z-accl      x-coor      y-coor      z-coor
    22626  6.08987E-02 2.46701E-02-1.99242E+01 1.05760E-01 9.69935E-02-2.49717E+00 8.51393E-02 8.09909E-02 4.92119E-01 4.80251E+01-2.20051E+01-1.25857E+01



 n o d a l   p r i n t   o u t   f o r   t i m e  s t e p   13002                              ( at time 6.4998495E+00 )

 nodal point  x-rot      y-rot       z-rot       x-rot vel   y-rot vel   z-rot vel   x-rot acc   y-rot acc   z-rot acc
    22626  2.01760E-03 4.55774E-03-4.67154E-04 2.63666E-03 5.37164E-03-9.65415E-04 2.01414E-03 2.95298E-03-9.20283E-04



 n o d a l   p r i n t   o u t   f o r   t i m e  s t e p   13202                              ( at time 6.5998395E+00 )

 nodal point  x-disp     y-disp      z-disp      x-vel       y-vel       z-vel      x-accl      y-accl      z-accl      x-coor      y-coor      z-coor
    22626  7.18369E-02 3.48283E-02-2.01714E+01 1.13442E-01 1.06288E-01-2.44559E+00 7.68211E-02 9.29569E-02 5.15825E-01 4.80360E+01-2.19950E+01-1.28329E+01



 n o d a l   p r i n t   o u t   f o r   t i m e  s t e p   13202                              ( at time 6.5998395E+00 )

 nodal point  x-rot      y-rot       z-rot       x-rot vel   y-rot vel   z-rot vel   x-rot acc   y-rot acc   z-rot acc
    22626  2.29219E-03 5.11113E-03-5.69217E-04 2.85221E-03 5.69410E-03-1.07962E-03 2.15568E-03 3.22494E-03-1.14214E-03



 n o d a l   p r i n t   o u t   f o r   t i m e  s t e p   13402                              ( at time 6.6998295E+00 )

 nodal point  x-disp     y-disp      z-disp      x-vel       y-vel       z-vel      x-accl      y-accl      z-accl      x-coor      y-coor      z-coor
    22626  8.35738E-02 4.58554E-02-2.04133E+01 1.22430E-01 1.14575E-01-2.39304E+00 8.98959E-02 8.28731E-02 5.25592E-01 4.80478E+01-2.19839E+01-1.30748E+01



 n o d a l   p r i n t   o u t   f o r   t i m e  s t e p   13402                              ( at time 6.6998295E+00 )

 nodal point  x-rot      y-rot       z-rot       x-rot vel   y-rot vel   z-rot vel   x-rot acc   y-rot acc   z-rot acc
    22626  2.58663E-03 5.69630E-03-6.83424E-04 3.05623E-03 6.00651E-03-1.20239E-03 2.04041E-03 3.12439E-03-1.22779E-03



 n o d a l   p r i n t   o u t   f o r   t i m e  s t e p   13602                              ( at time 6.7998195E+00 )

 nodal point  x-disp     y-disp      z-disp      x-vel       y-vel       z-vel      x-accl      y-accl      z-accl      x-coor      y-coor      z-coor
    22626  9.61620E-02 5.76518E-02-2.06499E+01 1.29956E-01 1.21958E-01-2.33847E+00 7.52673E-02 7.38421E-02 5.45762E-01 4.80603E+01-2.19721E+01-1.33113E+01



 n o d a l   p r i n t   o u t   f o r   t i m e  s t e p   13602                              ( at time 6.7998195E+00 )

 nodal point  x-rot      y-rot       z-rot       x-rot vel   y-rot vel   z-rot vel   x-rot acc   y-rot acc   z-rot acc
    22626  2.90324E-03 6.31297E-03-8.08525E-04 3.28920E-03 6.31532E-03-1.30887E-03 2.32998E-03 3.08841E-03-1.06495E-03



 n o d a l   p r i n t   o u t   f o r   t i m e  s t e p   13802                              ( at time 6.8998095E+00 )

 nodal point  x-disp     y-disp      z-disp      x-vel       y-vel       z-vel      x-accl      y-accl      z-accl      x-coor      y-coor      z-coor
    22626  1.09505E-01 7.03448E-02-2.08809E+01 1.37701E-01 1.31168E-01-2.28445E+00 7.74502E-02 9.21052E-02 5.40247E-01 4.80737E+01-2.19594E+01-1.35424E+01



 n o d a l   p r i n t   o u t   f o r   t i m e  s t e p   13802                              ( at time 6.8998095E+00 )

 nodal point  x-rot      y-rot       z-rot       x-rot vel   y-rot vel   z-rot vel   x-rot acc   y-rot acc   z-rot acc
    22626  3.24373E-03 6.96114E-03-9.45294E-04 3.51746E-03 6.64034E-03-1.42446E-03 2.28280E-03 3.25059E-03-1.15600E-03



 n o d a l   p r i n t   o u t   f o r   t i m e  s t e p   14002                              ( at time 6.9997995E+00 )

 nodal point  x-disp     y-disp      z-disp      x-vel       y-vel       z-vel      x-accl      y-accl      z-accl      x-coor      y-coor      z-coor
    22626  1.23611E-01 8.37905E-02-2.11066E+01 1.44235E-01 1.38935E-01-2.22787E+00 6.53510E-02 7.76775E-02 5.65822E-01 4.80878E+01-2.19460E+01-1.37681E+01



 n o d a l   p r i n t   o u t   f o r   t i m e  s t e p   14002                              ( at time 6.9997995E+00 )

 nodal point  x-rot      y-rot       z-rot       x-rot vel   y-rot vel   z-rot vel   x-rot acc   y-rot acc   z-rot acc
    22626  3.60714E-03 7.64080E-03-1.09277E-03 3.77237E-03 6.95061E-03-1.53783E-03 2.54938E-03 3.10302E-03-1.13388E-03



 n o d a l   p r i n t   o u t   f o r   t i m e  s t e p   14202                              ( at time 7.0997895E+00 )

 nodal point  x-disp     y-disp      z-disp      x-vel       y-vel       z-vel      x-accl      y-accl      z-accl      x-coor      y-coor      z-coor
    22626  1.38360E-01 9.80699E-02-2.13265E+01 1.50061E-01 1.47040E-01-2.17205E+00 5.82626E-02 8.10628E-02 5.58282E-01 4.81025E+01-2.19317E+01-1.39880E+01



 n o d a l   p r i n t   o u t   f o r   t i m e  s t e p   14202                              ( at time 7.0997895E+00 )

 nodal point  x-rot      y-rot       z-rot       x-rot vel   y-rot vel   z-rot vel   x-rot acc   y-rot acc   z-rot acc
    22626  3.99662E-03 8.35196E-03-1.25246E-03 4.03305E-03 7.25906E-03-1.66722E-03 2.60703E-03 3.08481E-03-1.29395E-03



 n o d a l   p r i n t   o u t   f o r   t i m e  s t e p   14402                              ( at time 7.1997794E+00 )

 nodal point  x-disp     y-disp      z-disp      x-vel       y-vel       z-vel      x-accl      y-accl      z-accl      x-coor      y-coor      z-coor
    22626  1.53797E-01 1.13021E-01-2.15408E+01 1.57598E-01 1.53261E-01-2.11283E+00 7.53819E-02 6.22104E-02 5.92227E-01 4.81180E+01-2.19168E+01-1.42023E+01



 n o d a l   p r i n t   o u t   f o r   t i m e  s t e p   14402                              ( at time 7.1997794E+00 )

 nodal point  x-rot      y-rot       z-rot       x-rot vel   y-rot vel   z-rot vel   x-rot acc   y-rot acc   z-rot acc
    22626  4.40984E-03 9.09488E-03-1.42244E-03 4.26135E-03 7.58134E-03-1.76129E-03 2.28324E-03 3.22312E-03-9.40800E-04



 n o d a l   p r i n t   o u t   f o r   t i m e  s t e p   14602                              ( at time 7.2997694E+00 )

 nodal point  x-disp     y-disp      z-disp      x-vel       y-vel       z-vel      x-accl      y-accl      z-accl      x-coor      y-coor      z-coor
    22626  1.69845E-01 1.28651E-01-2.17490E+01 1.62821E-01 1.59902E-01-2.05272E+00 5.22379E-02 6.64242E-02 6.01133E-01 4.81340E+01-2.19011E+01-1.44105E+01



 n o d a l   p r i n t   o u t   f o r   t i m e  s t e p   14602                              ( at time 7.2997694E+00 )

 nodal point  x-rot      y-rot       z-rot       x-rot vel   y-rot vel   z-rot vel   x-rot acc   y-rot acc   z-rot acc
    22626  4.84807E-03 9.87075E-03-1.60197E-03 4.51855E-03 7.91067E-03-1.85751E-03 2.57222E-03 3.29361E-03-9.62367E-04



 n o d a l   p r i n t   o u t   f o r   t i m e  s t e p   14802                              ( at time 7.3997594E+00 )

 nodal point  x-disp     y-disp      z-disp      x-vel       y-vel       z-vel      x-accl      y-accl      z-accl      x-coor      y-coor      z-coor
    22626  1.86390E-01 1.44800E-01-2.19513E+01 1.68870E-01 1.63791E-01-1.99141E+00 6.04922E-02 3.88846E-02 6.13171E-01 4.81506E+01-2.18850E+01-1.46128E+01



 n o d a l   p r i n t   o u t   f o r   t i m e  s t e p   14802                              ( at time 7.3997594E+00 )

 nodal point  x-rot      y-rot       z-rot       x-rot vel   y-rot vel   z-rot vel   x-rot acc   y-rot acc   z-rot acc
    22626  5.31082E-03 1.06786E-02-1.79037E-03 4.74736E-03 8.22456E-03-1.93677E-03 2.28838E-03 3.13923E-03-7.92598E-04



 n o d a l   p r i n t   o u t   f o r   t i m e  s t e p   15002                              ( at time 7.4997494E+00 )

 nodal point  x-disp     y-disp      z-disp      x-vel       y-vel       z-vel      x-accl      y-accl      z-accl      x-coor      y-coor      z-coor
    22626  2.03397E-01 1.61402E-01-2.21472E+01 1.72586E-01 1.68023E-01-1.92818E+00 3.71595E-02 4.23268E-02 6.32352E-01 4.81676E+01-2.18684E+01-1.48087E+01



 n o d a l   p r i n t   o u t   f o r   t i m e  s t e p   15002                              ( at time 7.4997494E+00 )

 nodal point  x-rot      y-rot       z-rot       x-rot vel   y-rot vel   z-rot vel   x-rot acc   y-rot acc   z-rot acc
    22626  5.79868E-03 1.15178E-02-1.98712E-03 5.01934E-03 8.53529E-03-2.01631E-03 2.72003E-03 3.10762E-03-7.95540E-04



 n o d a l   p r i n t   o u t   f o r   t i m e  s t e p   15202                              ( at time 7.5997394E+00 )

 nodal point  x-disp     y-disp      z-disp      x-vel       y-vel       z-vel      x-accl      y-accl      z-accl      x-coor      y-coor      z-coor
    22626  2.20879E-01 1.78329E-01-2.23367E+01 1.78372E-01 1.70478E-01-1.86199E+00 5.78659E-02 2.45574E-02 6.61956E-01 4.81851E+01-2.18515E+01-1.49982E+01



 n o d a l   p r i n t   o u t   f o r   t i m e  s t e p   15202                              ( at time 7.5997394E+00 )

 nodal point  x-rot      y-rot       z-rot       x-rot vel   y-rot vel   z-rot vel   x-rot acc   y-rot acc   z-rot acc
    22626  6.31453E-03 1.23866E-02-2.19255E-03 5.31127E-03 8.80864E-03-2.11446E-03 2.91964E-03 2.73376E-03-9.81587E-04



 n o d a l   p r i n t   o u t   f o r   t i m e  s t e p   15402                              ( at time 7.6997294E+00 )

 nodal point  x-disp     y-disp      z-disp      x-vel       y-vel       z-vel      x-accl      y-accl      z-accl      x-coor      y-coor      z-coor
    22626  2.38909E-01 1.95288E-01-2.25196E+01 1.82810E-01 1.70783E-01-1.79475E+00 4.43868E-02 3.04491E-03 6.72473E-01 4.82031E+01-2.18345E+01-1.51811E+01



 n o d a l   p r i n t   o u t   f o r   t i m e  s t e p   15402                              ( at time 7.6997294E+00 )

 nodal point  x-rot      y-rot       z-rot       x-rot vel   y-rot vel   z-rot vel   x-rot acc   y-rot acc   z-rot acc
    22626  6.85764E-03 1.32819E-02-2.40449E-03 5.57188E-03 9.08905E-03-2.16586E-03 2.60636E-03 2.80430E-03-5.14005E-04



 n o d a l   p r i n t   o u t   f o r   t i m e  s t e p   15602                              ( at time 7.7997194E+00 )

 nodal point  x-disp     y-disp      z-disp      x-vel       y-vel       z-vel      x-accl      y-accl      z-accl      x-coor      y-coor      z-coor
    22626  2.57311E-01 2.12318E-01-2.26957E+01 1.85223E-01 1.70662E-01-1.72764E+00 2.41323E-02-1.20712E-03 6.71214E-01 4.82215E+01-2.18175E+01-1.53572E+01



 n o d a l   p r i n t   o u t   f o r   t i m e  s t e p   15602                              ( at time 7.7997194E+00 )

 nodal point  x-rot      y-rot       z-rot       x-rot vel   y-rot vel   z-rot vel   x-rot acc   y-rot acc   z-rot acc
    22626  7.42891E-03 1.42043E-02-2.62259E-03 5.86820E-03 9.34218E-03-2.23083E-03 2.96348E-03 2.53164E-03-6.49835E-04



 n o d a l   p r i n t   o u t   f o r   t i m e  s t e p   15802                              ( at time 7.8997094E+00 )

 nodal point  x-disp     y-disp      z-disp      x-vel       y-vel       z-vel      x-accl      y-accl      z-accl      x-coor      y-coor      z-coor
    22626  2.76064E-01 2.29396E-01-2.28649E+01 1.89070E-01 1.71255E-01-1.65715E+00 3.84776E-02 5.92560E-03 7.04977E-01 4.82402E+01-2.18004E+01-1.55264E+01



 n o d a l   p r i n t   o u t   f o r   t i m e  s t e p   15802                              ( at time 7.8997094E+00 )

 nodal point  x-rot      y-rot       z-rot       x-rot vel   y-rot vel   z-rot vel   x-rot acc   y-rot acc   z-rot acc
    22626  8.03042E-03 1.51511E-02-2.84838E-03 6.17068E-03 9.57725E-03-2.31314E-03 3.02510E-03 2.35091E-03-8.23098E-04



 n o d a l   p r i n t   o u t   f o r   t i m e  s t e p   16002                              ( at time 7.9996994E+00 )

 nodal point  x-disp     y-disp      z-disp      x-vel       y-vel       z-vel      x-accl      y-accl      z-accl      x-coor      y-coor      z-coor
    22626  2.95236E-01 2.46197E-01-2.30271E+01 1.93661E-01 1.65528E-01-1.58528E+00 4.59112E-02-5.72751E-02 7.18794E-01 4.82594E+01-2.17836E+01-1.56886E+01



 n o d a l   p r i n t   o u t   f o r   t i m e  s t e p   16002                              ( at time 7.9996994E+00 )

 nodal point  x-rot      y-rot       z-rot       x-rot vel   y-rot vel   z-rot vel   x-rot acc   y-rot acc   z-rot acc
    22626  8.66083E-03 1.61201E-02-3.07896E-03 6.46643E-03 9.77341E-03-2.33761E-03 2.95781E-03 1.96182E-03-2.44770E-04



 n o d a l   p r i n t   o u t   f o r   t i m e  s t e p   16202                              ( at time 8.0996894E+00 )

 nodal point  x-disp     y-disp      z-disp      x-vel       y-vel       z-vel      x-accl      y-accl      z-accl      x-coor      y-coor      z-coor
    22626  3.14788E-01 2.62607E-01-2.31820E+01 1.97427E-01 1.62051E-01-1.51437E+00 3.76656E-02-3.47676E-02 7.09098E-01 4.82790E+01-2.17672E+01-1.58435E+01



 n o d a l   p r i n t   o u t   f o r   t i m e  s t e p   16202                              ( at time 8.0996894E+00 )

 nodal point  x-rot      y-rot       z-rot       x-rot vel   y-rot vel   z-rot vel   x-rot acc   y-rot acc   z-rot acc
    22626  9.32443E-03 1.71064E-02-3.31585E-03 6.81729E-03 9.93845E-03-2.39818E-03 3.50887E-03 1.65056E-03-6.05800E-04



 n o d a l   p r i n t   o u t   f o r   t i m e  s t e p   16402                              ( at time 8.1996794E+00 )

 nodal point  x-disp     y-disp      z-disp      x-vel       y-vel       z-vel      x-accl      y-accl      z-accl      x-coor      y-coor      z-coor
    22626  3.34734E-01 2.78606E-01-2.33297E+01 2.02515E-01 1.56197E-01-1.44164E+00 5.08875E-02-5.85438E-02 7.27392E-01 4.82989E+01-2.17512E+01-1.59912E+01



 n o d a l   p r i n t   o u t   f o r   t i m e  s t e p   16402                              ( at time 8.1996794E+00 )

 nodal point  x-rot      y-rot       z-rot       x-rot vel   y-rot vel   z-rot vel   x-rot acc   y-rot acc   z-rot acc
    22626  1.00225E-02 1.81110E-02-3.55895E-03 7.14852E-03 1.01215E-02-2.45585E-03 3.31271E-03 1.83092E-03-5.76698E-04



 n o d a l   p r i n t   o u t   f o r   t i m e  s t e p   16602                              ( at time 8.2996694E+00 )

 nodal point  x-disp     y-disp      z-disp      x-vel       y-vel       z-vel      x-accl      y-accl      z-accl      x-coor      y-coor      z-coor
    22626  3.55200E-01 2.94028E-01-2.34703E+01 2.07556E-01 1.52271E-01-1.36924E+00 5.04117E-02-3.92645E-02 7.24068E-01 4.83194E+01-2.17358E+01-1.61318E+01



 n o d a l   p r i n t   o u t   f o r   t i m e  s t e p   16602                              ( at time 8.2996694E+00 )

 nodal point  x-rot      y-rot       z-rot       x-rot vel   y-rot vel   z-rot vel   x-rot acc   y-rot acc   z-rot acc
    22626  1.07580E-02 1.91300E-02-3.80756E-03 7.54991E-03 1.02508E-02-2.50499E-03 4.01427E-03 1.29276E-03-4.91488E-04



 n o d a l   p r i n t   o u t   f o r   t i m e  s t e p   16802                              ( at time 8.3996594E+00 )

 nodal point  x-disp     y-disp      z-disp      x-vel       y-vel       z-vel      x-accl      y-accl      z-accl      x-coor      y-coor      z-coor
    22626  3.76165E-01 3.09063E-01-2.36037E+01 2.12707E-01 1.46791E-01-1.29803E+00 5.15187E-02-5.48139E-02 7.12206E-01 4.83403E+01-2.17207E+01-1.62652E+01



 n o d a l   p r i n t   o u t   f o r   t i m e  s t e p   16802                              ( at time 8.3996594E+00 )

 nodal point  x-rot      y-rot       z-rot       x-rot vel   y-rot vel   z-rot vel   x-rot acc   y-rot acc   z-rot acc
    22626  1.15320E-02 2.01587E-02-4.06154E-03 7.91754E-03 1.03451E-02-2.58160E-03 3.67667E-03 9.43162E-04-7.66172E-04



 n o d a l   p r i n t   o u t   f o r   t i m e  s t e p   17002                              ( at time 8.4996494E+00 )

 nodal point  x-disp     y-disp      z-disp      x-vel       y-vel       z-vel      x-accl      y-accl      z-accl      x-coor      y-coor      z-coor
    22626  3.97616E-01 3.23483E-01-2.37298E+01 2.17255E-01 1.41062E-01-1.22814E+00 4.54850E-02-5.72936E-02 6.99011E-01 4.83618E+01-2.17063E+01-1.63913E+01



 n o d a l   p r i n t   o u t   f o r   t i m e  s t e p   17002                              ( at time 8.4996494E+00 )

 nodal point  x-rot      y-rot       z-rot       x-rot vel   y-rot vel   z-rot vel   x-rot acc   y-rot acc   z-rot acc
    22626  1.23436E-02 2.12019E-02-4.32052E-03 8.29964E-03 1.04734E-02-2.61935E-03 3.82144E-03 1.28348E-03-3.77519E-04



 n o d a l   p r i n t   o u t   f o r   t i m e  s t e p   17202                              ( at time 8.5996394E+00 )

 nodal point  x-disp     y-disp      z-disp      x-vel       y-vel       z-vel      x-accl      y-accl      z-accl      x-coor      y-coor      z-coor
    22626  4.19623E-01 3.37519E-01-2.38490E+01 2.23922E-01 1.38235E-01-1.15608E+00 6.66763E-02-2.82711E-02 7.20638E-01 4.83838E+01-2.16923E+01-1.65105E+01



 n o d a l   p r i n t   o u t   f o r   t i m e  s t e p   17202                              ( at time 8.5996394E+00 )

 nodal point  x-rot      y-rot       z-rot       x-rot vel   y-rot vel   z-rot vel   x-rot acc   y-rot acc   z-rot acc
    22626  1.31936E-02 2.22537E-02-4.58359E-03 8.69313E-03 1.05702E-02-2.65523E-03 3.93521E-03 9.67882E-04-3.58833E-04



 n o d a l   p r i n t   o u t   f o r   t i m e  s t e p   17402                              ( at time 8.6996293E+00 )

 nodal point  x-disp     y-disp      z-disp      x-vel       y-vel       z-vel      x-accl      y-accl      z-accl      x-coor      y-coor      z-coor
    22626  4.42281E-01 3.51144E-01-2.39610E+01 2.30452E-01 1.33710E-01-1.08574E+00 6.53023E-02-4.52576E-02 7.03434E-01 4.84065E+01-2.16786E+01-1.66225E+01



 n o d a l   p r i n t   o u t   f o r   t i m e  s t e p   17402                              ( at time 8.6996293E+00 )

 nodal point  x-rot      y-rot       z-rot       x-rot vel   y-rot vel   z-rot vel   x-rot acc   y-rot acc   z-rot acc
    22626  1.40828E-02 2.33151E-02-4.84971E-03 9.07626E-03 1.06506E-02-2.69256E-03 3.83169E-03 8.04112E-04-3.73362E-04



 n o d a l   p r i n t   o u t   f o r   t i m e  s t e p   17602                              ( at time 8.7996193E+00 )

 nodal point  x-disp     y-disp      z-disp      x-vel       y-vel       z-vel      x-accl      y-accl      z-accl      x-coor      y-coor      z-coor
    22626  4.65658E-01 3.64418E-01-2.40663E+01 2.37983E-01 1.29690E-01-1.02024E+00 7.53179E-02-4.02032E-02 6.55075E-01 4.84298E+01-2.16654E+01-1.67278E+01



 n o d a l   p r i n t   o u t   f o r   t i m e  s t e p   17602                              ( at time 8.7996193E+00 )

 nodal point  x-rot      y-rot       z-rot       x-rot vel   y-rot vel   z-rot vel   x-rot acc   y-rot acc   z-rot acc
    22626  1.50100E-02 2.43835E-02-5.11989E-03 9.46584E-03 1.07198E-02-2.72165E-03 3.89620E-03 6.91623E-04-2.90867E-04



 n o d a l   p r i n t   o u t   f o r   t i m e  s t e p   17802                              ( at time 8.8996093E+00 )

 nodal point  x-disp     y-disp      z-disp      x-vel       y-vel       z-vel      x-accl      y-accl      z-accl      x-coor      y-coor      z-coor
    22626  4.89759E-01 3.77358E-01-2.41648E+01 2.46472E-01 1.27771E-01-9.51607E-01 8.48986E-02-1.91885E-02 6.86406E-01 4.84539E+01-2.16524E+01-1.68263E+01



 n o d a l   p r i n t   o u t   f o r   t i m e  s t e p   17802                              ( at time 8.8996093E+00 )

 nodal point  x-rot      y-rot       z-rot       x-rot vel   y-rot vel   z-rot vel   x-rot acc   y-rot acc   z-rot acc
    22626  1.59783E-02 2.54603E-02-5.39282E-03 9.85788E-03 1.08018E-02-2.74411E-03 3.92084E-03 8.20243E-04-2.24693E-04



 n o d a l   p r i n t   o u t   f o r   t i m e  s t e p   18002                              ( at time 8.9995993E+00 )

 nodal point  x-disp     y-disp      z-disp      x-vel       y-vel       z-vel      x-accl      y-accl      z-accl      x-coor      y-coor      z-coor
    22626  5.14685E-01 3.89995E-01-2.42567E+01 2.53415E-01 1.23769E-01-8.84766E-01 6.94396E-02-4.00212E-02 6.68478E-01 4.84789E+01-2.16398E+01-1.69182E+01



 n o d a l   p r i n t   o u t   f o r   t i m e  s t e p   18002                              ( at time 8.9995993E+00 )

 nodal point  x-rot      y-rot       z-rot       x-rot vel   y-rot vel   z-rot vel   x-rot acc   y-rot acc   z-rot acc
    22626  1.69839E-02 2.65430E-02-5.66759E-03 1.02397E-02 1.08455E-02-2.75703E-03 3.81897E-03 4.37114E-04-1.29183E-04



 n o d a l   p r i n t   o u t   f o r   t i m e  s t e p   18202                              ( at time 9.0995893E+00 )

 nodal point  x-disp     y-disp      z-disp      x-vel       y-vel       z-vel      x-accl      y-accl      z-accl      x-coor      y-coor      z-coor
    22626  5.40371E-01 4.02449E-01-2.43416E+01 2.62412E-01 1.25068E-01-8.15269E-01 8.99793E-02 1.29925E-02 6.95047E-01 4.85046E+01-2.16273E+01-1.70031E+01



 n o d a l   p r i n t   o u t   f o r   t i m e  s t e p   18202                              ( at time 9.0995893E+00 )

 nodal point  x-rot      y-rot       z-rot       x-rot vel   y-rot vel   z-rot vel   x-rot acc   y-rot acc   z-rot acc
    22626  1.80316E-02 2.76303E-02-5.94510E-03 1.06652E-02 1.08786E-02-2.79662E-03 4.25544E-03 3.30765E-04-3.95917E-04



 n o d a l   p r i n t   o u t   f o r   t i m e  s t e p   18402                              ( at time 9.1995793E+00 )

 nodal point  x-disp     y-disp      z-disp      x-vel       y-vel       z-vel      x-accl      y-accl      z-accl      x-coor      y-coor      z-coor
    22626  5.66929E-01 4.14902E-01-2.44197E+01 2.69097E-01 1.22929E-01-7.48165E-01 6.68555E-02-2.13998E-02 6.71105E-01 4.85311E+01-2.16149E+01-1.70812E+01



 n o d a l   p r i n t   o u t   f o r   t i m e  s t e p   18402                              ( at time 9.1995793E+00 )

 nodal point  x-rot      y-rot       z-rot       x-rot vel   y-rot vel   z-rot vel   x-rot acc   y-rot acc   z-rot acc
    22626  1.91185E-02 2.87203E-02-6.22571E-03 1.10768E-02 1.09145E-02-2.82856E-03 4.11593E-03 3.59667E-04-3.19422E-04



 n o d a l   p r i n t   o u t   f o r   t i m e  s t e p   18602                              ( at time 9.2995693E+00 )

 nodal point  x-disp     y-disp      z-disp      x-vel       y-vel       z-vel      x-accl      y-accl      z-accl      x-coor      y-coor      z-coor
    22626  5.94260E-01 4.26963E-01-2.44912E+01 2.78394E-01 1.20509E-01-6.79748E-01 9.29745E-02-2.42030E-02 6.84236E-01 4.85584E+01-2.16028E+01-1.71527E+01



 n o d a l   p r i n t   o u t   f o r   t i m e  s t e p   18602                              ( at time 9.2995693E+00 )

 nodal point  x-rot      y-rot       z-rot       x-rot vel   y-rot vel   z-rot vel   x-rot acc   y-rot acc   z-rot acc
    22626  2.02434E-02 2.98141E-02-6.50665E-03 1.14346E-02 1.09723E-02-2.82105E-03 3.57843E-03 5.77618E-04 7.51071E-05



 n o d a l   p r i n t   o u t   f o r   t i m e  s t e p   18802                              ( at time 9.3995593E+00 )

 nodal point  x-disp     y-disp      z-disp      x-vel       y-vel       z-vel      x-accl      y-accl      z-accl      x-coor      y-coor      z-coor
    22626  6.22363E-01 4.39010E-01-2.45558E+01 2.84239E-01 1.20199E-01-6.14668E-01 5.84566E-02-3.09484E-03 6.50869E-01 4.85865E+01-2.15908E+01-1.72173E+01



 n o d a l   p r i n t   o u t   f o r   t i m e  s t e p   18802                              ( at time 9.3995593E+00 )

 nodal point  x-rot      y-rot       z-rot       x-rot vel   y-rot vel   z-rot vel   x-rot acc   y-rot acc   z-rot acc
    22626  2.14078E-02 3.09131E-02-6.79214E-03 1.19005E-02 1.09987E-02-2.85886E-03 4.65914E-03 2.64643E-04-3.78178E-04



 n o d a l   p r i n t   o u t   f o r   t i m e  s t e p   19002                              ( at time 9.4995493E+00 )

 nodal point  x-disp     y-disp      z-disp      x-vel       y-vel       z-vel      x-accl      y-accl      z-accl      x-coor      y-coor      z-coor
    22626  6.51217E-01 4.50988E-01-2.46141E+01 2.92873E-01 1.19021E-01-5.50357E-01 8.63487E-02-1.17798E-02 6.43172E-01 4.86154E+01-2.15788E+01-1.72756E+01



 n o d a l   p r i n t   o u t   f o r   t i m e  s t e p   19002                              ( at time 9.4995493E+00 )

 nodal point  x-rot      y-rot       z-rot       x-rot vel   y-rot vel   z-rot vel   x-rot acc   y-rot acc   z-rot acc
    22626  2.26148E-02 3.20134E-02-7.07885E-03 1.22151E-02 1.10173E-02-2.87432E-03 3.14637E-03 1.85399E-04-1.54562E-04



 n o d a l   p r i n t   o u t   f o r   t i m e  s t e p   19202                              ( at time 9.5995393E+00 )

 nodal point  x-disp     y-disp      z-disp      x-vel       y-vel       z-vel      x-accl      y-accl      z-accl      x-coor      y-coor      z-coor
    22626  6.80867E-01 4.62767E-01-2.46660E+01 3.00198E-01 1.18298E-01-4.89199E-01 7.32638E-02-7.23108E-03 6.11640E-01 4.86450E+01-2.15670E+01-1.73275E+01



 n o d a l   p r i n t   o u t   f o r   t i m e  s t e p   19202                              ( at time 9.5995393E+00 )

 nodal point  x-rot      y-rot       z-rot       x-rot vel   y-rot vel   z-rot vel   x-rot acc   y-rot acc   z-rot acc
    22626  2.38577E-02 3.31171E-02-7.36954E-03 1.26791E-02 1.10585E-02-2.91374E-03 4.64059E-03 4.11850E-04-3.94260E-04



 n o d a l   p r i n t   o u t   f o r   t i m e  s t e p   19402                              ( at time 9.6995293E+00 )

 nodal point  x-disp     y-disp      z-disp      x-vel       y-vel       z-vel      x-accl      y-accl      z-accl      x-coor      y-coor      z-coor
    22626  7.11158E-01 4.74684E-01-2.47118E+01 3.07172E-01 1.22242E-01-4.25742E-01 6.97466E-02 3.94451E-02 6.34635E-01 4.86753E+01-2.15551E+01-1.73733E+01



 n o d a l   p r i n t   o u t   f o r   t i m e  s t e p   19402                              ( at time 9.6995293E+00 )

 nodal point  x-rot      y-rot       z-rot       x-rot vel   y-rot vel   z-rot vel   x-rot acc   y-rot acc   z-rot acc
    22626  2.51470E-02 3.42211E-02-7.66307E-03 1.31063E-02 1.10235E-02-2.96039E-03 4.27265E-03-3.50017E-04-4.66579E-04



 n o d a l   p r i n t   o u t   f o r   t i m e  s t e p   19602                              ( at time 9.7995193E+00 )

 nodal point  x-disp     y-disp      z-disp      x-vel       y-vel       z-vel      x-accl      y-accl      z-accl      x-coor      y-coor      z-coor
    22626  7.42166E-01 4.86748E-01-2.47515E+01 3.13573E-01 1.19779E-01-3.67699E-01 6.40126E-02-2.46335E-02 5.80483E-01 4.87063E+01-2.15430E+01-1.74130E+01



 n o d a l   p r i n t   o u t   f o r   t i m e  s t e p   19602                              ( at time 9.7995193E+00 )

 nodal point  x-rot      y-rot       z-rot       x-rot vel   y-rot vel   z-rot vel   x-rot acc   y-rot acc   z-rot acc
    22626  2.64743E-02 3.53242E-02-7.96121E-03 1.34681E-02 1.10597E-02-2.99299E-03 3.61786E-03 3.62778E-04-3.26073E-04



 n o d a l   p r i n t   o u t   f o r   t i m e  s t e p   19802                              ( at time 9.8995093E+00 )

 nodal point  x-disp     y-disp      z-disp      x-vel       y-vel       z-vel      x-accl      y-accl      z-accl      x-coor      y-coor      z-coor
    22626  7.73786E-01 4.98598E-01-2.47854E+01 3.19438E-01 1.21793E-01-3.09640E-01 5.86578E-02 2.01445E-02 5.80647E-01 4.87380E+01-2.15312E+01-1.74469E+01



 n o d a l   p r i n t   o u t   f o r   t i m e  s t e p   19802                              ( at time 9.8995093E+00 )

 nodal point  x-rot      y-rot       z-rot       x-rot vel   y-rot vel   z-rot vel   x-rot acc   y-rot acc   z-rot acc
    22626  2.78385E-02 3.64283E-02-8.26043E-03 1.38376E-02 1.10230E-02-3.00506E-03 3.69538E-03-3.67155E-04-1.20693E-04



 n o d a l   p r i n t   o u t   f o r   t i m e  s t e p   20003                              ( at time 9.9999992E+00 )

 nodal point  x-disp     y-disp      z-disp      x-vel       y-vel       z-vel      x-accl      y-accl      z-accl      x-coor      y-coor      z-coor
[...]
    22626  2.57799E-01 1.59251E-01-6.88350E-02 1.83283E-02 8.81476E-03-6.06331E-03-1.77359E-04 7.07032E-05 3.47261E-04



 n o d a l   p r i n t   o u t   f o r   t i m e  s t e p   45205                              ( at time 2.2599738E+01 )

 nodal point  x-disp     y-disp      z-disp      x-vel       y-vel       z-vel      x-accl      y-accl      z-accl      x-coor      y-coor      z-coor
    22626  4.39695E+00 1.33873E+00-1.94676E+01 2.24953E-01-1.00902E-03 5.15053E-01 5.40008E-03-1.13735E-02-1.02297E-02 5.23611E+01-2.06911E+01-1.21291E+01



 n o d a l   p r i n t   o u t   f o r   t i m e  s t e p   45205                              ( at time 2.2599738E+01 )

 nodal point  x-rot      y-rot       z-rot       x-rot vel   y-rot vel   z-rot vel   x-rot acc   y-rot acc   z-rot acc
    22626  2.59630E-01 1.60133E-01-6.94391E-02 1.83136E-02 8.81914E-03-6.01677E-03-1.47516E-04 4.37575E-05 4.65452E-04



 n o d a l   p r i n t   o u t   f o r   t i m e  s t e p   45405                              ( at time 2.2699728E+01 )

 nodal point  x-disp     y-disp      z-disp      x-vel       y-vel       z-vel      x-accl      y-accl      z-accl      x-coor      y-coor      z-coor
    22626  4.41954E+00 1.33853E+00-1.94161E+01 2.26950E-01-3.28761E-03 5.15382E-01 1.99710E-02-2.27884E-02 3.29650E-03 5.23837E+01-2.06913E+01-1.20776E+01



 n o d a l   p r i n t   o u t   f o r   t i m e  s t e p   45405                              ( at time 2.2699728E+01 )

 nodal point  x-rot      y-rot       z-rot       x-rot vel   y-rot vel   z-rot vel   x-rot acc   y-rot acc   z-rot acc
    22626  2.61461E-01 1.61016E-01-7.00383E-02 1.82990E-02 8.83824E-03-5.96553E-03-1.45358E-04 1.91101E-04 5.12456E-04



 n o d a l   p r i n t   o u t   f o r   t i m e  s t e p   45605                              ( at time 2.2799718E+01 )

 nodal point  x-disp     y-disp      z-disp      x-vel       y-vel       z-vel      x-accl      y-accl      z-accl      x-coor      y-coor      z-coor
    22626  4.44227E+00 1.33816E+00-1.93646E+01 2.28132E-01-3.98802E-03 5.14655E-01 1.18234E-02-7.00482E-03-7.27839E-03 5.24065E+01-2.06916E+01-1.20261E+01



 n o d a l   p r i n t   o u t   f o r   t i m e  s t e p   45605                              ( at time 2.2799718E+01 )

 nodal point  x-rot      y-rot       z-rot       x-rot vel   y-rot vel   z-rot vel   x-rot acc   y-rot acc   z-rot acc
    22626  2.63290E-01 1.61899E-01-7.06334E-02 1.82869E-02 8.83320E-03-5.92672E-03-1.21511E-04-5.04357E-05 3.88113E-04



 n o d a l   p r i n t   o u t   f o r   t i m e  s t e p   45805                              ( at time 2.2899708E+01 )

 nodal point  x-disp     y-disp      z-disp      x-vel       y-vel       z-vel      x-accl      y-accl      z-accl      x-coor      y-coor      z-coor
    22626  4.46509E+00 1.33770E+00-1.93131E+01 2.28736E-01-5.08510E-03 5.14659E-01 6.03638E-03-1.09720E-02 4.41123E-05 5.24293E+01-2.06921E+01-1.19746E+01



 n o d a l   p r i n t   o u t   f o r   t i m e  s t e p   45805                              ( at time 2.2899708E+01 )

 nodal point  x-rot      y-rot       z-rot       x-rot vel   y-rot vel   z-rot vel   x-rot acc   y-rot acc   z-rot acc
    22626  2.65118E-01 1.62782E-01-7.12241E-02 1.82713E-02 8.83377E-03-5.88336E-03-1.56386E-04 5.70964E-06 4.33709E-04



 n o d a l   p r i n t   o u t   f o r   t i m e  s t e p   46005                              ( at time 2.2999698E+01 )

 nodal point  x-disp     y-disp      z-disp      x-vel       y-vel       z-vel      x-accl      y-accl      z-accl      x-coor      y-coor      z-coor
    22626  4.48802E+00 1.33712E+00-1.92617E+01 2.29907E-01-6.43424E-03 5.14204E-01 1.17168E-02-1.34926E-02-4.54944E-03 5.24522E+01-2.06927E+01-1.19232E+01



 n o d a l   p r i n t   o u t   f o r   t i m e  s t e p   46005                              ( at time 2.2999698E+01 )

 nodal point  x-rot      y-rot       z-rot       x-rot vel   y-rot vel   z-rot vel   x-rot acc   y-rot acc   z-rot acc
    22626  2.66945E-01 1.63666E-01-7.18100E-02 1.82711E-02 8.83761E-03-5.83298E-03-1.19220E-06 3.83554E-05 5.03868E-04



 n o d a l   p r i n t   o u t   f o r   t i m e  s t e p   46205                              ( at time 2.3099688E+01 )

 nodal point  x-disp     y-disp      z-disp      x-vel       y-vel       z-vel      x-accl      y-accl      z-accl      x-coor      y-coor      z-coor
    22626  4.51109E+00 1.33643E+00-1.92103E+01 2.30709E-01-7.25048E-03 5.12991E-01 8.01697E-03-8.16335E-03-1.21309E-02 5.24753E+01-2.06934E+01-1.18718E+01



 n o d a l   p r i n t   o u t   f o r   t i m e  s t e p   46205                              ( at time 2.3099688E+01 )

 nodal point  x-rot      y-rot       z-rot       x-rot vel   y-rot vel   z-rot vel   x-rot acc   y-rot acc   z-rot acc
    22626  2.68771E-01 1.64550E-01-7.23917E-02 1.82650E-02 8.84350E-03-5.80339E-03-6.15113E-05 5.89034E-05 2.95900E-04



 n o d a l   p r i n t   o u t   f o r   t i m e  s t e p   46405                              ( at time 2.3199678E+01 )

 nodal point  x-disp     y-disp      z-disp      x-vel       y-vel       z-vel      x-accl      y-accl      z-accl      x-coor      y-coor      z-coor
    22626  4.53422E+00 1.33562E+00-1.91591E+01 2.31496E-01-8.99079E-03 5.11670E-01 7.87151E-03-1.74047E-02-1.32168E-02 5.24984E+01-2.06942E+01-1.18206E+01



 n o d a l   p r i n t   o u t   f o r   t i m e  s t e p   46405                              ( at time 2.3199678E+01 )

 nodal point  x-rot      y-rot       z-rot       x-rot vel   y-rot vel   z-rot vel   x-rot acc   y-rot acc   z-rot acc
    22626  2.70598E-01 1.65434E-01-7.29702E-02 1.82757E-02 8.83910E-03-5.75957E-03 1.07559E-04-4.39811E-05 4.38274E-04



 n o d a l   p r i n t   o u t   f o r   t i m e  s t e p   46605                              ( at time 2.3299668E+01 )

 nodal point  x-disp     y-disp      z-disp      x-vel       y-vel       z-vel      x-accl      y-accl      z-accl      x-coor      y-coor      z-coor
    22626  4.55746E+00 1.33470E+00-1.91080E+01 2.33081E-01-9.43795E-03 5.09854E-01 1.58511E-02-4.47203E-03-1.81522E-02 5.25216E+01-2.06951E+01-1.17695E+01



 n o d a l   p r i n t   o u t   f o r   t i m e  s t e p   46605                              ( at time 2.3299668E+01 )

 nodal point  x-rot      y-rot       z-rot       x-rot vel   y-rot vel   z-rot vel   x-rot acc   y-rot acc   z-rot acc
    22626  2.72427E-01 1.66318E-01-7.35444E-02 1.82977E-02 8.85425E-03-5.71951E-03 2.19109E-04 1.51487E-04 4.00597E-04



 n o d a l   p r i n t   o u t   f o r   t i m e  s t e p   46805                              ( at time 2.3399658E+01 )

 nodal point  x-disp     y-disp      z-disp      x-vel       y-vel       z-vel      x-accl      y-accl      z-accl      x-coor      y-coor      z-coor
    22626  4.58081E+00 1.33374E+00-1.90571E+01 2.34132E-01-9.98602E-03 5.08469E-01 1.05066E-02-5.48122E-03-1.38552E-02 5.25450E+01-2.06961E+01-1.17186E+01



 n o d a l   p r i n t   o u t   f o r   t i m e  s t e p   46805                              ( at time 2.3399658E+01 )

 nodal point  x-rot      y-rot       z-rot       x-rot vel   y-rot vel   z-rot vel   x-rot acc   y-rot acc   z-rot acc
    22626  2.74256E-01 1.67203E-01-7.41148E-02 1.83013E-02 8.85369E-03-5.68597E-03 3.63063E-05-5.52325E-06 3.35479E-04



 n o d a l   p r i n t   o u t   f o r   t i m e  s t e p   47005                              ( at time 2.3499648E+01 )

 nodal point  x-disp     y-disp      z-disp      x-vel       y-vel       z-vel      x-accl      y-accl      z-accl      x-coor      y-coor      z-coor
    22626  4.60422E+00 1.33271E+00-1.90064E+01 2.34343E-01-1.03587E-02 5.07200E-01 2.11437E-03-3.72694E-03-1.26940E-02 5.25684E+01-2.06971E+01-1.16679E+01



 n o d a l   p r i n t   o u t   f o r   t i m e  s t e p   47005                              ( at time 2.3499648E+01 )

 nodal point  x-rot      y-rot       z-rot       x-rot vel   y-rot vel   z-rot vel   x-rot acc   y-rot acc   z-rot acc
    22626  2.76086E-01 1.68088E-01-7.46821E-02 1.83067E-02 8.85386E-03-5.66004E-03 5.36863E-05 1.65791E-06 2.59318E-04



 n o d a l   p r i n t   o u t   f o r   t i m e  s t e p   47205                              ( at time 2.3599638E+01 )

 nodal point  x-disp     y-disp      z-disp      x-vel       y-vel       z-vel      x-accl      y-accl      z-accl      x-coor      y-coor      z-coor
    22626  4.62770E+00 1.33168E+00-1.89557E+01 2.35607E-01-1.04895E-02 5.05911E-01 1.26438E-02-1.30876E-03-1.28885E-02 5.25919E+01-2.06981E+01-1.16172E+01



 n o d a l   p r i n t   o u t   f o r   t i m e  s t e p   47205                              ( at time 2.3599638E+01 )

 nodal point  x-rot      y-rot       z-rot       x-rot vel   y-rot vel   z-rot vel   x-rot acc   y-rot acc   z-rot acc
    22626  2.77917E-01 1.68973E-01-7.52461E-02 1.83113E-02 8.85228E-03-5.61837E-03 4.64036E-05-1.57877E-05 4.16683E-04



 n o d a l   p r i n t   o u t   f o r   t i m e  s t e p   47405                              ( at time 2.3699628E+01 )

 nodal point  x-disp     y-disp      z-disp      x-vel       y-vel       z-vel      x-accl      y-accl      z-accl      x-coor      y-coor      z-coor
    22626  4.65127E+00 1.33066E+00-1.89052E+01 2.36096E-01-1.00088E-02 5.04093E-01 4.88937E-03 4.80811E-03-1.81781E-02 5.26155E+01-2.06991E+01-1.15667E+01



 n o d a l   p r i n t   o u t   f o r   t i m e  s t e p   47405                              ( at time 2.3699628E+01 )

 nodal point  x-rot      y-rot       z-rot       x-rot vel   y-rot vel   z-rot vel   x-rot acc   y-rot acc   z-rot acc
    22626  2.79749E-01 1.69859E-01-7.58065E-02 1.83275E-02 8.85031E-03-5.59253E-03 1.62177E-04-1.96900E-05 2.58489E-04



 n o d a l   p r i n t   o u t   f o r   t i m e  s t e p   47605                              ( at time 2.3799618E+01 )

 nodal point  x-disp     y-disp      z-disp      x-vel       y-vel       z-vel      x-accl      y-accl      z-accl      x-coor      y-coor      z-coor
    22626  4.67489E+00 1.32968E+00-1.88549E+01 2.36388E-01-9.72027E-03 5.01947E-01 2.92229E-03 2.88541E-03-2.14630E-02 5.26391E+01-2.07001E+01-1.15164E+01



 n o d a l   p r i n t   o u t   f o r   t i m e  s t e p   47605                              ( at time 2.3799618E+01 )

 nodal point  x-rot      y-rot       z-rot       x-rot vel   y-rot vel   z-rot vel   x-rot acc   y-rot acc   z-rot acc
    22626  2.81582E-01 1.70743E-01-7.63645E-02 1.83415E-02 8.84267E-03-5.56494E-03 1.40105E-04-7.64514E-05 2.75893E-04



 n o d a l   p r i n t   o u t   f o r   t i m e  s t e p   47805                              ( at time 2.3899608E+01 )

 nodal point  x-disp     y-disp      z-disp      x-vel       y-vel       z-vel      x-accl      y-accl      z-accl      x-coor      y-coor      z-coor
    22626  4.69856E+00 1.32873E+00-1.88048E+01 2.36773E-01-9.05910E-03 4.99474E-01 3.84545E-03 6.61225E-03-2.47367E-02 5.26627E+01-2.07011E+01-1.14663E+01



 n o d a l   p r i n t   o u t   f o r   t i m e  s t e p   47805                              ( at time 2.3899608E+01 )

 nodal point  x-rot      y-rot       z-rot       x-rot vel   y-rot vel   z-rot vel   x-rot acc   y-rot acc   z-rot acc
    22626  2.83417E-01 1.71628E-01-7.69199E-02 1.83680E-02 8.84291E-03-5.54499E-03 2.65302E-04 2.46823E-06 1.99559E-04



 n o d a l   p r i n t   o u t   f o r   t i m e  s t e p   48005                              ( at time 2.3999598E+01 )

 nodal point  x-disp     y-disp      z-disp      x-vel       y-vel       z-vel      x-accl      y-accl      z-accl      x-coor      y-coor      z-coor
    22626  4.72230E+00 1.32786E+00-1.87550E+01 2.37486E-01-8.07574E-03 4.97786E-01 7.13278E-03 9.83466E-03-1.68765E-02 5.26865E+01-2.07019E+01-1.14165E+01



 n o d a l   p r i n t   o u t   f o r   t i m e  s t e p   48005                              ( at time 2.3999598E+01 )

 nodal point  x-rot      y-rot       z-rot       x-rot vel   y-rot vel   z-rot vel   x-rot acc   y-rot acc   z-rot acc
    22626  2.85255E-01 1.72512E-01-7.74729E-02 1.83851E-02 8.84784E-03-5.51790E-03 1.70712E-04 4.93097E-05 2.70845E-04



 n o d a l   p r i n t   o u t   f o r   t i m e  s t e p   48205                              ( at time 2.4099588E+01 )

 nodal point  x-disp     y-disp      z-disp      x-vel       y-vel       z-vel      x-accl      y-accl      z-accl      x-coor      y-coor      z-coor
    22626  4.74607E+00 1.32712E+00-1.87053E+01 2.37446E-01-6.57926E-03 4.95060E-01-4.00878E-04 1.49662E-02-2.72710E-02 5.27102E+01-2.07027E+01-1.13668E+01



 n o d a l   p r i n t   o u t   f o r   t i m e  s t e p   48205                              ( at time 2.4099588E+01 )

 nodal point  x-rot      y-rot       z-rot       x-rot vel   y-rot vel   z-rot vel   x-rot acc   y-rot acc   z-rot acc
    22626  2.87094E-01 1.73396E-01-7.80236E-02 1.83999E-02 8.84347E-03-5.50161E-03 1.47498E-04-4.37482E-05 1.62931E-04



 n o d a l   p r i n t   o u t   f o r   t i m e  s t e p   48405                              ( at time 2.4199578E+01 )

 nodal point  x-disp     y-disp      z-disp      x-vel       y-vel       z-vel      x-accl      y-accl      z-accl      x-coor      y-coor      z-coor
    22626  4.76982E+00 1.32650E+00-1.86559E+01 2.37714E-01-5.62786E-03 4.93423E-01 2.68310E-03 9.51511E-03-1.63719E-02 5.27340E+01-2.07033E+01-1.13174E+01



 n o d a l   p r i n t   o u t   f o r   t i m e  s t e p   48405                              ( at time 2.4199578E+01 )

 nodal point  x-rot      y-rot       z-rot       x-rot vel   y-rot vel   z-rot vel   x-rot acc   y-rot acc   z-rot acc
    22626  2.88935E-01 1.74280E-01-7.85732E-02 1.84169E-02 8.83323E-03-5.48715E-03 1.70525E-04-1.02438E-04 1.44590E-04



 n o d a l   p r i n t   o u t   f o r   t i m e  s t e p   48605                              ( at time 2.4299568E+01 )

 nodal point  x-disp     y-disp      z-disp      x-vel       y-vel       z-vel      x-accl      y-accl      z-accl      x-coor      y-coor      z-coor
    22626  4.79359E+00 1.32603E+00-1.86067E+01 2.37951E-01-3.93014E-03 4.90440E-01 2.36637E-03 1.69787E-02-2.98253E-02 5.27578E+01-2.07038E+01-1.12682E+01



 n o d a l   p r i n t   o u t   f o r   t i m e  s t e p   48605                              ( at time 2.4299568E+01 )

 nodal point  x-rot      y-rot       z-rot       x-rot vel   y-rot vel   z-rot vel   x-rot acc   y-rot acc   z-rot acc
    22626  2.90777E-01 1.75163E-01-7.91207E-02 1.84332E-02 8.82903E-03-5.46014E-03 1.62642E-04-4.20251E-05 2.70160E-04



 n o d a l   p r i n t   o u t   f o r   t i m e  s t e p   48805                              ( at time 2.4399558E+01 )

 nodal point  x-disp     y-disp      z-disp      x-vel       y-vel       z-vel      x-accl      y-accl      z-accl      x-coor      y-coor      z-coor
    22626  4.81739E+00 1.32570E+00-1.85579E+01 2.38328E-01-3.04613E-03 4.86732E-01 3.77108E-03 8.84092E-03-3.70909E-02 5.27816E+01-2.07041E+01-1.12194E+01



 n o d a l   p r i n t   o u t   f o r   t i m e  s t e p   48805                              ( at time 2.4399558E+01 )

 nodal point  x-rot      y-rot       z-rot       x-rot vel   y-rot vel   z-rot vel   x-rot acc   y-rot acc   z-rot acc
    22626  2.92619E-01 1.76045E-01-7.96660E-02 1.84248E-02 8.81440E-03-5.44070E-03-8.39385E-05-1.46231E-04 1.94478E-04



 n o d a l   p r i n t   o u t   f o r   t i m e  s t e p   49006                              ( at time 2.4500048E+01 )

 nodal point  x-disp     y-disp      z-disp      x-vel       y-vel       z-vel      x-accl      y-accl      z-accl      x-coor      y-coor      z-coor
    22626  4.84137E+00 1.32542E+00-1.85092E+01 2.38770E-01-2.44018E-03 4.81660E-01 4.40234E-03 6.02998E-03-5.04713E-02 5.28055E+01-2.07044E+01-1.11707E+01



 n o d a l   p r i n t   o u t   f o r   t i m e  s t e p   49006                              ( at time 2.4500048E+01 )

 nodal point  x-rot      y-rot       z-rot       x-rot vel   y-rot vel   z-rot vel   x-rot acc   y-rot acc   z-rot acc
    22626  2.94470E-01 1.76930E-01-8.02119E-02 1.83939E-02 8.78669E-03-5.42274E-03-3.07455E-04-2.75749E-04 1.78695E-04



 n o d a l   p r i n t   o u t   f o r   t i m e  s t e p   49206                              ( at time 2.4600038E+01 )

 nodal point  x-disp     y-disp      z-disp      x-vel       y-vel       z-vel      x-accl      y-accl      z-accl      x-coor      y-coor      z-coor
    22626  4.86527E+00 1.32515E+00-1.84613E+01 2.39388E-01-3.26832E-03 4.76120E-01 6.18157E-03-8.28212E-03-5.53995E-02 5.28295E+01-2.07046E+01-1.11228E+01



 n o d a l   p r i n t   o u t   f o r   t i m e  s t e p   49206                              ( at time 2.4600038E+01 )

 nodal point  x-rot      y-rot       z-rot       x-rot vel   y-rot vel   z-rot vel   x-rot acc   y-rot acc   z-rot acc
    22626  2.96307E-01 1.77806E-01-8.07525E-02 1.83480E-02 8.74147E-03-5.39061E-03-4.59110E-04-4.52310E-04 3.21340E-04



 n o d a l   p r i n t   o u t   f o r   t i m e  s t e p   49406                              ( at time 2.4700028E+01 )

 nodal point  x-disp     y-disp      z-disp      x-vel       y-vel       z-vel      x-accl      y-accl      z-accl      x-coor      y-coor      z-coor
    22626  4.88928E+00 1.32478E+00-1.84140E+01 2.40297E-01-3.95126E-03 4.68827E-01 9.09086E-03-6.83011E-03-7.29424E-02 5.28535E+01-2.07050E+01-1.10755E+01



 n o d a l   p r i n t   o u t   f o r   t i m e  s t e p   49406                              ( at time 2.4700028E+01 )

 nodal point  x-rot      y-rot       z-rot       x-rot vel   y-rot vel   z-rot vel   x-rot acc   y-rot acc   z-rot acc
    22626  2.98138E-01 1.78678E-01-8.12895E-02 1.82745E-02 8.69683E-03-5.35780E-03-7.35249E-04-4.46414E-04 3.28095E-04



 n o d a l   p r i n t   o u t   f o r   t i m e  s t e p   49606                              ( at time 2.4800018E+01 )

 nodal point  x-disp     y-disp      z-disp      x-vel       y-vel       z-vel      x-accl      y-accl      z-accl      x-coor      y-coor      z-coor
    22626  4.91334E+00 1.32427E+00-1.83676E+01 2.40875E-01-6.02353E-03 4.59591E-01 5.77652E-03-2.07247E-02-9.23676E-02 5.28775E+01-2.07055E+01-1.10291E+01



 n o d a l   p r i n t   o u t   f o r   t i m e  s t e p   49606                              ( at time 2.4800018E+01 )

 nodal point  x-rot      y-rot       z-rot       x-rot vel   y-rot vel   z-rot vel   x-rot acc   y-rot acc   z-rot acc
    22626  2.99960E-01 1.79545E-01-8.18236E-02 1.81802E-02 8.63417E-03-5.33150E-03-9.42529E-04-6.26688E-04 2.63025E-04



 n o d a l   p r i n t   o u t   f o r   t i m e  s t e p   49806                              ( at time 2.4900008E+01 )

 nodal point  x-disp     y-disp      z-disp      x-vel       y-vel       z-vel      x-accl      y-accl      z-accl      x-coor      y-coor      z-coor
    22626  4.93749E+00 1.32352E+00-1.83221E+01 2.41811E-01-8.96668E-03 4.50348E-01 9.35986E-03-2.94347E-02-9.24380E-02 5.29017E+01-2.07063E+01-1.09836E+01



 n o d a l   p r i n t   o u t   f o r   t i m e  s t e p   49806                              ( at time 2.4900008E+01 )

 nodal point  x-rot      y-rot       z-rot       x-rot vel   y-rot vel   z-rot vel   x-rot acc   y-rot acc   z-rot acc
    22626  3.01773E-01 1.80405E-01-8.23543E-02 1.80720E-02 8.56111E-03-5.28757E-03-1.08263E-03-7.30685E-04 4.39353E-04



 n o d a l   p r i n t   o u t   f o r   t i m e  s t e p   50006                              ( at time 2.4999998E+01 )

 nodal point  x-disp     y-disp      z-disp      x-vel       y-vel       z-vel      x-accl      y-accl      z-accl      x-coor      y-coor      z-coor
    22626  4.96176E+00 1.32246E+00-1.82777E+01 2.43537E-01-1.20569E-02 4.39239E-01 1.72573E-02-3.09052E-02-1.11099E-01 5.29259E+01-2.07073E+01-1.09392E+01



 n o d a l   p r i n t   o u t   f o r   t i m e  s t e p   50006                              ( at time 2.4999998E+01 )

 nodal point  x-rot      y-rot       z-rot       x-rot vel   y-rot vel   z-rot vel   x-rot acc   y-rot acc   z-rot acc
    22626  3.03574E-01 1.81257E-01-8.28803E-02 1.79548E-02 8.48944E-03-5.23903E-03-1.17212E-03-7.16784E-04 4.85431E-04
