 LSTC 50th% Full_FE H-III Dummy (Beta Version, February 17, 2019)        
                    ls-dyna smp s R16 R16.0_619_d222963 date 03/18/2025

{BEGIN LEGEND}
 Entity #        Title
    22626                                                                                     
{END LEGEND}




 n o d a l   p r i n t   o u t   f o r   t i m e  s t e p       1                              ( at time 0.0000000E+00 )

 nodal point  x-disp     y-disp      z-disp      x-vel       y-vel       z-vel      x-accl      y-accl      z-accl      x-coor      y-coor      z-coor
    22626  0.00000E+00 0.00000E+00 0.00000E+00 0.00000E+00 0.00000E+00 0.00000E+00 0.00000E+00 0.00000E+00 0.00000E+00 4.65938E+00-2.81908E+01-4.49817E+01



 n o d a l   p r i n t   o u t   f o r   t i m e  s t e p       1                              ( at time 0.0000000E+00 )

 nodal point  x-rot      y-rot       z-rot       x-rot vel   y-rot vel   z-rot vel   x-rot acc   y-rot acc   z-rot acc
    22626  0.00000E+00 0.00000E+00 0.00000E+00 0.00000E+00 0.00000E+00 0.00000E+00 0.00000E+00 0.00000E+00 0.00000E+00



 n o d a l   p r i n t   o u t   f o r   t i m e  s t e p     201                              ( at time 9.9989993E-02 )

 nodal point  x-disp     y-disp      z-disp      x-vel       y-vel       z-vel      x-accl      y-accl      z-accl      x-coor      y-coor      z-coor
    22626  2.73575E-07 1.73669E-06-5.34278E-05 4.19752E-05 2.55596E-04-1.46819E-03 4.19794E-04 2.55621E-03-1.46834E-02 4.65938E+00-2.81908E+01-4.49818E+01



 n o d a l   p r i n t   o u t   f o r   t i m e  s t e p     201                              ( at time 9.9989993E-02 )

 nodal point  x-rot      y-rot       z-rot       x-rot vel   y-rot vel   z-rot vel   x-rot acc   y-rot acc   z-rot acc
    22626 -5.98980E-08-8.38467E-09-5.45921E-09-5.86955E-06-9.69950E-07-9.27110E-07-5.87014E-05-9.70047E-06-9.27203E-06



 n o d a l   p r i n t   o u t   f o r   t i m e  s t e p     401                              ( at time 1.9997999E-01 )

 nodal point  x-disp     y-disp      z-disp      x-vel       y-vel       z-vel      x-accl      y-accl      z-accl      x-coor      y-coor      z-coor
    22626  1.73079E-05 3.61740E-04-6.67586E-04 3.01017E-05 7.81173E-03-1.21554E-02-1.18746E-04 7.55689E-02-1.06882E-01 4.65939E+00-2.81905E+01-4.49824E+01



 n o d a l   p r i n t   o u t   f o r   t i m e  s t e p     401                              ( at time 1.9997999E-01 )

 nodal point  x-rot      y-rot       z-rot       x-rot vel   y-rot vel   z-rot vel   x-rot acc   y-rot acc   z-rot acc
    22626 -2.81996E-06-3.37134E-07-3.34494E-07-3.94356E-05-1.75360E-06-2.26997E-06-3.35695E-04-7.83732E-06-1.34300E-05



 n o d a l   p r i n t   o u t   f o r   t i m e  s t e p     601                              ( at time 2.9996998E-01 )

 nodal point  x-disp     y-disp      z-disp      x-vel       y-vel       z-vel      x-accl      y-accl      z-accl      x-coor      y-coor      z-coor
    22626  2.73761E-05 1.24005E-03-2.33842E-03 4.22162E-04 8.44765E-03-1.92554E-02 3.92099E-03 6.35978E-03-7.10072E-02 4.65940E+00-2.81896E+01-4.49841E+01



 n o d a l   p r i n t   o u t   f o r   t i m e  s t e p     601                              ( at time 2.9996998E-01 )

 nodal point  x-rot      y-rot       z-rot       x-rot vel   y-rot vel   z-rot vel   x-rot acc   y-rot acc   z-rot acc
    22626 -5.38394E-06-3.90347E-07-6.42218E-07-1.54346E-05-5.44947E-06-6.71434E-06 2.40035E-04-3.69624E-05-4.44481E-05



 n o d a l   p r i n t   o u t   f o r   t i m e  s t e p     801                              ( at time 3.9995997E-01 )

 nodal point  x-disp     y-disp      z-disp      x-vel       y-vel       z-vel      x-accl      y-accl      z-accl      x-coor      y-coor      z-coor
    22626  2.60337E-05 2.16244E-03-4.28287E-03-3.15484E-04 1.07372E-02-2.10886E-02-7.37719E-03 2.28978E-02-1.83337E-02 4.65940E+00-2.81887E+01-4.49860E+01



 n o d a l   p r i n t   o u t   f o r   t i m e  s t e p     801                              ( at time 3.9995997E-01 )

 nodal point  x-rot      y-rot       z-rot       x-rot vel   y-rot vel   z-rot vel   x-rot acc   y-rot acc   z-rot acc
    22626 -7.61679E-06-1.25018E-06-9.80981E-07-4.49328E-05-6.20932E-06-1.42797E-06-2.95012E-04-7.59932E-06 5.28690E-05



 n o d a l   p r i n t   o u t   f o r   t i m e  s t e p    1001                              ( at time 4.9994997E-01 )

 nodal point  x-disp     y-disp      z-disp      x-vel       y-vel       z-vel      x-accl      y-accl      z-accl      x-coor      y-coor      z-coor
    22626  3.68181E-06 3.43656E-03-6.74478E-03-2.38769E-04 1.41492E-02-2.87084E-02 7.67226E-04 3.41237E-02-7.62061E-02 4.65938E+00-2.81874E+01-4.49885E+01



 n o d a l   p r i n t   o u t   f o r   t i m e  s t e p    1001                              ( at time 4.9994997E-01 )

 nodal point  x-rot      y-rot       z-rot       x-rot vel   y-rot vel   z-rot vel   x-rot acc   y-rot acc   z-rot acc
    22626 -1.35607E-05-1.16519E-06-9.49569E-07-8.42701E-05 3.23323E-06 4.07910E-06-3.93412E-04 9.44350E-05 5.50762E-05



 n o d a l   p r i n t   o u t   f o r   t i m e  s t e p    1201                              ( at time 5.9993996E-01 )

 nodal point  x-disp     y-disp      z-disp      x-vel       y-vel       z-vel      x-accl      y-accl      z-accl      x-coor      y-coor      z-coor
    22626 -8.70084E-07 5.01226E-03-9.71613E-03 4.53778E-05 1.66995E-02-3.09924E-02 2.84175E-03 2.55058E-02-2.28426E-02 4.65937E+00-2.81858E+01-4.49914E+01



 n o d a l   p r i n t   o u t   f o r   t i m e  s t e p    1201                              ( at time 5.9993996E-01 )

 nodal point  x-rot      y-rot       z-rot       x-rot vel   y-rot vel   z-rot vel   x-rot acc   y-rot acc   z-rot acc
    22626 -2.02873E-05-8.86978E-07-9.57874E-07-5.91302E-05 3.86156E-06-2.01466E-06 2.51424E-04 6.28398E-06-6.09437E-05



 n o d a l   p r i n t   o u t   f o r   t i m e  s t e p    1401                              ( at time 6.9992995E-01 )

 nodal point  x-disp     y-disp      z-disp      x-vel       y-vel       z-vel      x-accl      y-accl      z-accl      x-coor      y-coor      z-coor
    22626 -5.10082E-05 6.85043E-03-1.31711E-02-4.89073E-04 1.96591E-02-3.89666E-02-5.34504E-03 2.95984E-02-7.97499E-02 4.65932E+00-2.81840E+01-4.49949E+01



 n o d a l   p r i n t   o u t   f o r   t i m e  s t e p    1401                              ( at time 6.9992995E-01 )

 nodal point  x-rot      y-rot       z-rot       x-rot vel   y-rot vel   z-rot vel   x-rot acc   y-rot acc   z-rot acc
    22626 -2.62096E-05-9.01136E-07-6.32130E-07-7.09151E-05 2.82042E-07 3.88666E-06-1.17861E-04-3.57988E-05 5.90191E-05



 n o d a l   p r i n t   o u t   f o r   t i m e  s t e p    1601                              ( at time 7.9991994E-01 )

 nodal point  x-disp     y-disp      z-disp      x-vel       y-vel       z-vel      x-accl      y-accl      z-accl      x-coor      y-coor      z-coor
    22626 -8.02608E-05 8.98677E-03-1.74642E-02-4.98726E-04 2.21618E-02-4.51203E-02-9.65430E-05 2.50293E-02-6.15429E-02 4.65929E+00-2.81818E+01-4.49992E+01



 n o d a l   p r i n t   o u t   f o r   t i m e  s t e p    1601                              ( at time 7.9991994E-01 )

 nodal point  x-rot      y-rot       z-rot       x-rot vel   y-rot vel   z-rot vel   x-rot acc   y-rot acc   z-rot acc
    22626 -3.43986E-05-8.77866E-07-5.14727E-07-9.19911E-05-4.83265E-06 1.57139E-06-2.10781E-04-5.11520E-05-2.31550E-05



 n o d a l   p r i n t   o u t   f o r   t i m e  s t e p    1801                              ( at time 8.9990994E-01 )

 nodal point  x-disp     y-disp      z-disp      x-vel       y-vel       z-vel      x-accl      y-accl      z-accl      x-coor      y-coor      z-coor
    22626 -1.16861E-04 1.12542E-02-2.19906E-02-2.90915E-04 2.40457E-02-4.55894E-02 2.07832E-03 1.88415E-02-4.69113E-03 4.65926E+00-2.81796E+01-4.50037E+01



 n o d a l   p r i n t   o u t   f o r   t i m e  s t e p    1801                              ( at time 8.9990994E-01 )

 nodal point  x-rot      y-rot       z-rot       x-rot vel   y-rot vel   z-rot vel   x-rot acc   y-rot acc   z-rot acc
    22626 -4.28189E-05-9.58226E-07-5.02067E-07-8.26029E-05 1.93179E-06-6.66450E-07 9.38916E-05 6.76512E-05-2.23806E-05



 n o d a l   p r i n t   o u t   f o r   t i m e  s t e p    2001                              ( at time 9.9989993E-01 )

 nodal point  x-disp     y-disp      z-disp      x-vel       y-vel       z-vel      x-accl      y-accl      z-accl      x-coor      y-coor      z-coor
    22626 -1.52032E-04 1.37912E-02-2.67304E-02-3.38089E-05 2.64996E-02-5.00347E-02 2.57132E-03 2.45410E-02-4.44582E-02 4.65922E+00-2.81770E+01-4.50084E+01



 n o d a l   p r i n t   o u t   f o r   t i m e  s t e p    2001                              ( at time 9.9989993E-01 )

 nodal point  x-rot      y-rot       z-rot       x-rot vel   y-rot vel   z-rot vel   x-rot acc   y-rot acc   z-rot acc
    22626 -5.18495E-05-9.08538E-07-4.37597E-07-1.06112E-04 1.24158E-06-3.02581E-06-2.35113E-04-6.90284E-06-2.35960E-05



 n o d a l   p r i n t   o u t   f o r   t i m e  s t e p    2201                              ( at time 1.0998899E+00 )

 nodal point  x-disp     y-disp      z-disp      x-vel       y-vel       z-vel      x-accl      y-accl      z-accl      x-coor      y-coor      z-coor
    22626 -1.59765E-04 1.65322E-02-3.20558E-02-3.43915E-04 2.88813E-02-5.60817E-02-3.10137E-03 2.38201E-02-6.04755E-02 4.65922E+00-2.81743E+01-4.50138E+01



 n o d a l   p r i n t   o u t   f o r   t i m e  s t e p    2201                              ( at time 1.0998899E+00 )

 nodal point  x-rot      y-rot       z-rot       x-rot vel   y-rot vel   z-rot vel   x-rot acc   y-rot acc   z-rot acc
    22626 -6.29445E-05-1.00456E-06-7.49479E-07-1.03751E-04-7.59107E-06-2.02466E-06 2.36144E-05-8.83354E-05 1.00126E-05



 n o d a l   p r i n t   o u t   f o r   t i m e  s t e p    2401                              ( at time 1.1998799E+00 )

 nodal point  x-disp     y-disp      z-disp      x-vel       y-vel       z-vel      x-accl      y-accl      z-accl      x-coor      y-coor      z-coor
    22626 -1.89757E-04 1.94752E-02-3.79328E-02-1.94215E-04 3.02238E-02-6.12070E-02 1.49714E-03 1.34264E-02-5.12582E-02 4.65919E+00-2.81714E+01-4.50197E+01



 n o d a l   p r i n t   o u t   f o r   t i m e  s t e p    2401                              ( at time 1.1998799E+00 )

 nodal point  x-rot      y-rot       z-rot       x-rot vel   y-rot vel   z-rot vel   x-rot acc   y-rot acc   z-rot acc
    22626 -7.29519E-05-1.61468E-06-9.90031E-07-1.01206E-04-7.18472E-06-2.97756E-06 2.54442E-05 4.06387E-06-9.52999E-06



 n o d a l   p r i n t   o u t   f o r   t i m e  s t e p    2601                              ( at time 1.2998699E+00 )

 nodal point  x-disp     y-disp      z-disp      x-vel       y-vel       z-vel      x-accl      y-accl      z-accl      x-coor      y-coor      z-coor
    22626 -2.23833E-04 2.26249E-02-4.42079E-02-2.47989E-04 3.25965E-02-6.40509E-02-5.37794E-04 2.37292E-02-2.84422E-02 4.65915E+00-2.81682E+01-4.50259E+01



 n o d a l   p r i n t   o u t   f o r   t i m e  s t e p    2601                              ( at time 1.2998699E+00 )

 nodal point  x-rot      y-rot       z-rot       x-rot vel   y-rot vel   z-rot vel   x-rot acc   y-rot acc   z-rot acc
    22626 -8.39941E-05-2.17145E-06-1.24572E-06-1.29298E-04-8.17976E-09-1.52511E-06-2.80946E-04 7.17726E-05 1.45259E-05



 n o d a l   p r i n t   o u t   f o r   t i m e  s t e p    2801                              ( at time 1.3998599E+00 )

 nodal point  x-disp     y-disp      z-disp      x-vel       y-vel       z-vel      x-accl      y-accl      z-accl      x-coor      y-coor      z-coor
    22626 -2.51463E-04 2.59924E-02-5.07122E-02-4.47910E-04 3.45140E-02-6.66747E-02-1.99940E-03 1.91762E-02-2.62401E-02 4.65912E+00-2.81648E+01-4.50324E+01



 n o d a l   p r i n t   o u t   f o r   t i m e  s t e p    2801                              ( at time 1.3998599E+00 )

 nodal point  x-rot      y-rot       z-rot       x-rot vel   y-rot vel   z-rot vel   x-rot acc   y-rot acc   z-rot acc
    22626 -9.73980E-05-2.01170E-06-1.34391E-06-1.36970E-04-1.90703E-07 1.74479E-06-7.67213E-05-1.82542E-06 3.27023E-05



 n o d a l   p r i n t   o u t   f o r   t i m e  s t e p    3001                              ( at time 1.4998499E+00 )

 nodal point  x-disp     y-disp      z-disp      x-vel       y-vel       z-vel      x-accl      y-accl      z-accl      x-coor      y-coor      z-coor
    22626 -2.96301E-04 2.95912E-02-5.77244E-02-4.47481E-04 3.72836E-02-7.39880E-02 4.28684E-06 2.76995E-02-7.31401E-02 4.65908E+00-2.81612E+01-4.50394E+01



 n o d a l   p r i n t   o u t   f o r   t i m e  s t e p    3001                              ( at time 1.4998499E+00 )

 nodal point  x-rot      y-rot       z-rot       x-rot vel   y-rot vel   z-rot vel   x-rot acc   y-rot acc   z-rot acc
    22626 -1.10707E-04-2.03191E-06-1.26972E-06-1.28616E-04-1.04867E-06-1.75378E-06 8.35467E-05-8.58056E-06-3.49892E-05



 n o d a l   p r i n t   o u t   f o r   t i m e  s t e p    3201                              ( at time 1.5998399E+00 )

 nodal point  x-disp     y-disp      z-disp      x-vel       y-vel       z-vel      x-accl      y-accl      z-accl      x-coor      y-coor      z-coor
    22626 -3.60041E-04 3.34892E-02-6.54466E-02-5.85863E-04 4.05416E-02-7.97095E-02-1.38396E-03 3.25833E-02-5.72207E-02 4.65902E+00-2.81573E+01-4.50472E+01



 n o d a l   p r i n t   o u t   f o r   t i m e  s t e p    3201                              ( at time 1.5998399E+00 )

 nodal point  x-rot      y-rot       z-rot       x-rot vel   y-rot vel   z-rot vel   x-rot acc   y-rot acc   z-rot acc
    22626 -1.23310E-04-2.14934E-06-1.09747E-06-1.34646E-04-2.90879E-06 3.22286E-06-6.03102E-05-1.86030E-05 4.97714E-05



 n o d a l   p r i n t   o u t   f o r   t i m e  s t e p    3401                              ( at time 1.6998299E+00 )

 nodal point  x-disp     y-disp      z-disp      x-vel       y-vel       z-vel      x-accl      y-accl      z-accl      x-coor      y-coor      z-coor
    22626 -4.21669E-04 3.76419E-02-7.35826E-02-7.25205E-04 4.22420E-02-8.25915E-02-1.39355E-03 1.70056E-02-2.88236E-02 4.65895E+00-2.81532E+01-4.50553E+01



 n o d a l   p r i n t   o u t   f o r   t i m e  s t e p    3401                              ( at time 1.6998299E+00 )

 nodal point  x-rot      y-rot       z-rot       x-rot vel   y-rot vel   z-rot vel   x-rot acc   y-rot acc   z-rot acc
    22626 -1.37608E-04-2.15277E-06-9.08208E-07-1.47660E-04 1.56805E-06 3.97584E-06-1.30154E-04 4.47728E-05 7.53049E-06



 n o d a l   p r i n t   o u t   f o r   t i m e  s t e p    3601                              ( at time 1.7998199E+00 )

 nodal point  x-disp     y-disp      z-disp      x-vel       y-vel       z-vel      x-accl      y-accl      z-accl      x-coor      y-coor      z-coor
    22626 -4.84885E-04 4.19005E-02-8.19601E-02-5.09785E-04 4.32822E-02-8.48708E-02 2.15442E-03 1.04027E-02-2.27950E-02 4.65889E+00-2.81489E+01-4.50637E+01



 n o d a l   p r i n t   o u t   f o r   t i m e  s t e p    3601                              ( at time 1.7998199E+00 )

 nodal point  x-rot      y-rot       z-rot       x-rot vel   y-rot vel   z-rot vel   x-rot acc   y-rot acc   z-rot acc
    22626 -1.52818E-04-2.06369E-06-7.75140E-07-1.49799E-04 1.50676E-06-1.39347E-06-2.13852E-05-6.12961E-07-5.36985E-05



 n o d a l   p r i n t   o u t   f o r   t i m e  s t e p    3801                              ( at time 1.8998099E+00 )

 nodal point  x-disp     y-disp      z-disp      x-vel       y-vel       z-vel      x-accl      y-accl      z-accl      x-coor      y-coor      z-coor
    22626 -5.44048E-04 4.63779E-02-9.06362E-02-5.22367E-04 4.60825E-02-8.88744E-02-1.25832E-04 2.80056E-02-4.00399E-02 4.65883E+00-2.81445E+01-4.50724E+01



 n o d a l   p r i n t   o u t   f o r   t i m e  s t e p    3801                              ( at time 1.8998099E+00 )

 nodal point  x-rot      y-rot       z-rot       x-rot vel   y-rot vel   z-rot vel   x-rot acc   y-rot acc   z-rot acc
    22626 -1.67670E-04-1.85391E-06-6.46213E-07-1.49824E-04-1.63186E-06-5.24382E-07-2.57740E-07-3.13893E-05 8.69174E-06



 n o d a l   p r i n t   o u t   f o r   t i m e  s t e p    4001                              ( at time 1.9997999E+00 )

 nodal point  x-disp     y-disp      z-disp      x-vel       y-vel       z-vel      x-accl      y-accl      z-accl      x-coor      y-coor      z-coor
    22626 -5.94857E-04 5.10276E-02-9.97459E-02-5.45961E-04 4.71701E-02-9.31112E-02-2.35961E-04 1.08776E-02-4.23720E-02 4.65878E+00-2.81398E+01-4.50815E+01



 n o d a l   p r i n t   o u t   f o r   t i m e  s t e p    4001                              ( at time 1.9997999E+00 )

 nodal point  x-rot      y-rot       z-rot       x-rot vel   y-rot vel   z-rot vel   x-rot acc   y-rot acc   z-rot acc
    22626 -1.82761E-04-2.08911E-06-6.97194E-07-1.56024E-04-4.61597E-06-1.76880E-07-6.20043E-05-2.98441E-05 3.47537E-06



 n o d a l   p r i n t   o u t   f o r   t i m e  s t e p    4201                              ( at time 2.0997899E+00 )

 nodal point  x-disp     y-disp      z-disp      x-vel       y-vel       z-vel      x-accl      y-accl      z-accl      x-coor      y-coor      z-coor
    22626 -6.49032E-04 5.57842E-02-1.09163E-01-5.57324E-04 4.81950E-02-9.52995E-02-1.13645E-04 1.02498E-02-2.18860E-02 4.65873E+00-2.81350E+01-4.50909E+01



 n o d a l   p r i n t   o u t   f o r   t i m e  s t e p    4201                              ( at time 2.0997899E+00 )

 nodal point  x-rot      y-rot       z-rot       x-rot vel   y-rot vel   z-rot vel   x-rot acc   y-rot acc   z-rot acc
    22626 -1.97939E-04-2.47980E-06-8.59083E-07-1.50003E-04-1.58083E-06 2.01451E-06 6.02165E-05 3.03544E-05 2.19160E-05



 n o d a l   p r i n t   o u t   f o r   t i m e  s t e p    4401                              ( at time 2.1997798E+00 )

 nodal point  x-disp     y-disp      z-disp      x-vel       y-vel       z-vel      x-accl      y-accl      z-accl      x-coor      y-coor      z-coor
    22626 -7.07708E-04 6.06679E-02-1.18762E-01-4.98674E-04 4.91631E-02-9.67384E-02 5.86556E-04 9.68230E-03-1.43899E-02 4.65867E+00-2.81302E+01-4.51005E+01



 n o d a l   p r i n t   o u t   f o r   t i m e  s t e p    4401                              ( at time 2.1997798E+00 )

 nodal point  x-rot      y-rot       z-rot       x-rot vel   y-rot vel   z-rot vel   x-rot acc   y-rot acc   z-rot acc
    22626 -2.13311E-04-2.58558E-06-8.55829E-07-1.59251E-04-1.54785E-06-1.02356E-06-9.24839E-05 3.29827E-07-3.03838E-05



 n o d a l   p r i n t   o u t   f o r   t i m e  s t e p    4601                              ( at time 2.2997698E+00 )

 nodal point  x-disp     y-disp      z-disp      x-vel       y-vel       z-vel      x-accl      y-accl      z-accl      x-coor      y-coor      z-coor
    22626 -7.62754E-04 6.56150E-02-1.28511E-01-6.45852E-04 5.01861E-02-9.87428E-02-1.47193E-03 1.02310E-02-2.00463E-02 4.65861E+00-2.81252E+01-4.51102E+01



 n o d a l   p r i n t   o u t   f o r   t i m e  s t e p    4601                              ( at time 2.2997698E+00 )

 nodal point  x-rot      y-rot       z-rot       x-rot vel   y-rot vel   z-rot vel   x-rot acc   y-rot acc   z-rot acc
    22626 -2.29825E-04-2.51842E-06-8.64117E-07-1.61358E-04 9.32911E-07-1.00659E-06-2.10760E-05 2.48101E-05 1.69708E-07



 n o d a l   p r i n t   o u t   f o r   t i m e  s t e p    4801                              ( at time 2.3997598E+00 )

 nodal point  x-disp     y-disp      z-disp      x-vel       y-vel       z-vel      x-accl      y-accl      z-accl      x-coor      y-coor      z-coor
    22626 -8.37291E-04 7.07399E-02-1.38610E-01-7.64441E-04 5.20316E-02-1.03269E-01-1.18600E-03 1.84565E-02-4.52644E-02 4.65854E+00-2.81201E+01-4.51203E+01



 n o d a l   p r i n t   o u t   f o r   t i m e  s t e p    4801                              ( at time 2.3997598E+00 )

 nodal point  x-rot      y-rot       z-rot       x-rot vel   y-rot vel   z-rot vel   x-rot acc   y-rot acc   z-rot acc
    22626 -2.45577E-04-2.51054E-06-5.91593E-07-1.55468E-04-4.55529E-11 4.18007E-06 5.89016E-05-9.33051E-06 5.18719E-05



 n o d a l   p r i n t   o u t   f o r   t i m e  s t e p    5001                              ( at time 2.4997498E+00 )

 nodal point  x-disp     y-disp      z-disp      x-vel       y-vel       z-vel      x-accl      y-accl      z-accl      x-coor      y-coor      z-coor
    22626 -9.18431E-04 7.60412E-02-1.49108E-01-9.25424E-04 5.34307E-02-1.05957E-01-1.60999E-03 1.39922E-02-2.68886E-02 4.65846E+00-2.81148E+01-4.51308E+01



 n o d a l   p r i n t   o u t   f o r   t i m e  s t e p    5001                              ( at time 2.4997498E+00 )

 nodal point  x-rot      y-rot       z-rot       x-rot vel   y-rot vel   z-rot vel   x-rot acc   y-rot acc   z-rot acc
    22626 -2.61145E-04-2.38916E-06-3.28922E-07-1.54674E-04 1.80349E-06 4.40163E-06 7.94962E-06 1.80371E-05 2.21580E-06



 n o d a l   p r i n t   o u t   f o r   t i m e  s t e p    5201                              ( at time 2.5997398E+00 )

 nodal point  x-disp     y-disp      z-disp      x-vel       y-vel       z-vel      x-accl      y-accl      z-accl      x-coor      y-coor      z-coor
    22626 -1.00911E-03 8.13933E-02-1.59711E-01-9.93018E-04 5.34898E-02-1.06024E-01-6.76009E-04 5.91226E-04-6.66149E-04 4.65837E+00-2.81094E+01-4.51414E+01



 n o d a l   p r i n t   o u t   f o r   t i m e  s t e p    5201                              ( at time 2.5997398E+00 )

 nodal point  x-rot      y-rot       z-rot       x-rot vel   y-rot vel   z-rot vel   x-rot acc   y-rot acc   z-rot acc
    22626 -2.76648E-04-2.05983E-06 6.35266E-08-1.51624E-04 5.17137E-06 5.00660E-06 3.05011E-05 3.36823E-05 6.05032E-06



 n o d a l   p r i n t   o u t   f o r   t i m e  s t e p    5401                              ( at time 2.6997298E+00 )

 nodal point  x-disp     y-disp      z-disp      x-vel       y-vel       z-vel      x-accl      y-accl      z-accl      x-coor      y-coor      z-coor
    22626 -1.10727E-03 8.67296E-02-1.70316E-01-8.12459E-04 5.35708E-02-1.06231E-01 1.80577E-03 8.10219E-04-2.06811E-03 4.65827E+00-2.81041E+01-4.51520E+01



 n o d a l   p r i n t   o u t   f o r   t i m e  s t e p    5401                              ( at time 2.6997298E+00 )

 nodal point  x-rot      y-rot       z-rot       x-rot vel   y-rot vel   z-rot vel   x-rot acc   y-rot acc   z-rot acc
    22626 -2.92360E-04-1.62154E-06 5.89891E-07-1.63042E-04 5.48800E-06 3.55449E-06-1.14196E-04 3.16652E-06-1.45225E-05



 n o d a l   p r i n t   o u t   f o r   t i m e  s t e p    5601                              ( at time 2.7997198E+00 )

 nodal point  x-disp     y-disp      z-disp      x-vel       y-vel       z-vel      x-accl      y-accl      z-accl      x-coor      y-coor      z-coor
    22626 -1.19422E-03 9.21230E-02-1.80984E-01-8.85534E-04 5.42819E-02-1.07482E-01-7.30820E-04 7.11211E-03-1.25095E-02 4.65818E+00-2.80987E+01-4.51627E+01



 n o d a l   p r i n t   o u t   f o r   t i m e  s t e p    5601                              ( at time 2.7997198E+00 )

 nodal point  x-rot      y-rot       z-rot       x-rot vel   y-rot vel   z-rot vel   x-rot acc   y-rot acc   z-rot acc
    22626 -3.07844E-04-1.10857E-06 1.00608E-06-1.44567E-04 3.05279E-06 4.32220E-06 1.84771E-04-2.43545E-05 7.67784E-06



 n o d a l   p r i n t   o u t   f o r   t i m e  s t e p    5801                              ( at time 2.8997098E+00 )

 nodal point  x-disp     y-disp      z-disp      x-vel       y-vel       z-vel      x-accl      y-accl      z-accl      x-coor      y-coor      z-coor
    22626 -1.27535E-03 9.75438E-02-1.91834E-01-7.39475E-04 5.41976E-02-1.09470E-01 1.46073E-03-8.43975E-04-1.98882E-02 4.65810E+00-2.80933E+01-4.51736E+01



 n o d a l   p r i n t   o u t   f o r   t i m e  s t e p    5801                              ( at time 2.8997098E+00 )

 nodal point  x-rot      y-rot       z-rot       x-rot vel   y-rot vel   z-rot vel   x-rot acc   y-rot acc   z-rot acc
    22626 -3.21790E-04-9.13189E-07 1.30584E-06-1.40040E-04 5.66281E-07 3.64433E-06 4.52728E-05-2.48676E-05-6.77935E-06



 n o d a l   p r i n t   o u t   f o r   t i m e  s t e p    6001                              ( at time 2.9996998E+00 )

 nodal point  x-disp     y-disp      z-disp      x-vel       y-vel       z-vel      x-accl      y-accl      z-accl      x-coor      y-coor      z-coor
    22626 -1.35889E-03 1.02935E-01-2.02797E-01-7.26667E-04 5.35812E-02-1.09335E-01 1.28100E-04-6.16377E-03 1.35532E-03 4.65802E+00-2.80879E+01-4.51845E+01



 n o d a l   p r i n t   o u t   f o r   t i m e  s t e p    6001                              ( at time 2.9996998E+00 )

 nodal point  x-rot      y-rot       z-rot       x-rot vel   y-rot vel   z-rot vel   x-rot acc   y-rot acc   z-rot acc
    22626 -3.36563E-04-8.74684E-07 1.49070E-06-1.50019E-04 3.93403E-07 2.46254E-06-9.97993E-05-1.72896E-06-1.18191E-05



 n o d a l   p r i n t   o u t   f o r   t i m e  s t e p    6201                              ( at time 3.0996898E+00 )

 nodal point  x-disp     y-disp      z-disp      x-vel       y-vel       z-vel      x-accl      y-accl      z-accl      x-coor      y-coor      z-coor
    22626 -1.42764E-03 1.08284E-01-2.13685E-01-7.43594E-04 5.36021E-02-1.08920E-01-1.69288E-04 2.08824E-04 4.15263E-03 4.65795E+00-2.80825E+01-4.51954E+01



 n o d a l   p r i n t   o u t   f o r   t i m e  s t e p    6201                              ( at time 3.0996898E+00 )

 nodal point  x-rot      y-rot       z-rot       x-rot vel   y-rot vel   z-rot vel   x-rot acc   y-rot acc   z-rot acc
    22626 -3.51596E-04-7.99962E-07 1.74970E-06-1.49208E-04 9.24234E-08 4.45478E-06 8.11147E-06-3.01010E-06 1.99244E-05



 n o d a l   p r i n t   o u t   f o r   t i m e  s t e p    6401                              ( at time 3.1996798E+00 )

 nodal point  x-disp     y-disp      z-disp      x-vel       y-vel       z-vel      x-accl      y-accl      z-accl      x-coor      y-coor      z-coor
    22626 -1.49324E-03 1.13662E-01-2.24667E-01-6.46907E-04 5.40028E-02-1.10861E-01 9.66961E-04 4.00672E-03-1.94163E-02 4.65788E+00-2.80772E+01-4.52064E+01



 n o d a l   p r i n t   o u t   f o r   t i m e  s t e p    6401                              ( at time 3.1996798E+00 )

 nodal point  x-rot      y-rot       z-rot       x-rot vel   y-rot vel   z-rot vel   x-rot acc   y-rot acc   z-rot acc
    22626 -3.66434E-04-6.74859E-07 1.89850E-06-1.42096E-04 1.41107E-06 1.23724E-06 7.11297E-05 1.31878E-05-3.21786E-05



 n o d a l   p r i n t   o u t   f o r   t i m e  s t e p    6601                              ( at time 3.2996698E+00 )

 nodal point  x-disp     y-disp      z-disp      x-vel       y-vel       z-vel      x-accl      y-accl      z-accl      x-coor      y-coor      z-coor
    22626 -1.57134E-03 1.19084E-01-2.35858E-01-8.23612E-04 5.42998E-02-1.12738E-01-1.76723E-03 2.97062E-03-1.87721E-02 4.65780E+00-2.80717E+01-4.52176E+01



 n o d a l   p r i n t   o u t   f o r   t i m e  s t e p    6601                              ( at time 3.2996698E+00 )

 nodal point  x-rot      y-rot       z-rot       x-rot vel   y-rot vel   z-rot vel   x-rot acc   y-rot acc   z-rot acc
    22626 -3.80576E-04-5.02853E-07 2.15730E-06-1.37833E-04 2.46173E-06 2.70580E-06 4.26308E-05 1.05077E-05 1.46870E-05



 n o d a l   p r i n t   o u t   f o r   t i m e  s t e p    6801                              ( at time 3.3996598E+00 )

 nodal point  x-disp     y-disp      z-disp      x-vel       y-vel       z-vel      x-accl      y-accl      z-accl      x-coor      y-coor      z-coor
    22626 -1.65872E-03 1.24513E-01-2.47151E-01-9.66656E-04 5.40618E-02-1.13029E-01-1.43058E-03-2.37976E-03-2.91048E-03 4.65772E+00-2.80663E+01-4.52289E+01



 n o d a l   p r i n t   o u t   f o r   t i m e  s t e p    6801                              ( at time 3.3996598E+00 )

 nodal point  x-rot      y-rot       z-rot       x-rot vel   y-rot vel   z-rot vel   x-rot acc   y-rot acc   z-rot acc
    22626 -3.94294E-04-3.55727E-07 2.50933E-06-1.36862E-04 3.66038E-06 6.27414E-06 9.71611E-06 1.19876E-05 3.56870E-05



 n o d a l   p r i n t   o u t   f o r   t i m e  s t e p    7001                              ( at time 3.4996498E+00 )

 nodal point  x-disp     y-disp      z-disp      x-vel       y-vel       z-vel      x-accl      y-accl      z-accl      x-coor      y-coor      z-coor
    22626 -1.75196E-03 1.29865E-01-2.58390E-01-9.63188E-04 5.30964E-02-1.11681E-01 3.46865E-05-9.65507E-03 1.34840E-02 4.65762E+00-2.80610E+01-4.52401E+01



 n o d a l   p r i n t   o u t   f o r   t i m e  s t e p    7001                              ( at time 3.4996498E+00 )

 nodal point  x-rot      y-rot       z-rot       x-rot vel   y-rot vel   z-rot vel   x-rot acc   y-rot acc   z-rot acc
    22626 -4.08210E-04-1.64080E-08 2.96172E-06-1.37218E-04 4.62218E-06 4.27346E-06-3.56427E-06 9.61899E-06-2.00088E-05



 n o d a l   p r i n t   o u t   f o r   t i m e  s t e p    7201                              ( at time 3.5996397E+00 )

 nodal point  x-disp     y-disp      z-disp      x-vel       y-vel       z-vel      x-accl      y-accl      z-accl      x-coor      y-coor      z-coor
    22626 -1.84409E-03 1.35131E-01-2.69485E-01-8.07326E-04 5.20829E-02-1.10685E-01 1.55878E-03-1.01360E-02 9.95819E-03 4.65753E+00-2.80557E+01-4.52512E+01



 n o d a l   p r i n t   o u t   f o r   t i m e  s t e p    7201                              ( at time 3.5996397E+00 )

 nodal point  x-rot      y-rot       z-rot       x-rot vel   y-rot vel   z-rot vel   x-rot acc   y-rot acc   z-rot acc
    22626 -4.21597E-04 6.17965E-07 3.51785E-06-1.34665E-04 6.07024E-06 3.35243E-06 2.55303E-05 1.44821E-05-9.21119E-06



 n o d a l   p r i n t   o u t   f o r   t i m e  s t e p    7401                              ( at time 3.6996297E+00 )

 nodal point  x-disp     y-disp      z-disp      x-vel       y-vel       z-vel      x-accl      y-accl      z-accl      x-coor      y-coor      z-coor
    22626 -1.92867E-03 1.40293E-01-2.80552E-01-8.08611E-04 5.11629E-02-1.10739E-01-1.28477E-05-9.20126E-03-5.37314E-04 4.65745E+00-2.80505E+01-4.52623E+01



 n o d a l   p r i n t   o u t   f o r   t i m e  s t e p    7401                              ( at time 3.6996297E+00 )

 nodal point  x-rot      y-rot       z-rot       x-rot vel   y-rot vel   z-rot vel   x-rot acc   y-rot acc   z-rot acc
    22626 -4.34674E-04 1.10702E-06 3.93469E-06-1.26813E-04 2.92034E-06 3.61668E-06 7.85264E-05-3.15021E-05 2.64271E-06



 n o d a l   p r i n t   o u t   f o r   t i m e  s t e p    7601                              ( at time 3.7996197E+00 )

 nodal point  x-disp     y-disp      z-disp      x-vel       y-vel       z-vel      x-accl      y-accl      z-accl      x-coor      y-coor      z-coor
    22626 -2.00858E-03 1.45343E-01-2.91592E-01-7.70682E-04 4.97913E-02-1.09913E-01 3.79321E-04-1.37173E-02 8.25787E-03 4.65737E+00-2.80455E+01-4.52733E+01



 n o d a l   p r i n t   o u t   f o r   t i m e  s t e p    7601                              ( at time 3.7996197E+00 )

 nodal point  x-rot      y-rot       z-rot       x-rot vel   y-rot vel   z-rot vel   x-rot acc   y-rot acc   z-rot acc
    22626 -4.46899E-04 1.22965E-06 4.25702E-06-1.23767E-04-8.47663E-08 2.00227E-06 3.04655E-05-3.00541E-05-1.61457E-05



 n o d a l   p r i n t   o u t   f o r   t i m e  s t e p    7801                              ( at time 3.8996097E+00 )

 nodal point  x-disp     y-disp      z-disp      x-vel       y-vel       z-vel      x-accl      y-accl      z-accl      x-coor      y-coor      z-coor
    22626 -2.07429E-03 1.50239E-01-3.02493E-01-5.77276E-04 4.80405E-02-1.07944E-01 1.93426E-03-1.75095E-02 1.96952E-02 4.65730E+00-2.80406E+01-4.52842E+01



 n o d a l   p r i n t   o u t   f o r   t i m e  s t e p    7801                              ( at time 3.8996097E+00 )

 nodal point  x-rot      y-rot       z-rot       x-rot vel   y-rot vel   z-rot vel   x-rot acc   y-rot acc   z-rot acc
    22626 -4.59288E-04 1.23173E-06 4.44962E-06-1.29356E-04 1.20167E-06 1.74323E-06-5.58967E-05 1.28656E-05-2.59071E-06



 n o d a l   p r i n t   o u t   f o r   t i m e  s t e p    8001                              ( at time 3.9995997E+00 )

 nodal point  x-disp     y-disp      z-disp      x-vel       y-vel       z-vel      x-accl      y-accl      z-accl      x-coor      y-coor      z-coor
    22626 -2.12271E-03 1.54949E-01-3.13151E-01-4.47586E-04 4.63969E-02-1.05341E-01 1.29702E-03-1.64379E-02 2.60321E-02 4.65725E+00-2.80359E+01-4.52949E+01



 n o d a l   p r i n t   o u t   f o r   t i m e  s t e p    8001                              ( at time 3.9995997E+00 )

 nodal point  x-rot      y-rot       z-rot       x-rot vel   y-rot vel   z-rot vel   x-rot acc   y-rot acc   z-rot acc
    22626 -4.71910E-04 1.22041E-06 4.48935E-06-1.20162E-04-2.49338E-07 1.56127E-06 9.19532E-05-1.45115E-05-1.81973E-06



 n o d a l   p r i n t   o u t   f o r   t i m e  s t e p    8201                              ( at time 4.0995897E+00 )

 nodal point  x-disp     y-disp      z-disp      x-vel       y-vel       z-vel      x-accl      y-accl      z-accl      x-coor      y-coor      z-coor
    22626 -2.17120E-03 1.59507E-01-3.23627E-01-4.42462E-04 4.47464E-02-1.04362E-01 5.12464E-05-1.65067E-02 9.78909E-03 4.65720E+00-2.80313E+01-4.53053E+01



 n o d a l   p r i n t   o u t   f o r   t i m e  s t e p    8201                              ( at time 4.0995897E+00 )

 nodal point  x-rot      y-rot       z-rot       x-rot vel   y-rot vel   z-rot vel   x-rot acc   y-rot acc   z-rot acc
    22626 -4.83003E-04 1.16145E-06 4.55147E-06-1.05749E-04-8.75440E-07 1.16193E-06 1.44140E-04-6.26164E-06-3.99381E-06



 n o d a l   p r i n t   o u t   f o r   t i m e  s t e p    8401                              ( at time 4.1995797E+00 )

 nodal point  x-disp     y-disp      z-disp      x-vel       y-vel       z-vel      x-accl      y-accl      z-accl      x-coor      y-coor      z-coor
    22626 -2.22203E-03 1.63917E-01-3.34001E-01-6.02227E-04 4.34038E-02-1.02924E-01-1.59781E-03-1.34268E-02 1.43832E-02 4.65715E+00-2.80269E+01-4.53157E+01



 n o d a l   p r i n t   o u t   f o r   t i m e  s t e p    8401                              ( at time 4.1995797E+00 )

 nodal point  x-rot      y-rot       z-rot       x-rot vel   y-rot vel   z-rot vel   x-rot acc   y-rot acc   z-rot acc
    22626 -4.93456E-04 1.09993E-06 4.55403E-06-1.01815E-04 3.85667E-07 6.54959E-07 3.93425E-05 1.26123E-05-5.07022E-06



 n o d a l   p r i n t   o u t   f o r   t i m e  s t e p    8601                              ( at time 4.2995697E+00 )

 nodal point  x-disp     y-disp      z-disp      x-vel       y-vel       z-vel      x-accl      y-accl      z-accl      x-coor      y-coor      z-coor
    22626 -2.28341E-03 1.68173E-01-3.44183E-01-6.26465E-04 4.15300E-02-1.00478E-01-2.42404E-04-1.87406E-02 2.44641E-02 4.65709E+00-2.80227E+01-4.53259E+01



 n o d a l   p r i n t   o u t   f o r   t i m e  s t e p    8601                              ( at time 4.2995697E+00 )

 nodal point  x-rot      y-rot       z-rot       x-rot vel   y-rot vel   z-rot vel   x-rot acc   y-rot acc   z-rot acc
    22626 -5.03201E-04 1.18429E-06 4.78091E-06-9.18786E-05 2.32067E-06 2.98093E-06 9.93784E-05 1.93520E-05 2.32621E-05



 n o d a l   p r i n t   o u t   f o r   t i m e  s t e p    8801                              ( at time 4.3995597E+00 )

 nodal point  x-disp     y-disp      z-disp      x-vel       y-vel       z-vel      x-accl      y-accl      z-accl      x-coor      y-coor      z-coor
    22626 -2.34880E-03 1.72183E-01-3.54044E-01-5.57180E-04 3.87373E-02-9.68049E-02 6.92929E-04-2.79296E-02 3.67306E-02 4.65703E+00-2.80186E+01-4.53358E+01



 n o d a l   p r i n t   o u t   f o r   t i m e  s t e p    8801                              ( at time 4.3995597E+00 )

 nodal point  x-rot      y-rot       z-rot       x-rot vel   y-rot vel   z-rot vel   x-rot acc   y-rot acc   z-rot acc
    22626 -5.12132E-04 1.51340E-06 5.04498E-06-8.56146E-05 3.75414E-06 2.83922E-06 6.26459E-05 1.43362E-05-1.41722E-06



 n o d a l   p r i n t   o u t   f o r   t i m e  s t e p    9001                              ( at time 4.4995497E+00 )

 nodal point  x-disp     y-disp      z-disp      x-vel       y-vel       z-vel      x-accl      y-accl      z-accl      x-coor      y-coor      z-coor
    22626 -2.41124E-03 1.75961E-01-3.63598E-01-6.36285E-04 3.69095E-02-9.46400E-02-7.91129E-04-1.82793E-02 2.16515E-02 4.65696E+00-2.80149E+01-4.53453E+01



 n o d a l   p r i n t   o u t   f o r   t i m e  s t e p    9001                              ( at time 4.4995497E+00 )

 nodal point  x-rot      y-rot       z-rot       x-rot vel   y-rot vel   z-rot vel   x-rot acc   y-rot acc   z-rot acc
    22626 -5.20823E-04 1.91386E-06 5.38838E-06-8.15294E-05 2.48668E-06 2.66267E-06 4.08562E-05-1.26759E-05-1.76564E-06



 n o d a l   p r i n t   o u t   f o r   t i m e  s t e p    9201                              ( at time 4.5995397E+00 )

 nodal point  x-disp     y-disp      z-disp      x-vel       y-vel       z-vel      x-accl      y-accl      z-accl      x-coor      y-coor      z-coor
    22626 -2.46496E-03 1.79570E-01-3.72984E-01-4.66310E-04 3.52244E-02-9.29796E-02 1.69992E-03-1.68536E-02 1.66055E-02 4.65691E+00-2.80113E+01-4.53547E+01



 n o d a l   p r i n t   o u t   f o r   t i m e  s t e p    9201                              ( at time 4.5995397E+00 )

 nodal point  x-rot      y-rot       z-rot       x-rot vel   y-rot vel   z-rot vel   x-rot acc   y-rot acc   z-rot acc
    22626 -5.28230E-04 2.17030E-06 5.64886E-06-6.58393E-05 7.94831E-07 2.13936E-06 1.56917E-04-1.69202E-05-5.23369E-06



 n o d a l   p r i n t   o u t   f o r   t i m e  s t e p    9401                              ( at time 4.6995297E+00 )

 nodal point  x-disp     y-disp      z-disp      x-vel       y-vel       z-vel      x-accl      y-accl      z-accl      x-coor      y-coor      z-coor
    22626 -2.51274E-03 1.82959E-01-3.82142E-01-4.93109E-04 3.27678E-02-9.01789E-02-2.68018E-04-2.45675E-02 2.80097E-02 4.65686E+00-2.80079E+01-4.53639E+01



 n o d a l   p r i n t   o u t   f o r   t i m e  s t e p    9401                              ( at time 4.6995297E+00 )

 nodal point  x-rot      y-rot       z-rot       x-rot vel   y-rot vel   z-rot vel   x-rot acc   y-rot acc   z-rot acc
    22626 -5.34683E-04 2.15736E-06 5.65874E-06-6.48248E-05-6.42557E-07-2.73479E-07 1.01460E-05-1.43753E-05-2.41308E-05



 n o d a l   p r i n t   o u t   f o r   t i m e  s t e p    9601                              ( at time 4.7995197E+00 )

 nodal point  x-disp     y-disp      z-disp      x-vel       y-vel       z-vel      x-accl      y-accl      z-accl      x-coor      y-coor      z-coor
    22626 -2.55307E-03 1.86142E-01-3.91001E-01-2.94452E-04 3.10362E-02-8.68144E-02 1.98678E-03-1.73182E-02 3.36479E-02 4.65682E+00-2.80047E+01-4.53727E+01



 n o d a l   p r i n t   o u t   f o r   t i m e  s t e p    9601                              ( at time 4.7995197E+00 )

 nodal point  x-rot      y-rot       z-rot       x-rot vel   y-rot vel   z-rot vel   x-rot acc   y-rot acc   z-rot acc
    22626 -5.41097E-04 1.91062E-06 5.50630E-06-6.37340E-05-1.52426E-06-1.57203E-06 1.09091E-05-8.81793E-06-1.29868E-05



 n o d a l   p r i n t   o u t   f o r   t i m e  s t e p    9801                              ( at time 4.8995097E+00 )

 nodal point  x-disp     y-disp      z-disp      x-vel       y-vel       z-vel      x-accl      y-accl      z-accl      x-coor      y-coor      z-coor
    22626 -2.57388E-03 1.89156E-01-3.99493E-01-2.13496E-04 2.93504E-02-8.31834E-02 8.09644E-04-1.68596E-02 3.63137E-02 4.65680E+00-2.80017E+01-4.53812E+01



 n o d a l   p r i n t   o u t   f o r   t i m e  s t e p    9801                              ( at time 4.8995097E+00 )

 nodal point  x-rot      y-rot       z-rot       x-rot vel   y-rot vel   z-rot vel   x-rot acc   y-rot acc   z-rot acc
    22626 -5.46896E-04 1.65195E-06 5.20470E-06-4.99218E-05-2.39171E-06-3.69787E-06 1.38136E-04-8.67534E-06-2.12606E-05



 n o d a l   p r i n t   o u t   f o r   t i m e  s t e p   10001                              ( at time 4.9994997E+00 )

 nodal point  x-disp     y-disp      z-disp      x-vel       y-vel       z-vel      x-accl      y-accl      z-accl      x-coor      y-coor      z-coor
    22626 -2.60340E-03 1.92041E-01-4.07714E-01-4.19993E-04 2.87334E-02-8.15099E-02-2.06517E-03-6.17083E-03 1.67367E-02 4.65677E+00-2.79988E+01-4.53894E+01



 n o d a l   p r i n t   o u t   f o r   t i m e  s t e p   10001                              ( at time 4.9994997E+00 )

 nodal point  x-rot      y-rot       z-rot       x-rot vel   y-rot vel   z-rot vel   x-rot acc   y-rot acc   z-rot acc
    22626 -5.51501E-04 1.30782E-06 4.53580E-06-4.25104E-05-5.11682E-06-1.01953E-05 7.41211E-05-2.72538E-05-6.49805E-05



 n o d a l   p r i n t   o u t   f o r   t i m e  s t e p   10202                              ( at time 5.0999896E+00 )

 nodal point  x-disp     y-disp      z-disp      x-vel       y-vel       z-vel      x-accl      y-accl      z-accl      x-coor      y-coor      z-coor
    22626 -2.66208E-03 1.94915E-01-4.15807E-01-7.38109E-04 2.83697E-02-7.92150E-02-3.16567E-03-3.61921E-03 2.28373E-02 4.65671E+00-2.79959E+01-4.53975E+01



 n o d a l   p r i n t   o u t   f o r   t i m e  s t e p   10202                              ( at time 5.0999896E+00 )

 nodal point  x-rot      y-rot       z-rot       x-rot vel   y-rot vel   z-rot vel   x-rot acc   y-rot acc   z-rot acc
    22626 -5.55976E-04 6.45953E-07 3.34231E-06-4.47152E-05-5.43353E-06-1.32874E-05-2.19400E-05-3.15163E-06-3.07705E-05



 n o d a l   p r i n t   o u t   f o r   t i m e  s t e p   10402                              ( at time 5.1999796E+00 )

 nodal point  x-disp     y-disp      z-disp      x-vel       y-vel       z-vel      x-accl      y-accl      z-accl      x-coor      y-coor      z-coor
    22626 -2.74095E-03 1.97742E-01-4.23573E-01-7.53105E-04 2.83011E-02-7.60860E-02-1.49965E-04-6.86153E-04 3.12936E-02 4.65663E+00-2.79931E+01-4.54053E+01



 n o d a l   p r i n t   o u t   f o r   t i m e  s t e p   10402                              ( at time 5.1999796E+00 )

 nodal point  x-rot      y-rot       z-rot       x-rot vel   y-rot vel   z-rot vel   x-rot acc   y-rot acc   z-rot acc
    22626 -5.60657E-04 1.23705E-07 2.17142E-06-4.68870E-05-1.96830E-06-1.15918E-05-2.17206E-05 3.46556E-05 1.69573E-05



 n o d a l   p r i n t   o u t   f o r   t i m e  s t e p   10602                              ( at time 5.2999696E+00 )

 nodal point  x-disp     y-disp      z-disp      x-vel       y-vel       z-vel      x-accl      y-accl      z-accl      x-coor      y-coor      z-coor
    22626 -2.81189E-03 2.00600E-01-4.31047E-01-8.10201E-04 2.91924E-02-7.36610E-02-5.71024E-04 8.91444E-03 2.42520E-02 4.65656E+00-2.79902E+01-4.54128E+01



 n o d a l   p r i n t   o u t   f o r   t i m e  s t e p   10602                              ( at time 5.2999696E+00 )

 nodal point  x-rot      y-rot       z-rot       x-rot vel   y-rot vel   z-rot vel   x-rot acc   y-rot acc   z-rot acc
    22626 -5.65416E-04-2.02978E-07 9.42734E-07-4.77444E-05-4.09435E-06-1.45595E-05-8.57467E-06-2.12626E-05-2.96794E-05



 n o d a l   p r i n t   o u t   f o r   t i m e  s t e p   10802                              ( at time 5.3999596E+00 )

 nodal point  x-disp     y-disp      z-disp      x-vel       y-vel       z-vel      x-accl      y-accl      z-accl      x-coor      y-coor      z-coor
    22626 -2.91600E-03 2.03608E-01-4.38300E-01-1.33516E-03 3.08432E-02-7.15122E-02-5.25008E-03 1.65096E-02 2.14899E-02 4.65646E+00-2.79872E+01-4.54200E+01



 n o d a l   p r i n t   o u t   f o r   t i m e  s t e p   10802                              ( at time 5.3999596E+00 )

 nodal point  x-rot      y-rot       z-rot       x-rot vel   y-rot vel   z-rot vel   x-rot acc   y-rot acc   z-rot acc
    22626 -5.70743E-04-8.59015E-07-9.42006E-07-5.64662E-05-1.06407E-05-2.23155E-05-8.72264E-05-6.54696E-05-7.75680E-05



 n o d a l   p r i n t   o u t   f o r   t i m e  s t e p   11002                              ( at time 5.4999496E+00 )

 nodal point  x-disp     y-disp      z-disp      x-vel       y-vel       z-vel      x-accl      y-accl      z-accl      x-coor      y-coor      z-coor
    22626 -3.04332E-03 2.06799E-01-4.45308E-01-1.10156E-03 3.32274E-02-6.86334E-02 2.33618E-03 2.38436E-02 2.87909E-02 4.65633E+00-2.79840E+01-4.54270E+01



 n o d a l   p r i n t   o u t   f o r   t i m e  s t e p   11002                              ( at time 5.4999496E+00 )

 nodal point  x-rot      y-rot       z-rot       x-rot vel   y-rot vel   z-rot vel   x-rot acc   y-rot acc   z-rot acc
    22626 -5.77528E-04-1.86312E-06-3.37353E-06-8.09816E-05-1.06631E-05-2.50141E-05-2.45179E-04-2.24259E-07-2.69889E-05



 n o d a l   p r i n t   o u t   f o r   t i m e  s t e p   11202                              ( at time 5.5999396E+00 )

 nodal point  x-disp     y-disp      z-disp      x-vel       y-vel       z-vel      x-accl      y-accl      z-accl      x-coor      y-coor      z-coor
    22626 -3.12655E-03 2.10289E-01-4.51998E-01-5.68183E-04 3.67149E-02-6.52716E-02 5.33432E-03 3.48786E-02 3.36216E-02 4.65625E+00-2.79805E+01-4.54337E+01



 n o d a l   p r i n t   o u t   f o r   t i m e  s t e p   11202                              ( at time 5.5999396E+00 )

 nodal point  x-rot      y-rot       z-rot       x-rot vel   y-rot vel   z-rot vel   x-rot acc   y-rot acc   z-rot acc
    22626 -5.87080E-04-2.61698E-06-5.14921E-06-1.10980E-04-3.19230E-06-1.08019E-05-3.00019E-04 7.47153E-05 1.42137E-04



 n o d a l   p r i n t   o u t   f o r   t i m e  s t e p   11402                              ( at time 5.6999296E+00 )

 nodal point  x-disp     y-disp      z-disp      x-vel       y-vel       z-vel      x-accl      y-accl      z-accl      x-coor      y-coor      z-coor
    22626 -3.14814E-03 2.14148E-01-4.58336E-01-4.99700E-05 4.07323E-02-6.12286E-02 5.18263E-03 4.01782E-02 4.04346E-02 4.65623E+00-2.79767E+01-4.54401E+01



 n o d a l   p r i n t   o u t   f o r   t i m e  s t e p   11402                              ( at time 5.6999296E+00 )

 nodal point  x-rot      y-rot       z-rot       x-rot vel   y-rot vel   z-rot vel   x-rot acc   y-rot acc   z-rot acc
    22626 -5.99621E-04-3.08652E-06-6.12239E-06-1.44527E-04-5.11765E-06-1.05696E-05-3.35501E-04-1.92554E-05 2.32242E-06



 n o d a l   p r i n t   o u t   f o r   t i m e  s t e p   11602                              ( at time 5.7999195E+00 )

 nodal point  x-disp     y-disp      z-disp      x-vel       y-vel       z-vel      x-accl      y-accl      z-accl      x-coor      y-coor      z-coor
    22626 -3.17228E-03 2.18494E-01-4.64225E-01-2.80441E-04 4.66601E-02-5.70102E-02-2.30494E-03 5.92844E-02 4.21878E-02 4.65620E+00-2.79723E+01-4.54459E+01



 n o d a l   p r i n t   o u t   f o r   t i m e  s t e p   11602                              ( at time 5.7999195E+00 )

 nodal point  x-rot      y-rot       z-rot       x-rot vel   y-rot vel   z-rot vel   x-rot acc   y-rot acc   z-rot acc
    22626 -6.16417E-04-3.72878E-06-7.67580E-06-1.96020E-04-5.45997E-06-1.64002E-05-5.14977E-04-3.42349E-06-5.83117E-05



 n o d a l   p r i n t   o u t   f o r   t i m e  s t e p   11802                              ( at time 5.8999095E+00 )

 nodal point  x-disp     y-disp      z-disp      x-vel       y-vel       z-vel      x-accl      y-accl      z-accl      x-coor      y-coor      z-coor
    22626 -3.16563E-03 2.23553E-01-4.69816E-01 5.50867E-04 5.45571E-02-5.48414E-02 8.31393E-03 7.89774E-02 2.16900E-02 4.65621E+00-2.79673E+01-4.54515E+01



 n o d a l   p r i n t   o u t   f o r   t i m e  s t e p   11802                              ( at time 5.8999095E+00 )

 nodal point  x-rot      y-rot       z-rot       x-rot vel   y-rot vel   z-rot vel   x-rot acc   y-rot acc   z-rot acc
    22626 -6.39081E-04-3.95156E-06-8.65667E-06-2.61326E-04 7.58716E-07-2.46652E-06-6.53125E-04 6.21931E-05 1.39351E-04



 n o d a l   p r i n t   o u t   f o r   t i m e  s t e p   12002                              ( at time 5.9998995E+00 )

 nodal point  x-disp     y-disp      z-disp      x-vel       y-vel       z-vel      x-accl      y-accl      z-accl      x-coor      y-coor      z-coor
    22626 -3.06391E-03 2.29437E-01-4.75164E-01 1.32015E-03 6.31927E-02-5.17605E-02 7.69363E-03 8.63647E-02 3.08128E-02 4.65631E+00-2.79614E+01-4.54569E+01



 n o d a l   p r i n t   o u t   f o r   t i m e  s t e p   12002                              ( at time 5.9998995E+00 )

 nodal point  x-rot      y-rot       z-rot       x-rot vel   y-rot vel   z-rot vel   x-rot acc   y-rot acc   z-rot acc
    22626 -6.69137E-04-3.40043E-06-7.94007E-06-3.37294E-04 7.95618E-06 1.38343E-05-7.59757E-04 7.19820E-05 1.63024E-04



 n o d a l   p r i n t   o u t   f o r   t i m e  s t e p   12202                              ( at time 6.0998895E+00 )

 nodal point  x-disp     y-disp      z-disp      x-vel       y-vel       z-vel      x-accl      y-accl      z-accl      x-coor      y-coor      z-coor
    22626 -2.93307E-03 2.36265E-01-4.80180E-01 1.16589E-03 7.37842E-02-4.84710E-02-1.54281E-03 1.05925E-01 3.28974E-02 4.65644E+00-2.79546E+01-4.54619E+01



 n o d a l   p r i n t   o u t   f o r   t i m e  s t e p   12202                              ( at time 6.0998895E+00 )

 nodal point  x-rot      y-rot       z-rot       x-rot vel   y-rot vel   z-rot vel   x-rot acc   y-rot acc   z-rot acc
    22626 -7.07537E-04-2.77529E-06-6.56445E-06-4.30342E-04 4.09702E-06 9.19773E-06-9.30577E-04-3.85954E-05-4.63698E-05



 n o d a l   p r i n t   o u t   f o r   t i m e  s t e p   12402                              ( at time 6.1998795E+00 )

 nodal point  x-disp     y-disp      z-disp      x-vel       y-vel       z-vel      x-accl      y-accl      z-accl      x-coor      y-coor      z-coor
    22626 -2.85665E-03 2.44250E-01-4.84906E-01 4.54344E-04 8.60338E-02-4.61896E-02-7.11614E-03 1.22509E-01 2.28167E-02 4.65652E+00-2.79466E+01-4.54666E+01



 n o d a l   p r i n t   o u t   f o r   t i m e  s t e p   12402                              ( at time 6.1998795E+00 )

 nodal point  x-rot      y-rot       z-rot       x-rot vel   y-rot vel   z-rot vel   x-rot acc   y-rot acc   z-rot acc
    22626 -7.55705E-04-2.42332E-06-6.15644E-06-5.34991E-04 2.58186E-06 1.55478E-06-1.04659E-03-1.51531E-05-7.64373E-05



 n o d a l   p r i n t   o u t   f o r   t i m e  s t e p   12602                              ( at time 6.2998695E+00 )

 nodal point  x-disp     y-disp      z-disp      x-vel       y-vel       z-vel      x-accl      y-accl      z-accl      x-coor      y-coor      z-coor
    22626 -2.77149E-03 2.53524E-01-4.89437E-01 1.53512E-03 9.96317E-02-4.45616E-02 1.08088E-02 1.35992E-01 1.62817E-02 4.65660E+00-2.79373E+01-4.54712E+01



 n o d a l   p r i n t   o u t   f o r   t i m e  s t e p   12602                              ( at time 6.2998695E+00 )

 nodal point  x-rot      y-rot       z-rot       x-rot vel   y-rot vel   z-rot vel   x-rot acc   y-rot acc   z-rot acc
    22626 -8.14192E-04-1.42052E-06-5.21379E-06-6.41003E-04 1.34259E-05 1.61817E-05-1.06023E-03 1.08451E-04 1.46284E-04



 n o d a l   p r i n t   o u t   f o r   t i m e  s t e p   12802                              ( at time 6.3998595E+00 )

 nodal point  x-disp     y-disp      z-disp      x-vel       y-vel       z-vel      x-accl      y-accl      z-accl      x-coor      y-coor      z-coor
    22626 -2.59994E-03 2.64221E-01-4.93783E-01 1.45202E-03 1.14502E-01-4.26184E-02-8.31109E-04 1.48719E-01 1.94341E-02 4.65677E+00-2.79266E+01-4.54755E+01



 n o d a l   p r i n t   o u t   f o r   t i m e  s t e p   12802                              ( at time 6.3998595E+00 )

 nodal point  x-rot      y-rot       z-rot       x-rot vel   y-rot vel   z-rot vel   x-rot acc   y-rot acc   z-rot acc
    22626 -8.83968E-04 1.52790E-07-2.97919E-06-7.69272E-04 1.23441E-05 1.79603E-05-1.28282E-03-1.08191E-05 1.77883E-05



 n o d a l   p r i n t   o u t   f o r   t i m e  s t e p   13002                              ( at time 6.4998495E+00 )

 nodal point  x-disp     y-disp      z-disp      x-vel       y-vel       z-vel      x-accl      y-accl      z-accl      x-coor      y-coor      z-coor
    22626 -2.50637E-03 2.76456E-01-4.97901E-01 4.66232E-04 1.30243E-01-3.99324E-02-9.85884E-03 1.57421E-01 2.68628E-02 4.65687E+00-2.79144E+01-4.54796E+01



 n o d a l   p r i n t   o u t   f o r   t i m e  s t e p   13002                              ( at time 6.4998495E+00 )

 nodal point  x-rot      y-rot       z-rot       x-rot vel   y-rot vel   z-rot vel   x-rot acc   y-rot acc   z-rot acc
    22626 -9.67203E-04 9.54341E-07-1.95892E-06-9.01747E-04 1.10154E-05 1.49088E-06-1.32489E-03-1.32882E-05-1.64711E-04



 n o d a l   p r i n t   o u t   f o r   t i m e  s t e p   13202                              ( at time 6.5998395E+00 )

 nodal point  x-disp     y-disp      z-disp      x-vel       y-vel       z-vel      x-accl      y-accl      z-accl      x-coor      y-coor      z-coor
    22626 -2.44074E-03 2.90305E-01-5.01762E-01 8.47329E-04 1.47307E-01-3.73104E-02 3.81134E-03 1.70661E-01 2.62219E-02 4.65693E+00-2.79005E+01-4.54835E+01



 n o d a l   p r i n t   o u t   f o r   t i m e  s t e p   13202                              ( at time 6.5998395E+00 )

 nodal point  x-rot      y-rot       z-rot       x-rot vel   y-rot vel   z-rot vel   x-rot acc   y-rot acc   z-rot acc
    22626 -1.06360E-03 2.26540E-06-2.01037E-06-1.02818E-03 2.07891E-05-8.63074E-07-1.26443E-03 9.77462E-05-2.35418E-05



 n o d a l   p r i n t   o u t   f o r   t i m e  s t e p   13402                              ( at time 6.6998295E+00 )

 nodal point  x-disp     y-disp      z-disp      x-vel       y-vel       z-vel      x-accl      y-accl      z-accl      x-coor      y-coor      z-coor
    22626 -2.32930E-03 3.05951E-01-5.05480E-01 1.17643E-03 1.66191E-01-3.68536E-02 3.29135E-03 1.88858E-01 4.56893E-03 4.65705E+00-2.78849E+01-4.54872E+01



 n o d a l   p r i n t   o u t   f o r   t i m e  s t e p   13402                              ( at time 6.6998295E+00 )

 nodal point  x-rot      y-rot       z-rot       x-rot vel   y-rot vel   z-rot vel   x-rot acc   y-rot acc   z-rot acc
    22626 -1.17428E-03 3.65954E-06-2.11964E-06-1.17725E-03 7.73652E-06-2.08675E-06-1.49088E-03-1.30539E-04-1.22380E-05



 n o d a l   p r i n t   o u t   f o r   t i m e  s t e p   13602                              ( at time 6.7998195E+00 )

 nodal point  x-disp     y-disp      z-disp      x-vel       y-vel       z-vel      x-accl      y-accl      z-accl      x-coor      y-coor      z-coor
    22626 -2.20616E-03 3.23570E-01-5.09175E-01 8.38611E-04 1.86638E-01-3.65603E-02-3.37855E-03 2.04491E-01 2.93340E-03 4.65717E+00-2.78673E+01-4.54909E+01



 n o d a l   p r i n t   o u t   f o r   t i m e  s t e p   13602                              ( at time 6.7998195E+00 )

 nodal point  x-rot      y-rot       z-rot       x-rot vel   y-rot vel   z-rot vel   x-rot acc   y-rot acc   z-rot acc
    22626 -1.30041E-03 3.79474E-06-2.85470E-06-1.33529E-03-3.85355E-06-1.35345E-05-1.58057E-03-1.15912E-04-1.14489E-04



 n o d a l   p r i n t   o u t   f o r   t i m e  s t e p   13802                              ( at time 6.8998095E+00 )

 nodal point  x-disp     y-disp      z-disp      x-vel       y-vel       z-vel      x-accl      y-accl      z-accl      x-coor      y-coor      z-coor
    22626 -2.12906E-03 3.43282E-01-5.12810E-01 7.51679E-04 2.07964E-01-3.57542E-02-8.69408E-04 2.13287E-01 8.06111E-03 4.65725E+00-2.78475E+01-4.54945E+01



 n o d a l   p r i n t   o u t   f o r   t i m e  s t e p   13802                              ( at time 6.8998095E+00 )

 nodal point  x-rot      y-rot       z-rot       x-rot vel   y-rot vel   z-rot vel   x-rot acc   y-rot acc   z-rot acc
    22626 -1.44260E-03 3.65878E-06-4.41666E-06-1.49620E-03 3.89839E-06-1.52985E-05-1.60926E-03 7.75273E-05-1.76417E-05



 n o d a l   p r i n t   o u t   f o r   t i m e  s t e p   14002                              ( at time 6.9997995E+00 )

 nodal point  x-disp     y-disp      z-disp      x-vel       y-vel       z-vel      x-accl      y-accl      z-accl      x-coor      y-coor      z-coor
    22626 -2.03940E-03 3.65222E-01-5.16409E-01 1.34668E-03 2.31043E-01-3.61971E-02 5.95061E-03 2.30808E-01-4.42918E-03 4.65734E+00-2.78256E+01-4.54981E+01



 n o d a l   p r i n t   o u t   f o r   t i m e  s t e p   14002                              ( at time 6.9997995E+00 )

 nodal point  x-rot      y-rot       z-rot       x-rot vel   y-rot vel   z-rot vel   x-rot acc   y-rot acc   z-rot acc
    22626 -1.60115E-03 4.03632E-06-5.76755E-06-1.67082E-03 6.18328E-06-6.89660E-06-1.74640E-03 2.28512E-05 8.40272E-05



 n o d a l   p r i n t   o u t   f o r   t i m e  s t e p   14202                              ( at time 7.0997895E+00 )

 nodal point  x-disp     y-disp      z-disp      x-vel       y-vel       z-vel      x-accl      y-accl      z-accl      x-coor      y-coor      z-coor
    22626 -1.92210E-03 3.89575E-01-5.20085E-01 8.08459E-04 2.56425E-01-3.69899E-02-5.38272E-03 2.53844E-01-7.92840E-03 4.65745E+00-2.78013E+01-4.55018E+01



 n o d a l   p r i n t   o u t   f o r   t i m e  s t e p   14202                              ( at time 7.0997895E+00 )

 nodal point  x-rot      y-rot       z-rot       x-rot vel   y-rot vel   z-rot vel   x-rot acc   y-rot acc   z-rot acc
    22626 -1.77661E-03 4.38611E-06-6.37017E-06-1.84054E-03 2.34773E-06-1.58235E-06-1.69732E-03-3.83592E-05 5.31476E-05



 n o d a l   p r i n t   o u t   f o r   t i m e  s t e p   14402                              ( at time 7.1997794E+00 )

 nodal point  x-disp     y-disp      z-disp      x-vel       y-vel       z-vel      x-accl      y-accl      z-accl      x-coor      y-coor      z-coor
    22626 -1.86139E-03 4.16491E-01-5.23843E-01 5.75817E-04 2.82081E-01-3.81233E-02-2.32666E-03 2.56584E-01-1.13357E-02 4.65751E+00-2.77743E+01-4.55056E+01



 n o d a l   p r i n t   o u t   f o r   t i m e  s t e p   14402                              ( at time 7.1997794E+00 )

 nodal point  x-rot      y-rot       z-rot       x-rot vel   y-rot vel   z-rot vel   x-rot acc   y-rot acc   z-rot acc
    22626 -1.96914E-03 4.65584E-06-7.12617E-06-2.01625E-03 6.60195E-06-8.33288E-06-1.75729E-03 4.25465E-05-6.75121E-05



 n o d a l   p r i n t   o u t   f o r   t i m e  s t e p   14602                              ( at time 7.2997694E+00 )

 nodal point  x-disp     y-disp      z-disp      x-vel       y-vel       z-vel      x-accl      y-accl      z-accl      x-coor      y-coor      z-coor
    22626 -1.79913E-03 4.45987E-01-5.27680E-01 5.73678E-04 3.08001E-01-3.83461E-02-2.13941E-05 2.59232E-01-2.22787E-03 4.65758E+00-2.77448E+01-4.55094E+01



 n o d a l   p r i n t   o u t   f o r   t i m e  s t e p   14602                              ( at time 7.2997694E+00 )

 nodal point  x-rot      y-rot       z-rot       x-rot vel   y-rot vel   z-rot vel   x-rot acc   y-rot acc   z-rot acc
    22626 -2.17966E-03 5.90537E-06-7.36785E-06-2.19580E-03 1.72153E-05 3.45783E-06-1.79570E-03 1.06144E-04 1.17919E-04



 n o d a l   p r i n t   o u t   f o r   t i m e  s t e p   14802                              ( at time 7.3997594E+00 )

 nodal point  x-disp     y-disp      z-disp      x-vel       y-vel       z-vel      x-accl      y-accl      z-accl      x-coor      y-coor      z-coor
    22626 -1.70477E-03 4.78193E-01-5.31532E-01 1.10575E-03 3.36223E-01-3.83855E-02 5.32126E-03 2.82244E-01-3.94325E-04 4.65767E+00-2.77126E+01-4.55133E+01



 n o d a l   p r i n t   o u t   f o r   t i m e  s t e p   14802                              ( at time 7.3997594E+00 )

 nodal point  x-rot      y-rot       z-rot       x-rot vel   y-rot vel   z-rot vel   x-rot acc   y-rot acc   z-rot acc
    22626 -2.40869E-03 7.17022E-06-7.19408E-06-2.38649E-03 6.23794E-06 3.98502E-06-1.90704E-03-1.09785E-04 5.27245E-06



 n o d a l   p r i n t   o u t   f o r   t i m e  s t e p   15002                              ( at time 7.4997494E+00 )

 nodal point  x-disp     y-disp      z-disp      x-vel       y-vel       z-vel      x-accl      y-accl      z-accl      x-coor      y-coor      z-coor
    22626 -1.61753E-03 5.13211E-01-5.35375E-01 1.22815E-03 3.64165E-01-3.88730E-02 1.22411E-03 2.79453E-01-4.87572E-03 4.65776E+00-2.76776E+01-4.55171E+01



 n o d a l   p r i n t   o u t   f o r   t i m e  s t e p   15002                              ( at time 7.4997494E+00 )

 nodal point  x-rot      y-rot       z-rot       x-rot vel   y-rot vel   z-rot vel   x-rot acc   y-rot acc   z-rot acc
    22626 -2.65657E-03 7.70369E-06-7.25156E-06-2.57739E-03 5.31590E-06-5.81693E-08-1.90924E-03-9.22129E-06-4.04358E-05



 n o d a l   p r i n t   o u t   f o r   t i m e  s t e p   15202                              ( at time 7.5997394E+00 )

 nodal point  x-disp     y-disp      z-disp      x-vel       y-vel       z-vel      x-accl      y-accl      z-accl      x-coor      y-coor      z-coor
    22626 -1.50912E-03 5.51098E-01-5.39335E-01 1.33567E-03 3.93318E-01-4.04333E-02 1.07527E-03 2.91556E-01-1.56038E-02 4.65787E+00-2.76397E+01-4.55211E+01



 n o d a l   p r i n t   o u t   f o r   t i m e  s t e p   15202                              ( at time 7.5997394E+00 )

 nodal point  x-rot      y-rot       z-rot       x-rot vel   y-rot vel   z-rot vel   x-rot acc   y-rot acc   z-rot acc
    22626 -2.92360E-03 8.86085E-06-7.14958E-06-2.76840E-03 1.31740E-05 4.33991E-06-1.91031E-03 7.85886E-05 4.39853E-05



 n o d a l   p r i n t   o u t   f o r   t i m e  s t e p   15402                              ( at time 7.6997294E+00 )

 nodal point  x-disp     y-disp      z-disp      x-vel       y-vel       z-vel      x-accl      y-accl      z-accl      x-coor      y-coor      z-coor
    22626 -1.37648E-03 5.91944E-01-5.43404E-01 1.40337E-03 4.23684E-01-4.10742E-02 6.77154E-04 3.03690E-01-6.41034E-03 4.65800E+00-2.75989E+01-4.55251E+01



 n o d a l   p r i n t   o u t   f o r   t i m e  s t e p   15402                              ( at time 7.6997294E+00 )

 nodal point  x-rot      y-rot       z-rot       x-rot vel   y-rot vel   z-rot vel   x-rot acc   y-rot acc   z-rot acc
    22626 -3.21070E-03 1.06341E-05-6.38581E-06-2.96578E-03 2.07185E-05 1.42695E-05-1.97394E-03 7.54528E-05 9.93058E-05



 n o d a l   p r i n t   o u t   f o r   t i m e  s t e p   15602                              ( at time 7.7997194E+00 )

 nodal point  x-disp     y-disp      z-disp      x-vel       y-vel       z-vel      x-accl      y-accl      z-accl      x-coor      y-coor      z-coor
    22626 -1.21571E-03 6.35895E-01-5.47601E-01 1.58923E-03 4.55011E-01-4.25188E-02 1.85874E-03 3.13303E-01-1.44475E-02 4.65816E+00-2.75549E+01-4.55293E+01



 n o d a l   p r i n t   o u t   f o r   t i m e  s t e p   15602                              ( at time 7.7997194E+00 )

 nodal point  x-rot      y-rot       z-rot       x-rot vel   y-rot vel   z-rot vel   x-rot acc   y-rot acc   z-rot acc
    22626 -3.51784E-03 1.22655E-05-5.24533E-06-3.16800E-03 1.78026E-05 1.35546E-05-2.02243E-03-2.91617E-05-7.14944E-06



 n o d a l   p r i n t   o u t   f o r   t i m e  s t e p   15802                              ( at time 7.8997094E+00 )

 nodal point  x-disp     y-disp      z-disp      x-vel       y-vel       z-vel      x-accl      y-accl      z-accl      x-coor      y-coor      z-coor
    22626 -1.08703E-03 6.82924E-01-5.51870E-01 1.34353E-03 4.85979E-01-4.29278E-02-2.45721E-03 3.09706E-01-4.08955E-03 4.65829E+00-2.75079E+01-4.55336E+01



 n o d a l   p r i n t   o u t   f o r   t i m e  s t e p   15802                              ( at time 7.8997094E+00 )

 nodal point  x-rot      y-rot       z-rot       x-rot vel   y-rot vel   z-rot vel   x-rot acc   y-rot acc   z-rot acc
    22626 -3.84487E-03 1.40485E-05-3.55362E-06-3.36977E-03 2.35827E-05 1.91805E-05-2.01789E-03 5.78069E-05 5.62650E-05



 n o d a l   p r i n t   o u t   f o r   t i m e  s t e p   16002                              ( at time 7.9996994E+00 )

 nodal point  x-disp     y-disp      z-disp      x-vel       y-vel       z-vel      x-accl      y-accl      z-accl      x-coor      y-coor      z-coor
    22626 -9.06043E-04 7.33171E-01-5.56264E-01 1.97459E-03 5.18576E-01-4.49640E-02 6.31116E-03 3.26003E-01-2.03645E-02 4.65847E+00-2.74577E+01-4.55380E+01



 n o d a l   p r i n t   o u t   f o r   t i m e  s t e p   16002                              ( at time 7.9996994E+00 )

 nodal point  x-rot      y-rot       z-rot       x-rot vel   y-rot vel   z-rot vel   x-rot acc   y-rot acc   z-rot acc
    22626 -4.19278E-03 1.73766E-05-1.04209E-06-3.58667E-03 3.58516E-05 2.44891E-05-2.16921E-03 1.22701E-04 5.30905E-05



 n o d a l   p r i n t   o u t   f o r   t i m e  s t e p   16202                              ( at time 8.0996894E+00 )

 nodal point  x-disp     y-disp      z-disp      x-vel       y-vel       z-vel      x-accl      y-accl      z-accl      x-coor      y-coor      z-coor
    22626 -6.82536E-04 7.86656E-01-5.60750E-01 2.22082E-03 5.50783E-01-4.46834E-02 2.46260E-03 3.22110E-01 2.80681E-03 4.65869E+00-2.74042E+01-4.55425E+01



 n o d a l   p r i n t   o u t   f o r   t i m e  s t e p   16202                              ( at time 8.0996894E+00 )

 nodal point  x-rot      y-rot       z-rot       x-rot vel   y-rot vel   z-rot vel   x-rot acc   y-rot acc   z-rot acc
    22626 -4.56218E-03 2.06621E-05 2.14922E-06-3.80191E-03 2.84473E-05 3.50152E-05-2.15266E-03-7.40506E-05 1.05272E-04



 n o d a l   p r i n t   o u t   f o r   t i m e  s t e p   16402                              ( at time 8.1996794E+00 )

 nodal point  x-disp     y-disp      z-disp      x-vel       y-vel       z-vel      x-accl      y-accl      z-accl      x-coor      y-coor      z-coor
    22626 -4.77446E-04 8.43364E-01-5.65179E-01 2.26957E-03 5.82951E-01-4.39224E-02 4.87552E-04 3.21707E-01 7.61035E-03 4.65890E+00-2.73475E+01-4.55469E+01



 n o d a l   p r i n t   o u t   f o r   t i m e  s t e p   16402                              ( at time 8.1996794E+00 )

 nodal point  x-rot      y-rot       z-rot       x-rot vel   y-rot vel   z-rot vel   x-rot acc   y-rot acc   z-rot acc
    22626 -4.95372E-03 2.39328E-05 5.65137E-06-4.02942E-03 3.69603E-05 3.31608E-05-2.27529E-03 8.51383E-05-1.85461E-05



 n o d a l   p r i n t   o u t   f o r   t i m e  s t e p   16602                              ( at time 8.2996694E+00 )

 nodal point  x-disp     y-disp      z-disp      x-vel       y-vel       z-vel      x-accl      y-accl      z-accl      x-coor      y-coor      z-coor
    22626 -2.36147E-04 9.03263E-01-5.69520E-01 2.78077E-03 6.15677E-01-4.30934E-02 5.11246E-03 3.27292E-01 8.29110E-03 4.65914E+00-2.72876E+01-4.55512E+01



 n o d a l   p r i n t   o u t   f o r   t i m e  s t e p   16602                              ( at time 8.2996694E+00 )

 nodal point  x-rot      y-rot       z-rot       x-rot vel   y-rot vel   z-rot vel   x-rot acc   y-rot acc   z-rot acc
    22626 -5.36771E-03 2.74560E-05 8.98110E-06-4.24942E-03 3.64233E-05 3.67954E-05-2.20027E-03-5.37016E-06 3.63498E-05



 n o d a l   p r i n t   o u t   f o r   t i m e  s t e p   16802                              ( at time 8.3996594E+00 )

 nodal point  x-disp     y-disp      z-disp      x-vel       y-vel       z-vel      x-accl      y-accl      z-accl      x-coor      y-coor      z-coor
    22626  5.60133E-05 9.66490E-01-5.73772E-01 2.88835E-03 6.48479E-01-4.18889E-02 1.07593E-03 3.28060E-01 1.20455E-02 4.65943E+00-2.72243E+01-4.55555E+01



 n o d a l   p r i n t   o u t   f o r   t i m e  s t e p   16802                              ( at time 8.3996594E+00 )

 nodal point  x-rot      y-rot       z-rot       x-rot vel   y-rot vel   z-rot vel   x-rot acc   y-rot acc   z-rot acc
    22626 -5.80326E-03 3.12650E-05 1.28148E-05-4.46193E-03 4.25408E-05 3.77205E-05-2.12529E-03 6.11812E-05 9.25224E-06



 n o d a l   p r i n t   o u t   f o r   t i m e  s t e p   17002                              ( at time 8.4996494E+00 )

 nodal point  x-disp     y-disp      z-disp      x-vel       y-vel       z-vel      x-accl      y-accl      z-accl      x-coor      y-coor      z-coor
    22626  3.88255E-04 1.03296E+00-5.77885E-01 3.14194E-03 6.81209E-01-4.00834E-02 2.53611E-03 3.27324E-01 1.80570E-02 4.65976E+00-2.71579E+01-4.55596E+01



 n o d a l   p r i n t   o u t   f o r   t i m e  s t e p   17002                              ( at time 8.4996494E+00 )

 nodal point  x-rot      y-rot       z-rot       x-rot vel   y-rot vel   z-rot vel   x-rot acc   y-rot acc   z-rot acc
    22626 -6.26149E-03 3.52404E-05 1.62625E-05-4.69599E-03 3.54370E-05 3.00111E-05-2.34081E-03-7.10452E-05-7.71027E-05



 n o d a l   p r i n t   o u t   f o r   t i m e  s t e p   17202                              ( at time 8.5996394E+00 )

 nodal point  x-disp     y-disp      z-disp      x-vel       y-vel       z-vel      x-accl      y-accl      z-accl      x-coor      y-coor      z-coor
    22626  7.29432E-04 1.10275E+00-5.81783E-01 3.43149E-03 7.14351E-01-3.74022E-02 2.89580E-03 3.31459E-01 2.68148E-02 4.66010E+00-2.70881E+01-4.55635E+01



 n o d a l   p r i n t   o u t   f o r   t i m e  s t e p   17202                              ( at time 8.5996394E+00 )

 nodal point  x-rot      y-rot       z-rot       x-rot vel   y-rot vel   z-rot vel   x-rot acc   y-rot acc   z-rot acc
    22626 -6.74310E-03 3.81023E-05 1.99842E-05-4.92257E-03 3.22484E-05 4.56459E-05-2.26607E-03-3.18893E-05 1.56365E-04



 n o d a l   p r i n t   o u t   f o r   t i m e  s t e p   17402                              ( at time 8.6996293E+00 )

 nodal point  x-disp     y-disp      z-disp      x-vel       y-vel       z-vel      x-accl      y-accl      z-accl      x-coor      y-coor      z-coor
    22626  1.09756E-03 1.17582E+00-5.85375E-01 3.92909E-03 7.47125E-01-3.38041E-02 4.97653E-03 3.27769E-01 3.59844E-02 4.66047E+00-2.70150E+01-4.55671E+01



 n o d a l   p r i n t   o u t   f o r   t i m e  s t e p   17402                              ( at time 8.6996293E+00 )

 nodal point  x-rot      y-rot       z-rot       x-rot vel   y-rot vel   z-rot vel   x-rot acc   y-rot acc   z-rot acc
    22626 -7.24738E-03 4.18508E-05 2.40192E-05-5.15324E-03 4.14068E-05 3.26617E-05-2.30687E-03 9.15923E-05-1.29854E-04



 n o d a l   p r i n t   o u t   f o r   t i m e  s t e p   17602                              ( at time 8.7996193E+00 )

 nodal point  x-disp     y-disp      z-disp      x-vel       y-vel       z-vel      x-accl      y-accl      z-accl      x-coor      y-coor      z-coor
    22626  1.50666E-03 1.25216E+00-5.88559E-01 4.14307E-03 7.80226E-01-2.97580E-02 2.13996E-03 3.31040E-01 4.04653E-02 4.66088E+00-2.69387E+01-4.55703E+01



 n o d a l   p r i n t   o u t   f o r   t i m e  s t e p   17602                              ( at time 8.7996193E+00 )

 nodal point  x-rot      y-rot       z-rot       x-rot vel   y-rot vel   z-rot vel   x-rot acc   y-rot acc   z-rot acc
    22626 -7.77437E-03 4.61550E-05 2.76966E-05-5.38107E-03 4.17478E-05 4.24311E-05-2.27851E-03 3.41048E-06 9.77040E-05



 n o d a l   p r i n t   o u t   f o r   t i m e  s t e p   17802                              ( at time 8.8996093E+00 )

 nodal point  x-disp     y-disp      z-disp      x-vel       y-vel       z-vel      x-accl      y-accl      z-accl      x-coor      y-coor      z-coor
    22626  1.91525E-03 1.33186E+00-5.91326E-01 4.12719E-03 8.12992E-01-2.51851E-02-1.58755E-04 3.27694E-01 4.57339E-02 4.66129E+00-2.68590E+01-4.55730E+01



 n o d a l   p r i n t   o u t   f o r   t i m e  s t e p   17802                              ( at time 8.8996093E+00 )

 nodal point  x-rot      y-rot       z-rot       x-rot vel   y-rot vel   z-rot vel   x-rot acc   y-rot acc   z-rot acc
    22626 -8.32454E-03 5.00954E-05 3.21525E-05-5.61891E-03 3.15287E-05 3.89157E-05-2.37871E-03-1.02202E-04-3.51583E-05



 n o d a l   p r i n t   o u t   f o r   t i m e  s t e p   18002                              ( at time 8.9995993E+00 )

 nodal point  x-disp     y-disp      z-disp      x-vel       y-vel       z-vel      x-accl      y-accl      z-accl      x-coor      y-coor      z-coor
    22626  2.32433E-03 1.41479E+00-5.93543E-01 4.20060E-03 8.45467E-01-1.90091E-02 7.34180E-04 3.24786E-01 6.17657E-02 4.66170E+00-2.67760E+01-4.55753E+01



 n o d a l   p r i n t   o u t   f o r   t i m e  s t e p   18002                              ( at time 8.9995993E+00 )

 nodal point  x-rot      y-rot       z-rot       x-rot vel   y-rot vel   z-rot vel   x-rot acc   y-rot acc   z-rot acc
    22626 -8.89826E-03 5.35414E-05 3.58521E-05-5.84840E-03 3.77612E-05 4.26841E-05-2.29508E-03 6.23316E-05 3.76885E-05



 n o d a l   p r i n t   o u t   f o r   t i m e  s t e p   18202                              ( at time 9.0995893E+00 )

 nodal point  x-disp     y-disp      z-disp      x-vel       y-vel       z-vel      x-accl      y-accl      z-accl      x-coor      y-coor      z-coor
    22626  2.80087E-03 1.50096E+00-5.95108E-01 5.34261E-03 8.78008E-01-1.22934E-02 1.14212E-02 3.25440E-01 6.71642E-02 4.66218E+00-2.66899E+01-4.55768E+01



 n o d a l   p r i n t   o u t   f o r   t i m e  s t e p   18202                              ( at time 9.0995893E+00 )

 nodal point  x-rot      y-rot       z-rot       x-rot vel   y-rot vel   z-rot vel   x-rot acc   y-rot acc   z-rot acc
    22626 -9.49428E-03 5.83794E-05 4.03875E-05-6.07246E-03 5.10557E-05 4.33674E-05-2.24088E-03 1.32958E-04 6.83296E-06



 n o d a l   p r i n t   o u t   f o r   t i m e  s t e p   18402                              ( at time 9.1995793E+00 )

 nodal point  x-disp     y-disp      z-disp      x-vel       y-vel       z-vel      x-accl      y-accl      z-accl      x-coor      y-coor      z-coor
    22626  3.28971E-03 1.59033E+00-5.95962E-01 4.73551E-03 9.09611E-01-4.58461E-03-6.07162E-03 3.16064E-01 7.70954E-02 4.66266E+00-2.66005E+01-4.55777E+01



 n o d a l   p r i n t   o u t   f o r   t i m e  s t e p   18402                              ( at time 9.1995793E+00 )

 nodal point  x-rot      y-rot       z-rot       x-rot vel   y-rot vel   z-rot vel   x-rot acc   y-rot acc   z-rot acc
    22626 -1.01134E-02 6.26397E-05 4.41631E-05-6.30426E-03 3.57235E-05 3.12668E-05-2.31821E-03-1.53337E-04-1.21018E-04



 n o d a l   p r i n t   o u t   f o r   t i m e  s t e p   18602                              ( at time 9.2995693E+00 )

 nodal point  x-disp     y-disp      z-disp      x-vel       y-vel       z-vel      x-accl      y-accl      z-accl      x-coor      y-coor      z-coor
    22626  3.77920E-03 1.68290E+00-5.95997E-01 5.06892E-03 9.41569E-01 3.83731E-03 3.33443E-03 3.19613E-01 8.42277E-02 4.66315E+00-2.65079E+01-4.55777E+01



 n o d a l   p r i n t   o u t   f o r   t i m e  s t e p   18602                              ( at time 9.2995693E+00 )

 nodal point  x-rot      y-rot       z-rot       x-rot vel   y-rot vel   z-rot vel   x-rot acc   y-rot acc   z-rot acc
    22626 -1.07556E-02 6.57411E-05 4.74741E-05-6.52365E-03 3.22467E-05 3.58091E-05-2.19405E-03-3.47715E-05 4.54274E-05



 n o d a l   p r i n t   o u t   f o r   t i m e  s t e p   18802                              ( at time 9.3995593E+00 )

 nodal point  x-disp     y-disp      z-disp      x-vel       y-vel       z-vel      x-accl      y-accl      z-accl      x-coor      y-coor      z-coor
    22626  4.35795E-03 1.77862E+00-5.95206E-01 6.03321E-03 9.72948E-01 1.21681E-02 9.64386E-03 3.13825E-01 8.33162E-02 4.66373E+00-2.64122E+01-4.55769E+01



 n o d a l   p r i n t   o u t   f o r   t i m e  s t e p   18802                              ( at time 9.3995593E+00 )

 nodal point  x-rot      y-rot       z-rot       x-rot vel   y-rot vel   z-rot vel   x-rot acc   y-rot acc   z-rot acc
    22626 -1.14187E-02 6.96602E-05 5.11206E-05-6.73207E-03 3.85368E-05 3.14991E-05-2.08448E-03 6.29071E-05-4.31039E-05



 n o d a l   p r i n t   o u t   f o r   t i m e  s t e p   19002                              ( at time 9.4995493E+00 )

 nodal point  x-disp     y-disp      z-disp      x-vel       y-vel       z-vel      x-accl      y-accl      z-accl      x-coor      y-coor      z-coor
    22626  4.94557E-03 1.87743E+00-5.93490E-01 5.86179E-03 1.00359E+00 2.24639E-02-1.71438E-03 3.06434E-01 1.02969E-01 4.66432E+00-2.63134E+01-4.55752E+01



 n o d a l   p r i n t   o u t   f o r   t i m e  s t e p   19002                              ( at time 9.4995493E+00 )

 nodal point  x-rot      y-rot       z-rot       x-rot vel   y-rot vel   z-rot vel   x-rot acc   y-rot acc   z-rot acc
    22626 -1.21034E-02 7.28551E-05 5.38392E-05-6.95500E-03 3.08156E-05 2.85821E-05-2.22947E-03-7.72201E-05-2.91732E-05



 n o d a l   p r i n t   o u t   f o r   t i m e  s t e p   19202                              ( at time 9.5995393E+00 )

 nodal point  x-disp     y-disp      z-disp      x-vel       y-vel       z-vel      x-accl      y-accl      z-accl      x-coor      y-coor      z-coor
    22626  5.51469E-03 1.97934E+00-5.90716E-01 5.67600E-03 1.03421E+00 3.26700E-02-1.85806E-03 3.06234E-01 1.02070E-01 4.66489E+00-2.62115E+01-4.55724E+01



 n o d a l   p r i n t   o u t   f o r   t i m e  s t e p   19202                              ( at time 9.5995393E+00 )

 nodal point  x-rot      y-rot       z-rot       x-rot vel   y-rot vel   z-rot vel   x-rot acc   y-rot acc   z-rot acc
    22626 -1.28089E-02 7.54302E-05 5.60109E-05-7.14437E-03 2.51856E-05 1.86078E-05-1.89388E-03-5.63051E-05-9.97520E-05



 n o d a l   p r i n t   o u t   f o r   t i m e  s t e p   19402                              ( at time 9.6995293E+00 )

 nodal point  x-disp     y-disp      z-disp      x-vel       y-vel       z-vel      x-accl      y-accl      z-accl      x-coor      y-coor      z-coor
    22626  6.11324E-03 2.08428E+00-5.86955E-01 6.18666E-03 1.06445E+00 4.24501E-02 5.10712E-03 3.02420E-01 9.78112E-02 4.66549E+00-2.61066E+01-4.55687E+01



 n o d a l   p r i n t   o u t   f o r   t i m e  s t e p   19402                              ( at time 9.6995293E+00 )

 nodal point  x-rot      y-rot       z-rot       x-rot vel   y-rot vel   z-rot vel   x-rot acc   y-rot acc   z-rot acc
    22626 -1.35321E-02 7.80489E-05 5.74279E-05-7.32553E-03 2.78594E-05 1.44908E-05-1.81179E-03 2.67404E-05-4.11742E-05



 n o d a l   p r i n t   o u t   f o r   t i m e  s t e p   19602                              ( at time 9.7995193E+00 )

 nodal point  x-disp     y-disp      z-disp      x-vel       y-vel       z-vel      x-accl      y-accl      z-accl      x-coor      y-coor      z-coor
    22626  6.72205E-03 2.19222E+00-5.82160E-01 5.89711E-03 1.09403E+00 5.32993E-02-2.89584E-03 2.95866E-01 1.08503E-01 4.66610E+00-2.59986E+01-4.55639E+01



 n o d a l   p r i n t   o u t   f o r   t i m e  s t e p   19602                              ( at time 9.7995193E+00 )

 nodal point  x-rot      y-rot       z-rot       x-rot vel   y-rot vel   z-rot vel   x-rot acc   y-rot acc   z-rot acc
    22626 -1.42742E-02 8.06720E-05 5.88395E-05-7.51947E-03 2.15833E-05 1.00882E-05-1.93961E-03-6.27665E-05-4.40300E-05



 n o d a l   p r i n t   o u t   f o r   t i m e  s t e p   19802                              ( at time 9.8995093E+00 )

 nodal point  x-disp     y-disp      z-disp      x-vel       y-vel       z-vel      x-accl      y-accl      z-accl      x-coor      y-coor      z-coor
    22626  7.30674E-03 2.30310E+00-5.76244E-01 5.78331E-03 1.12377E+00 6.45553E-02-1.13807E-03 2.97455E-01 1.12572E-01 4.66668E+00-2.58877E+01-4.55580E+01



 n o d a l   p r i n t   o u t   f o r   t i m e  s t e p   19802                              ( at time 9.8995093E+00 )

 nodal point  x-rot      y-rot       z-rot       x-rot vel   y-rot vel   z-rot vel   x-rot acc   y-rot acc   z-rot acc
    22626 -1.50336E-02 8.29539E-05 5.90370E-05-7.67545E-03 1.57117E-05-6.39746E-06-1.56001E-03-5.87228E-05-1.64874E-04



 n o d a l   p r i n t   o u t   f o r   t i m e  s t e p   20003                              ( at time 9.9999992E+00 )

 nodal point  x-disp     y-disp      z-disp      x-vel       y-vel       z-vel      x-accl      y-accl      z-accl      x-coor      y-coor      z-coor
[...]
    22626 -4.50963E-02-4.07060E-05-5.18476E-04-9.59642E-03-1.01629E-05-2.15864E-04 1.59112E-04 5.01313E-04 3.85106E-04



 n o d a l   p r i n t   o u t   f o r   t i m e  s t e p   26603                              ( at time 1.3299669E+01 )

 nodal point  x-disp     y-disp      z-disp      x-vel       y-vel       z-vel      x-accl      y-accl      z-accl      x-coor      y-coor      z-coor
    22626  5.91579E-03 7.07299E+00 1.11043E+00 5.31587E-04 1.47931E+00 1.11716E+00 3.62298E-03-3.16557E-02 4.02780E-01 4.66529E+00-2.11178E+01-4.38713E+01



 n o d a l   p r i n t   o u t   f o r   t i m e  s t e p   26603                              ( at time 1.3299669E+01 )

 nodal point  x-rot      y-rot       z-rot       x-rot vel   y-rot vel   z-rot vel   x-rot acc   y-rot acc   z-rot acc
    22626 -4.60544E-02-4.08737E-05-5.40086E-04-9.57995E-03-1.92631E-05-2.38755E-04 1.64702E-04-9.10114E-05-2.28935E-04



 n o d a l   p r i n t   o u t   f o r   t i m e  s t e p   26803                              ( at time 1.3399659E+01 )

 nodal point  x-disp     y-disp      z-disp      x-vel       y-vel       z-vel      x-accl      y-accl      z-accl      x-coor      y-coor      z-coor
    22626  5.83300E-03 7.22080E+00 1.22419E+00-1.97965E-03 1.47596E+00 1.15756E+00-2.51149E-02-3.34356E-02 4.03978E-01 4.66521E+00-2.09700E+01-4.37575E+01



 n o d a l   p r i n t   o u t   f o r   t i m e  s t e p   26803                              ( at time 1.3399659E+01 )

 nodal point  x-rot      y-rot       z-rot       x-rot vel   y-rot vel   z-rot vel   x-rot acc   y-rot acc   z-rot acc
    22626 -4.70116E-02-4.53251E-05-5.65890E-04-9.58072E-03-7.14288E-05-2.61002E-04-7.73076E-06-5.21709E-04-2.22487E-04



 n o d a l   p r i n t   o u t   f o r   t i m e  s t e p   27003                              ( at time 1.3499649E+01 )

 nodal point  x-disp     y-disp      z-disp      x-vel       y-vel       z-vel      x-accl      y-accl      z-accl      x-coor      y-coor      z-coor
    22626  5.66231E-03 7.36825E+00 1.34206E+00-1.62539E-04 1.47258E+00 1.19852E+00 1.81729E-02-3.38159E-02 4.09701E-01 4.66504E+00-2.08226E+01-4.36397E+01



 n o d a l   p r i n t   o u t   f o r   t i m e  s t e p   27003                              ( at time 1.3499649E+01 )

 nodal point  x-rot      y-rot       z-rot       x-rot vel   y-rot vel   z-rot vel   x-rot acc   y-rot acc   z-rot acc
    22626 -4.79672E-02-4.99442E-05-5.90780E-04-9.56333E-03-1.57126E-05-2.43399E-04 1.73923E-04 5.57218E-04 1.76045E-04



 n o d a l   p r i n t   o u t   f o r   t i m e  s t e p   27203                              ( at time 1.3599639E+01 )

 nodal point  x-disp     y-disp      z-disp      x-vel       y-vel       z-vel      x-accl      y-accl      z-accl      x-coor      y-coor      z-coor
    22626  5.75498E-03 7.51535E+00 1.46400E+00 1.56367E-03 1.46889E+00 1.23826E+00 1.72639E-02-3.69264E-02 3.97439E-01 4.66513E+00-2.06755E+01-4.35177E+01



 n o d a l   p r i n t   o u t   f o r   t i m e  s t e p   27203                              ( at time 1.3599639E+01 )

 nodal point  x-rot      y-rot       z-rot       x-rot vel   y-rot vel   z-rot vel   x-rot acc   y-rot acc   z-rot acc
    22626 -4.89205E-02-4.99217E-05-6.14745E-04-9.54289E-03 2.71062E-07-2.44247E-04 2.04483E-04 1.59853E-04-8.48346E-06



 n o d a l   p r i n t   o u t   f o r   t i m e  s t e p   27403                              ( at time 1.3699629E+01 )

 nodal point  x-disp     y-disp      z-disp      x-vel       y-vel       z-vel      x-accl      y-accl      z-accl      x-coor      y-coor      z-coor
    22626  5.75465E-03 7.66207E+00 1.58981E+00-1.89472E-03 1.46614E+00 1.27723E+00-3.45874E-02-2.74543E-02 3.89702E-01 4.66513E+00-2.05288E+01-4.33919E+01



 n o d a l   p r i n t   o u t   f o r   t i m e  s t e p   27403                              ( at time 1.3699629E+01 )

 nodal point  x-rot      y-rot       z-rot       x-rot vel   y-rot vel   z-rot vel   x-rot acc   y-rot acc   z-rot acc
    22626 -4.98733E-02-5.41225E-05-6.41507E-04-9.53876E-03-6.02833E-05-2.79532E-04 4.12338E-05-6.05605E-04-3.52885E-04



 n o d a l   p r i n t   o u t   f o r   t i m e  s t e p   27603                              ( at time 1.3799619E+01 )

 nodal point  x-disp     y-disp      z-disp      x-vel       y-vel       z-vel      x-accl      y-accl      z-accl      x-coor      y-coor      z-coor
    22626  5.45406E-03 7.80849E+00 1.71956E+00-2.56183E-03 1.46252E+00 1.31661E+00-6.67178E-03-3.62719E-02 3.93831E-01 4.66483E+00-2.03823E+01-4.32622E+01



 n o d a l   p r i n t   o u t   f o r   t i m e  s t e p   27603                              ( at time 1.3799619E+01 )

 nodal point  x-rot      y-rot       z-rot       x-rot vel   y-rot vel   z-rot vel   x-rot acc   y-rot acc   z-rot acc
    22626 -5.08242E-02-6.19071E-05-6.71001E-04-9.50445E-03-5.63714E-05-3.01098E-04 3.43190E-04 3.91233E-05-2.15683E-04



 n o d a l   p r i n t   o u t   f o r   t i m e  s t e p   27803                              ( at time 1.3899609E+01 )

 nodal point  x-disp     y-disp      z-disp      x-vel       y-vel       z-vel      x-accl      y-accl      z-accl      x-coor      y-coor      z-coor
    22626  5.37588E-03 7.95458E+00 1.85317E+00 5.01430E-04 1.45914E+00 1.35580E+00 3.06357E-02-3.37313E-02 3.91908E-01 4.66475E+00-2.02363E+01-4.31286E+01



 n o d a l   p r i n t   o u t   f o r   t i m e  s t e p   27803                              ( at time 1.3899609E+01 )

 nodal point  x-rot      y-rot       z-rot       x-rot vel   y-rot vel   z-rot vel   x-rot acc   y-rot acc   z-rot acc
    22626 -5.17736E-02-6.52548E-05-7.00548E-04-9.52798E-03-1.64432E-05-2.79388E-04-2.35388E-04 3.99322E-04 2.17130E-04



 n o d a l   p r i n t   o u t   f o r   t i m e  s t e p   28003                              ( at time 1.3999599E+01 )

 nodal point  x-disp     y-disp      z-disp      x-vel       y-vel       z-vel      x-accl      y-accl      z-accl      x-coor      y-coor      z-coor
    22626  5.39755E-03 8.09981E+00 1.99120E+00-1.15038E-03 1.45072E+00 1.40226E+00-1.65198E-02-8.42132E-02 4.64732E-01 4.66477E+00-2.00910E+01-4.29905E+01



 n o d a l   p r i n t   o u t   f o r   t i m e  s t e p   28003                              ( at time 1.3999599E+01 )

 nodal point  x-rot      y-rot       z-rot       x-rot vel   y-rot vel   z-rot vel   x-rot acc   y-rot acc   z-rot acc
    22626 -5.27243E-02-6.92007E-05-7.29783E-04-9.52611E-03-8.59778E-05-3.04414E-04 1.87401E-05-6.95416E-04-2.50288E-04



 n o d a l   p r i n t   o u t   f o r   t i m e  s t e p   28203                              ( at time 1.4099589E+01 )

 nodal point  x-disp     y-disp      z-disp      x-vel       y-vel       z-vel      x-accl      y-accl      z-accl      x-coor      y-coor      z-coor
    22626  5.02273E-03 8.24469E+00 2.13301E+00-4.91117E-03 1.44876E+00 1.43798E+00-3.76114E-02-1.96642E-02 3.57175E-01 4.66440E+00-1.99461E+01-4.28487E+01



 n o d a l   p r i n t   o u t   f o r   t i m e  s t e p   28203                              ( at time 1.4099589E+01 )

 nodal point  x-rot      y-rot       z-rot       x-rot vel   y-rot vel   z-rot vel   x-rot acc   y-rot acc   z-rot acc
    22626 -5.36759E-02-8.04708E-05-7.65568E-04-9.49139E-03-1.26593E-04-3.75227E-04 3.47210E-04-4.06193E-04-7.08195E-04



 n o d a l   p r i n t   o u t   f o r   t i m e  s t e p   28403                              ( at time 1.4199579E+01 )

 nodal point  x-disp     y-disp      z-disp      x-vel       y-vel       z-vel      x-accl      y-accl      z-accl      x-coor      y-coor      z-coor
    22626  4.71473E-03 8.38879E+00 2.27891E+00-1.22735E-03 1.43734E+00 1.48336E+00 3.68420E-02-1.14207E-01 4.53852E-01 4.66409E+00-1.98020E+01-4.27028E+01



 n o d a l   p r i n t   o u t   f o r   t i m e  s t e p   28403                              ( at time 1.4199579E+01 )

 nodal point  x-rot      y-rot       z-rot       x-rot vel   y-rot vel   z-rot vel   x-rot acc   y-rot acc   z-rot acc
    22626 -5.46279E-02-8.85666E-05-8.01614E-04-9.48305E-03-4.28321E-05-3.24100E-04 8.34736E-05 8.37698E-04 5.11324E-04



 n o d a l   p r i n t   o u t   f o r   t i m e  s t e p   28603                              ( at time 1.4299569E+01 )

 nodal point  x-disp     y-disp      z-disp      x-vel       y-vel       z-vel      x-accl      y-accl      z-accl      x-coor      y-coor      z-coor
    22626  4.60179E-03 8.53230E+00 2.42875E+00-1.95834E-03 1.43349E+00 1.51813E+00-7.31061E-03-3.84811E-02 3.47778E-01 4.66398E+00-1.96585E+01-4.25530E+01



 n o d a l   p r i n t   o u t   f o r   t i m e  s t e p   28603                              ( at time 1.4299569E+01 )

 nodal point  x-rot      y-rot       z-rot       x-rot vel   y-rot vel   z-rot vel   x-rot acc   y-rot acc   z-rot acc
    22626 -5.55825E-02-9.44138E-05-8.36424E-04-9.52791E-03-9.75579E-05-3.73345E-04-4.48673E-04-5.47314E-04-4.92502E-04



 n o d a l   p r i n t   o u t   f o r   t i m e  s t e p   28803                              ( at time 1.4399559E+01 )

 nodal point  x-disp     y-disp      z-disp      x-vel       y-vel       z-vel      x-accl      y-accl      z-accl      x-coor      y-coor      z-coor
    22626  4.16997E-03 8.67531E+00 2.58251E+00-5.91748E-03 1.42878E+00 1.55880E+00-3.95955E-02-4.70698E-02 4.06764E-01 4.66355E+00-1.95155E+01-4.23992E+01



 n o d a l   p r i n t   o u t   f o r   t i m e  s t e p   28803                              ( at time 1.4399559E+01 )

 nodal point  x-rot      y-rot       z-rot       x-rot vel   y-rot vel   z-rot vel   x-rot acc   y-rot acc   z-rot acc
    22626 -5.65402E-02-1.06624E-04-8.75632E-04-9.57618E-03-1.22090E-04-4.01575E-04-4.82744E-04-2.45344E-04-2.82331E-04



 n o d a l   p r i n t   o u t   f o r   t i m e  s t e p   29003                              ( at time 1.4499549E+01 )

 nodal point  x-disp     y-disp      z-disp      x-vel       y-vel       z-vel      x-accl      y-accl      z-accl      x-coor      y-coor      z-coor
    22626  3.62417E-03 8.81778E+00 2.73994E+00-4.31572E-03 1.41998E+00 1.59122E+00 1.60192E-02-8.80307E-02 3.24214E-01 4.66300E+00-1.93730E+01-4.22418E+01



 n o d a l   p r i n t   o u t   f o r   t i m e  s t e p   29003                              ( at time 1.4499549E+01 )

 nodal point  x-rot      y-rot       z-rot       x-rot vel   y-rot vel   z-rot vel   x-rot acc   y-rot acc   z-rot acc
    22626 -5.74985E-02-1.18280E-04-9.16983E-04-9.60924E-03-9.31033E-05-4.30939E-04-3.30606E-04 2.89895E-04-2.93671E-04



 n o d a l   p r i n t   o u t   f o r   t i m e  s t e p   29203                              ( at time 1.4599539E+01 )

 nodal point  x-disp     y-disp      z-disp      x-vel       y-vel       z-vel      x-accl      y-accl      z-accl      x-coor      y-coor      z-coor
    22626  3.11976E-03 8.95963E+00 2.90092E+00-6.37497E-03 1.41900E+00 1.62676E+00-2.05946E-02-9.80715E-03 3.55375E-01 4.66249E+00-1.92312E+01-4.20808E+01



 n o d a l   p r i n t   o u t   f o r   t i m e  s t e p   29203                              ( at time 1.4599539E+01 )

 nodal point  x-rot      y-rot       z-rot       x-rot vel   y-rot vel   z-rot vel   x-rot acc   y-rot acc   z-rot acc
    22626 -5.84607E-02-1.28991E-04-9.61150E-04-9.72843E-03-1.18439E-04-4.55657E-04-1.19210E-03-2.53384E-04-2.47198E-04



 n o d a l   p r i n t   o u t   f o r   t i m e  s t e p   29403                              ( at time 1.4699529E+01 )

 nodal point  x-disp     y-disp      z-disp      x-vel       y-vel       z-vel      x-accl      y-accl      z-accl      x-coor      y-coor      z-coor
    22626  2.52608E-03 9.10126E+00 3.06555E+00-6.68044E-03 1.41119E+00 1.66296E+00-3.05496E-03-7.81174E-02 3.62068E-01 4.66190E+00-1.90896E+01-4.19162E+01



 n o d a l   p r i n t   o u t   f o r   t i m e  s t e p   29403                              ( at time 1.4699529E+01 )

 nodal point  x-rot      y-rot       z-rot       x-rot vel   y-rot vel   z-rot vel   x-rot acc   y-rot acc   z-rot acc
    22626 -5.94296E-02-1.42647E-04-1.00452E-03-9.72619E-03-1.59499E-04-4.49982E-04 2.24658E-05-4.10644E-04 5.67503E-05



 n o d a l   p r i n t   o u t   f o r   t i m e  s t e p   29604                              ( at time 1.4800019E+01 )

 nodal point  x-disp     y-disp      z-disp      x-vel       y-vel       z-vel      x-accl      y-accl      z-accl      x-coor      y-coor      z-coor
    22626  1.85685E-03 9.24307E+00 3.23446E+00-6.67910E-03 1.40993E+00 1.69684E+00 1.33270E-05-1.25721E-02 3.37122E-01 4.66123E+00-1.89478E+01-4.17473E+01



 n o d a l   p r i n t   o u t   f o r   t i m e  s t e p   29604                              ( at time 1.4800019E+01 )

 nodal point  x-rot      y-rot       z-rot       x-rot vel   y-rot vel   z-rot vel   x-rot acc   y-rot acc   z-rot acc
    22626 -6.04044E-02-1.57008E-04-1.05083E-03-9.73909E-03-1.43629E-04-5.00094E-04-1.28423E-04 1.57927E-04-4.98675E-04



 n o d a l   p r i n t   o u t   f o r   t i m e  s t e p   29804                              ( at time 1.4900009E+01 )

 nodal point  x-disp     y-disp      z-disp      x-vel       y-vel       z-vel      x-accl      y-accl      z-accl      x-coor      y-coor      z-coor
    22626  1.01937E-03 9.38387E+00 3.40559E+00-8.96365E-03 1.40724E+00 1.72789E+00-2.28478E-02-2.68403E-02 3.10538E-01 4.66039E+00-1.88070E+01-4.15761E+01



 n o d a l   p r i n t   o u t   f o r   t i m e  s t e p   29804                              ( at time 1.4900009E+01 )

 nodal point  x-rot      y-rot       z-rot       x-rot vel   y-rot vel   z-rot vel   x-rot acc   y-rot acc   z-rot acc
    22626 -6.13830E-02-1.71061E-04-1.10088E-03-9.80230E-03-1.69063E-04-5.16958E-04-6.32171E-04-2.54364E-04-1.68654E-04



 n o d a l   p r i n t   o u t   f o r   t i m e  s t e p   30004                              ( at time 1.4999999E+01 )

 nodal point  x-disp     y-disp      z-disp      x-vel       y-vel       z-vel      x-accl      y-accl      z-accl      x-coor      y-coor      z-coor
    22626  1.21323E-04 9.52439E+00 3.57995E+00-9.84789E-03 1.40444E+00 1.76108E+00-8.84331E-03-2.80099E-02 3.31952E-01 4.65950E+00-1.86664E+01-4.14018E+01



 n o d a l   p r i n t   o u t   f o r   t i m e  s t e p   30004                              ( at time 1.4999999E+01 )

 nodal point  x-rot      y-rot       z-rot       x-rot vel   y-rot vel   z-rot vel   x-rot acc   y-rot acc   z-rot acc
    22626 -6.23655E-02-1.89085E-04-1.15228E-03-9.80919E-03-1.83883E-04-4.99830E-04-6.88410E-05-1.48215E-04 1.71297E-04



 n o d a l   p r i n t   o u t   f o r   t i m e  s t e p   30204                              ( at time 1.5099989E+01 )

 nodal point  x-disp     y-disp      z-disp      x-vel       y-vel       z-vel      x-accl      y-accl      z-accl      x-coor      y-coor      z-coor
    22626 -8.58230E-04 9.66476E+00 3.75729E+00-1.06591E-02 1.40368E+00 1.78604E+00-8.11290E-03-7.61944E-03 2.49657E-01 4.65852E+00-1.85261E+01-4.12244E+01



 n o d a l   p r i n t   o u t   f o r   t i m e  s t e p   30204                              ( at time 1.5099989E+01 )

 nodal point  x-rot      y-rot       z-rot       x-rot vel   y-rot vel   z-rot vel   x-rot acc   y-rot acc   z-rot acc
    22626 -6.33537E-02-2.05217E-04-1.20424E-03-9.91589E-03-1.54700E-04-5.37251E-04-1.06719E-03 2.91862E-04-3.74247E-04



 n o d a l   p r i n t   o u t   f o r   t i m e  s t e p   30404                              ( at time 1.5199979E+01 )

 nodal point  x-disp     y-disp      z-disp      x-vel       y-vel       z-vel      x-accl      y-accl      z-accl      x-coor      y-coor      z-coor
    22626 -1.97180E-03 9.80501E+00 3.93726E+00-1.22911E-02 1.40113E+00 1.81423E+00-1.63216E-02-2.55360E-02 2.81875E-01 4.65740E+00-1.83858E+01-4.10445E+01



 n o d a l   p r i n t   o u t   f o r   t i m e  s t e p   30404                              ( at time 1.5199979E+01 )

 nodal point  x-rot      y-rot       z-rot       x-rot vel   y-rot vel   z-rot vel   x-rot acc   y-rot acc   z-rot acc
    22626 -6.43509E-02-2.22325E-04-1.25867E-03-9.98198E-03-1.79555E-04-5.67708E-04-6.60877E-04-2.48573E-04-3.04598E-04



 n o d a l   p r i n t   o u t   f o r   t i m e  s t e p   30604                              ( at time 1.5299969E+01 )

 nodal point  x-disp     y-disp      z-disp      x-vel       y-vel       z-vel      x-accl      y-accl      z-accl      x-coor      y-coor      z-coor
    22626 -3.28640E-03 9.94532E+00 4.12006E+00-1.31769E-02 1.40189E+00 1.84066E+00-8.85883E-03 7.63851E-03 2.64316E-01 4.65609E+00-1.82455E+01-4.08617E+01



 n o d a l   p r i n t   o u t   f o r   t i m e  s t e p   30604                              ( at time 1.5299969E+01 )

 nodal point  x-rot      y-rot       z-rot       x-rot vel   y-rot vel   z-rot vel   x-rot acc   y-rot acc   z-rot acc
    22626 -6.53532E-02-2.41330E-04-1.31563E-03-1.00414E-02-1.78248E-04-5.63500E-04-5.94374E-04 1.30679E-05 4.20791E-05



 n o d a l   p r i n t   o u t   f o r   t i m e  s t e p   30804                              ( at time 1.5399959E+01 )

 nodal point  x-disp     y-disp      z-disp      x-vel       y-vel       z-vel      x-accl      y-accl      z-accl      x-coor      y-coor      z-coor
    22626 -4.72529E-03 1.00855E+01 4.30525E+00-1.50598E-02 1.40064E+00 1.86200E+00-1.88308E-02-1.25647E-02 2.13403E-01 4.65465E+00-1.81053E+01-4.06765E+01



 n o d a l   p r i n t   o u t   f o r   t i m e  s t e p   30804                              ( at time 1.5399959E+01 )

 nodal point  x-rot      y-rot       z-rot       x-rot vel   y-rot vel   z-rot vel   x-rot acc   y-rot acc   z-rot acc
    22626 -6.63618E-02-2.61730E-04-1.37544E-03-1.01426E-02-2.00185E-04-6.08717E-04-1.01163E-03-2.19392E-04-4.52216E-04



 n o d a l   p r i n t   o u t   f o r   t i m e  s t e p   31004                              ( at time 1.5499949E+01 )

 nodal point  x-disp     y-disp      z-disp      x-vel       y-vel       z-vel      x-accl      y-accl      z-accl      x-coor      y-coor      z-coor
    22626 -6.34468E-03 1.02259E+01 4.49265E+00-1.66755E-02 1.40532E+00 1.88495E+00-1.61587E-02 4.68111E-02 2.29549E-01 4.65303E+00-1.79649E+01-4.04891E+01



 n o d a l   p r i n t   o u t   f o r   t i m e  s t e p   31004                              ( at time 1.5499949E+01 )

 nodal point  x-rot      y-rot       z-rot       x-rot vel   y-rot vel   z-rot vel   x-rot acc   y-rot acc   z-rot acc
    22626 -6.73809E-02-2.83676E-04-1.43848E-03-1.02500E-02-2.30060E-04-6.22400E-04-1.07422E-03-2.98777E-04-1.36844E-04



 n o d a l   p r i n t   o u t   f o r   t i m e  s t e p   31204                              ( at time 1.5599939E+01 )

 nodal point  x-disp     y-disp      z-disp      x-vel       y-vel       z-vel      x-accl      y-accl      z-accl      x-coor      y-coor      z-coor
    22626 -8.16144E-03 1.03664E+01 4.68245E+00-1.94548E-02 1.40584E+00 1.90811E+00-2.77957E-02 5.27793E-03 2.31604E-01 4.65121E+00-1.78244E+01-4.02993E+01



 n o d a l   p r i n t   o u t   f o r   t i m e  s t e p   31204                              ( at time 1.5599939E+01 )

 nodal point  x-rot      y-rot       z-rot       x-rot vel   y-rot vel   z-rot vel   x-rot acc   y-rot acc   z-rot acc
    22626 -6.84057E-02-3.06620E-04-1.50349E-03-1.02861E-02-2.39153E-04-6.66139E-04-3.61520E-04-9.09403E-05-4.37432E-04



 n o d a l   p r i n t   o u t   f o r   t i m e  s t e p   31404                              ( at time 1.5699929E+01 )

 nodal point  x-disp     y-disp      z-disp      x-vel       y-vel       z-vel      x-accl      y-accl      z-accl      x-coor      y-coor      z-coor
    22626 -1.02397E-02 1.05072E+01 4.87417E+00-2.08336E-02 1.40985E+00 1.92602E+00-1.37896E-02 4.00298E-02 1.79186E-01 4.64914E+00-1.76837E+01-4.01075E+01



 n o d a l   p r i n t   o u t   f o r   t i m e  s t e p   31404                              ( at time 1.5699929E+01 )

 nodal point  x-rot      y-rot       z-rot       x-rot vel   y-rot vel   z-rot vel   x-rot acc   y-rot acc   z-rot acc
    22626 -6.94383E-02-3.31234E-04-1.57272E-03-1.04069E-02-2.56900E-04-7.08434E-04-1.20750E-03-1.77493E-04-4.22988E-04
