 LSTC 50th% Full_FE H-III Dummy (Beta Version, February 17, 2019)        
                    ls-dyna smp s R16 R16.0_619_d222963 date 03/18/2025

{BEGIN LEGEND}
 Entity #        Title
        1     Upper_Neck_Force_INJURY                                              
{END LEGEND}



 line#1  section#     time        x-force     y-force     z-force    magnitude
 line#2  resultant  moments       x-moment    y-moment    z-moment   magnitude
 line#3  centroids                x           y           z            area  
           1    0.00000E+00     0.0000E+00  0.0000E+00  0.0000E+00  0.0000E+00
ac ID =   33377                 0.0000E+00  0.0000E+00  0.0000E+00  0.0000E+00
                               -3.7437E-01  1.0501E+01 -4.6940E+01  0.0000E+00

           1    1.00490E-01     1.3359E-04 -4.9912E-03  2.5982E-01  2.5986E-01
ac ID =   33377                 4.2544E-01 -1.2521E+00 -2.7105E-02  1.3227E+00
                               -3.7387E-01  1.0590E+01 -4.6886E+01  2.5147E+03

           1    2.00480E-01    -4.4380E-02  6.3226E-04  4.4137E-01  4.4360E-01
ac ID =   33377                 3.0674E-01 -1.5966E+00  2.1755E-02  1.6259E+00
                               -3.7386E-01  1.0591E+01 -4.6888E+01  2.5147E+03

           1    3.00470E-01     1.4803E-02 -2.8924E-03  2.1739E-01  2.1791E-01
ac ID =   33377                 3.0805E-02 -3.3704E-01  5.8998E-02  3.4355E-01
                               -3.7382E-01  1.0591E+01 -4.6889E+01  2.5147E+03

           1    4.00460E-01     2.7227E-03  1.0730E-02  8.7955E-02  8.8649E-02
ac ID =   33377                -4.9705E-01 -9.4092E-01 -4.9928E-03  1.0641E+00
                               -3.7383E-01  1.0592E+01 -4.6890E+01  2.5147E+03

           1    5.00450E-01    -4.0494E-02  4.5113E-03  1.6181E-01  1.6686E-01
ac ID =   33377                -3.9670E-01 -1.5102E+00 -1.0876E-01  1.5652E+00
                               -3.7385E-01  1.0594E+01 -4.6893E+01  2.5147E+03

           1    6.00440E-01    -1.0700E-02  4.1921E-03  3.4327E-01  3.4346E-01
ac ID =   33377                 9.3260E-02 -1.3233E+00 -3.8704E-02  1.3272E+00
                               -3.7385E-01  1.0595E+01 -4.6897E+01  2.5147E+03

           1    7.00430E-01     2.9795E-03 -5.2873E-03  2.9450E-01  2.9456E-01
ac ID =   33377                 1.4235E-01 -4.9765E-01  7.9190E-02  5.2363E-01
                               -3.7389E-01  1.0597E+01 -4.6901E+01  2.5147E+03

           1    8.00420E-01    -3.0593E-02 -1.0247E-03  1.0059E-01  1.0514E-01
ac ID =   33377                 8.5765E-02 -1.0550E+00  4.9482E-02  1.0596E+00
                               -3.7394E-01  1.0599E+01 -4.6905E+01  2.5147E+03

           1    9.00410E-01    -3.9276E-02  8.7239E-04  6.2394E-02  7.3732E-02
ac ID =   33377                 9.1506E-02 -1.0650E+00 -5.3245E-03  1.0690E+00
                               -3.7399E-01  1.0601E+01 -4.6909E+01  2.5147E+03

           1    1.00040E+00     1.4860E-02 -3.8292E-03  2.2045E-01  2.2098E-01
ac ID =   33377                 3.6531E-01 -2.9023E-01 -5.8991E-02  4.7028E-01
                               -3.7400E-01  1.0604E+01 -4.6915E+01  2.5147E+03

           1    1.10039E+00     4.3667E-04 -3.1451E-03  2.7053E-01  2.7054E-01
ac ID =   33377                 3.4574E-01 -8.8503E-01 -5.4100E-02  9.5170E-01
                               -3.7401E-01  1.0607E+01 -4.6921E+01  2.5147E+03

           1    1.20038E+00    -3.2446E-02 -7.6699E-04  1.2923E-01  1.3324E-01
ac ID =   33377                -1.5573E-01 -1.1792E+00  9.7326E-03  1.1894E+00
                               -3.7403E-01  1.0610E+01 -4.6927E+01  2.5147E+03

           1    1.30037E+00    -1.0430E-02  5.0022E-03  7.4712E-02  7.5602E-02
ac ID =   33377                -3.0249E-01 -8.9122E-01  1.4420E-02  9.4127E-01
                               -3.7407E-01  1.0612E+01 -4.6933E+01  2.5147E+03

           1    1.40036E+00     8.0140E-03  3.7254E-03  1.7339E-01  1.7361E-01
ac ID =   33377                -2.8893E-01 -8.3603E-01  3.4562E-02  8.8522E-01
                               -3.7409E-01  1.0616E+01 -4.6941E+01  2.5147E+03

           1    1.50035E+00    -2.7057E-02  1.1925E-03  3.2858E-01  3.2970E-01
ac ID =   33377                -1.8977E-02 -1.5874E+00 -4.3656E-02  1.5881E+00
                               -3.7413E-01  1.0620E+01 -4.6949E+01  2.5147E+03

           1    1.60034E+00    -1.9275E-02 -2.2804E-03  2.2088E-01  2.2173E-01
ac ID =   33377                -2.2018E-02 -1.3768E+00 -7.0051E-03  1.3770E+00
                               -3.7420E-01  1.0624E+01 -4.6957E+01  2.5147E+03

           1    1.70033E+00    -2.8591E-03 -7.1216E-04  5.9069E-02  5.9143E-02
ac ID =   33377                -4.4218E-02 -6.7131E-01  8.3562E-02  6.7793E-01
                               -3.7427E-01  1.0627E+01 -4.6965E+01  2.5147E+03

           1    1.80032E+00    -2.0271E-02  9.6309E-04  7.7074E-02  7.9701E-02
ac ID =   33377                 8.3790E-02 -1.1078E+00  1.2605E-01  1.1181E+00
                               -3.7434E-01  1.0632E+01 -4.6974E+01  2.5147E+03

           1    1.90031E+00    -7.9915E-03 -2.6598E-03  1.9170E-01  1.9189E-01
ac ID =   33377                 2.6822E-01 -8.2695E-01 -7.3138E-02  8.7243E-01
                               -3.7439E-01  1.0636E+01 -4.6984E+01  2.5147E+03

           1    2.00030E+00    -1.8752E-03 -4.3930E-03  1.5672E-01  1.5679E-01
ac ID =   33377                 2.0452E-01 -4.4933E-01 -1.3982E-01  5.1310E-01
                               -3.7444E-01  1.0641E+01 -4.6993E+01  2.5147E+03

           1    2.10029E+00    -2.5141E-02  2.6058E-03  2.6595E-03  2.5415E-02
ac ID =   33377                -7.6534E-02 -6.9567E-01  4.5049E-02  7.0132E-01
                               -3.7450E-01  1.0645E+01 -4.7003E+01  2.5147E+03

           1    2.20028E+00    -1.2825E-02  4.9563E-03  3.6476E-03  1.4225E-02
ac ID =   33377                -2.3299E-01 -6.5887E-01  2.5421E-02  6.9932E-01
                               -3.7456E-01  1.0650E+01 -4.7013E+01  2.5147E+03

           1    2.30027E+00     8.0106E-04  4.5019E-03  1.4874E-01  1.4881E-01
ac ID =   33377                -1.5290E-01 -8.1123E-01 -6.5368E-02  8.2810E-01
                               -3.7462E-01  1.0655E+01 -4.7024E+01  2.5147E+03

           1    2.40026E+00    -1.7430E-02 -1.5895E-03  1.8803E-01  1.8884E-01
ac ID =   33377                -1.4850E-01 -1.1876E+00  8.1311E-02  1.1996E+00
                               -3.7469E-01  1.0661E+01 -4.7035E+01  2.5147E+03

           1    2.50025E+00    -1.8712E-02  1.2727E-03  4.9400E-04  1.8762E-02
ac ID =   33377                -1.9618E-01 -8.8784E-01  1.3068E-01  9.1860E-01
                               -3.7479E-01  1.0665E+01 -4.7045E+01  2.5147E+03

           1    2.60024E+00    -6.7113E-03  5.6474E-03 -7.6698E-02  7.7198E-02
ac ID =   33377                -2.1180E-01 -1.8492E-01  3.8780E-02  2.8383E-01
                               -3.7490E-01  1.0671E+01 -4.7056E+01  2.5147E+03

           1    2.70023E+00    -1.2218E-02 -1.8601E-03  9.7723E-03  1.5756E-02
ac ID =   33377                 3.4639E-02 -2.1532E-01  3.4059E-02  2.2073E-01
                               -3.7501E-01  1.0676E+01 -4.7068E+01  2.5147E+03

           1    2.80022E+00    -5.8367E-03 -4.9722E-03  6.3925E-02  6.4384E-02
ac ID =   33377                 3.6878E-01 -1.3630E-01 -1.2418E-02  3.9335E-01
                               -3.7510E-01  1.0682E+01 -4.7079E+01  2.5147E+03

           1    2.90021E+00     5.1594E-03 -2.4864E-03 -1.0128E-02  1.1635E-02
ac ID =   33377                 1.4498E-01  3.1663E-01 -7.7725E-02  3.5681E-01
                               -3.7520E-01  1.0687E+01 -4.7090E+01  2.5147E+03

           1    3.00020E+00    -7.4311E-03  2.1798E-03 -8.8573E-02  8.8911E-02
ac ID =   33377                -3.6547E-02  8.1905E-02 -4.9669E-02  1.0252E-01
                               -3.7530E-01  1.0692E+01 -4.7101E+01  2.5147E+03

           1    3.10019E+00    -2.8143E-03  2.6306E-04 -8.8507E-03  9.2911E-03
ac ID =   33377                 4.1241E-02 -2.5382E-01 -3.1253E-02  2.5904E-01
                               -3.7538E-01  1.0698E+01 -4.7113E+01  2.5147E+03

           1    3.20018E+00     3.4934E-03  1.8275E-03  6.9306E-02  6.9418E-02
ac ID =   33377                -1.9588E-02 -3.3516E-01  2.4139E-02  3.3660E-01
                               -3.7545E-01  1.0703E+01 -4.7125E+01  2.5147E+03

           1    3.30017E+00     3.9443E-04  1.0717E-03  1.3693E-02  1.3741E-02
ac ID =   33377                -2.3244E-01 -3.5974E-01  1.1002E-01  4.4221E-01
                               -3.7554E-01  1.0708E+01 -4.7137E+01  2.5147E+03

           1    3.40016E+00    -2.4987E-03  2.9455E-03 -1.0119E-01  1.0127E-01
ac ID =   33377                -3.0921E-01 -3.2246E-02  1.1632E-01  3.3194E-01
                               -3.7565E-01  1.0713E+01 -4.7148E+01  2.5147E+03

           1    3.50015E+00    -4.8338E-03  3.1320E-03 -1.3180E-01  1.3192E-01
ac ID =   33377                -1.5806E-01  2.6886E-01  4.3035E-02  3.1484E-01
                               -3.7576E-01  1.0719E+01 -4.7160E+01  2.5147E+03

           1    3.60014E+00     5.7901E-03 -3.1377E-03 -5.2868E-02  5.3277E-02
ac ID =   33377                 1.1857E-01  7.3876E-01 -1.0002E-01  7.5487E-01
                               -3.7586E-01  1.0724E+01 -4.7172E+01  2.5147E+03

           1    3.70013E+00     1.0504E-02 -5.0249E-03 -4.6610E-02  4.8042E-02
ac ID =   33377                 3.0957E-01  8.6428E-01 -1.6711E-01  9.3313E-01
                               -3.7595E-01  1.0729E+01 -4.7183E+01  2.5147E+03

           1    3.80012E+00     7.4842E-03 -2.8952E-03 -1.2863E-01  1.2888E-01
ac ID =   33377                 2.4878E-01  1.0816E+00 -6.7947E-02  1.1119E+00
                               -3.7605E-01  1.0734E+01 -4.7195E+01  2.5147E+03

           1    3.90011E+00     8.5363E-03 -4.6779E-04 -1.8988E-01  1.9007E-01
ac ID =   33377                 1.6878E-01  1.1296E+00 -5.5658E-02  1.1435E+00
                               -3.7613E-01  1.0739E+01 -4.7206E+01  2.5147E+03

           1    4.00010E+00     2.0732E-03 -8.8602E-04 -1.3559E-01  1.3561E-01
ac ID =   33377                -2.6674E-02  7.1004E-01 -2.0516E-02  7.1083E-01
                               -3.7618E-01  1.0744E+01 -4.7217E+01  2.5147E+03

           1    4.10009E+00     3.8574E-03 -3.3576E-04 -9.7977E-02  9.8053E-02
ac ID =   33377                -6.9812E-02  5.3950E-01  7.1071E-03  5.4405E-01
                               -3.7623E-01  1.0748E+01 -4.7228E+01  2.5147E+03

           1    4.20008E+00    -1.4533E-03  2.9748E-03 -1.4128E-01  1.4132E-01
ac ID =   33377                -2.2540E-01  5.2166E-01  9.9593E-02  5.7693E-01
                               -3.7629E-01  1.0753E+01 -4.7239E+01  2.5147E+03

           1    4.30007E+00     2.4357E-03  4.8565E-03 -2.3909E-01  2.3915E-01
ac ID =   33377                -3.3754E-01  9.1579E-01  8.6725E-02  9.7986E-01
                               -3.7637E-01  1.0757E+01 -4.7249E+01  2.5147E+03

           1    4.40006E+00     1.1582E-02  4.3082E-03 -2.0546E-01  2.0583E-01
ac ID =   33377                -1.3570E-01  1.2228E+00  3.2262E-02  1.2308E+00
                               -3.7644E-01  1.0761E+01 -4.7259E+01  2.5147E+03

           1    4.50005E+00     7.1506E-03 -2.4464E-03 -1.2031E-01  1.2055E-01
ac ID =   33377                 2.2275E-01  9.7942E-01 -4.2327E-02  1.0053E+00
                               -3.7650E-01  1.0765E+01 -4.7269E+01  2.5147E+03

           1    4.60004E+00     1.0026E-02 -5.0668E-03 -1.5804E-01  1.5843E-01
ac ID =   33377                 3.1756E-01  1.0761E+00 -9.7751E-02  1.1262E+00
                               -3.7656E-01  1.0768E+01 -4.7279E+01  2.5147E+03

           1    4.70003E+00     8.8081E-03 -8.3283E-05 -2.3004E-01  2.3021E-01
ac ID =   33377                 2.1919E-01  1.0083E+00 -8.3998E-02  1.0352E+00
                               -3.7662E-01  1.0771E+01 -4.7288E+01  2.5147E+03

           1    4.80002E+00     1.1013E-02  1.6321E-04 -2.5658E-01  2.5681E-01
ac ID =   33377                 9.4201E-02  9.6580E-01 -1.9184E-02  9.7057E-01
                               -3.7665E-01  1.0775E+01 -4.7297E+01  2.5147E+03

           1    4.90001E+00     1.0307E-02 -1.1854E-03 -1.9222E-01  1.9250E-01
ac ID =   33377                 5.7295E-02  9.4771E-01  2.0265E-03  9.4944E-01
                               -3.7666E-01  1.0778E+01 -4.7306E+01  2.5147E+03

           1    5.00000E+00     1.1957E-02  1.0399E-03 -1.6956E-01  1.6999E-01
ac ID =   33377                -2.2096E-01  9.3401E-01  8.3719E-02  9.6344E-01
                               -3.7667E-01  1.0781E+01 -4.7315E+01  2.5147E+03

           1    5.10049E+00     1.6063E-02  6.2425E-03 -2.5064E-01  2.5123E-01
ac ID =   33377                -3.4638E-01  1.1610E+00  9.2448E-02  1.2151E+00
                               -3.7669E-01  1.0783E+01 -4.7323E+01  2.5147E+03

           1    5.20048E+00     1.9885E-02  4.6475E-03 -2.7782E-01  2.7856E-01
ac ID =   33377                -2.9637E-01  1.4795E+00  3.5135E-03  1.5089E+00
                               -3.7672E-01  1.0786E+01 -4.7330E+01  2.5147E+03

           1    5.30047E+00     2.5488E-02  2.6079E-03 -2.5343E-01  2.5473E-01
ac ID =   33377                -2.3606E-01  1.4955E+00 -2.5582E-02  1.5142E+00
                               -3.7674E-01  1.0789E+01 -4.7338E+01  2.5147E+03

           1    5.40046E+00     3.3834E-02  7.8531E-04 -2.3427E-01  2.3670E-01
ac ID =   33377                 3.8261E-02  1.6567E+00 -6.8542E-02  1.6585E+00
                               -3.7676E-01  1.0792E+01 -4.7346E+01  2.5147E+03

           1    5.50045E+00     3.4530E-02 -2.0554E-03 -3.0213E-01  3.0410E-01
ac ID =   33377                 1.5035E-01  1.7127E+00 -6.1427E-02  1.7203E+00
                               -3.7679E-01  1.0795E+01 -4.7353E+01  2.5147E+03

           1    5.60044E+00     3.0939E-02 -2.7731E-03 -3.7567E-01  3.7695E-01
ac ID =   33377                 1.7587E-01  1.8694E+00  3.7376E-02  1.8781E+00
                               -3.7680E-01  1.0798E+01 -4.7360E+01  2.5147E+03

           1    5.70043E+00     4.0445E-02  5.4162E-04 -3.8974E-01  3.9184E-01
ac ID =   33377                 2.7697E-02  1.8333E+00  8.5071E-02  1.8355E+00
                               -3.7679E-01  1.0802E+01 -4.7366E+01  2.5147E+03

           1    5.80042E+00     4.9658E-02  2.6297E-03 -3.4258E-01  3.4617E-01
ac ID =   33377                -8.5865E-04  1.8650E+00  1.0351E-01  1.8679E+00
                               -3.7675E-01  1.0807E+01 -4.7373E+01  2.5147E+03

           1    5.90041E+00     5.7803E-02 -2.2045E-03 -3.5050E-01  3.5524E-01
ac ID =   33377                -6.0358E-02  2.1426E+00  6.1361E-02  2.1443E+00
                               -3.7670E-01  1.0811E+01 -4.7380E+01  2.5147E+03

           1    6.00040E+00     5.8326E-02  3.5652E-03 -4.2016E-01  4.2421E-01
ac ID =   33377                -2.3928E-01  2.2308E+00  1.3684E-01  2.2477E+00
                               -3.7664E-01  1.0817E+01 -4.7386E+01  2.5147E+03

           1    6.10039E+00     6.5407E-02  8.8425E-03 -4.1705E-01  4.2224E-01
ac ID =   33377                -3.1681E-01  2.1555E+00  1.6573E-01  2.1850E+00
                               -3.7657E-01  1.0824E+01 -4.7392E+01  2.5147E+03

           1    6.20038E+00     7.5567E-02  4.5453E-03 -3.9281E-01  4.0004E-01
ac ID =   33377                -2.2584E-01  2.1427E+00 -2.4028E-02  2.1547E+00
                               -3.7652E-01  1.0832E+01 -4.7399E+01  2.5147E+03

           1    6.30037E+00     6.6626E-02 -4.7841E-03 -4.0688E-01  4.1233E-01
ac ID =   33377                 1.2171E-01  1.9372E+00 -5.8062E-02  1.9419E+00
                               -3.7645E-01  1.0841E+01 -4.7406E+01  2.5147E+03

           1    6.40036E+00     7.4618E-02  1.3811E-03 -4.9591E-01  5.0149E-01
ac ID =   33377                -4.1977E-02  2.4093E+00 -8.0478E-02  2.4110E+00
                               -3.7637E-01  1.0851E+01 -4.7412E+01  2.5147E+03

           1    6.50035E+00     8.9358E-02  3.9716E-03 -5.5117E-01  5.5838E-01
ac ID =   33377                -6.0151E-03  2.9805E+00  4.6652E-02  2.9809E+00
                               -3.7633E-01  1.0863E+01 -4.7420E+01  2.5147E+03

           1    6.60034E+00     9.2532E-02 -9.7129E-04 -5.2548E-01  5.3357E-01
ac ID =   33377                 1.3145E-01  3.0076E+00  2.2572E-01  3.0189E+00
                               -3.7625E-01  1.0877E+01 -4.7427E+01  2.5147E+03

           1    6.70033E+00     8.9279E-02  4.7276E-04 -5.2564E-01  5.3317E-01
ac ID =   33377                -1.1568E-01  3.1174E+00  9.7773E-02  3.1211E+00
                               -3.7613E-01  1.0892E+01 -4.7435E+01  2.5147E+03

           1    6.80032E+00     1.0827E-01  7.2597E-03 -5.7575E-01  5.8589E-01
ac ID =   33377                -3.3858E-01  3.4600E+00  1.5502E-02  3.4765E+00
                               -3.7601E-01  1.0910E+01 -4.7444E+01  2.5147E+03

           1    6.90031E+00     1.0843E-01  7.2274E-03 -6.3618E-01  6.4539E-01
ac ID =   33377                -4.1165E-01  3.5623E+00  2.1204E-03  3.5860E+00
                               -3.7588E-01  1.0929E+01 -4.7453E+01  2.5147E+03

           1    7.00030E+00     1.1033E-01  2.8379E-03 -6.2901E-01  6.3862E-01
ac ID =   33377                -4.3890E-01  3.4300E+00  1.6319E-01  3.4618E+00
                               -3.7571E-01  1.0951E+01 -4.7462E+01  2.5147E+03

           1    7.10029E+00     1.2320E-01  9.7672E-04 -6.5197E-01  6.6351E-01
ac ID =   33377                -2.9263E-01  3.6393E+00  5.1666E-02  3.6514E+00
                               -3.7558E-01  1.0974E+01 -4.7473E+01  2.5147E+03

           1    7.20028E+00     1.4035E-01  3.1323E-03 -7.4145E-01  7.5462E-01
ac ID =   33377                -2.7454E-01  4.2302E+00 -7.3758E-02  4.2398E+00
                               -3.7551E-01  1.1001E+01 -4.7484E+01  2.5147E+03

           1    7.30027E+00     1.2488E-01 -1.3856E-03 -8.1734E-01  8.2683E-01
ac ID =   33377                 1.8167E-02  4.2405E+00  2.2340E-02  4.2406E+00
                               -3.7541E-01  1.1030E+01 -4.7496E+01  2.5147E+03

           1    7.40026E+00     1.4705E-01 -1.0061E-03 -8.5485E-01  8.6740E-01
ac ID =   33377                 1.9400E-01  4.8344E+00 -8.0343E-02  4.8389E+00
                               -3.7533E-01  1.1061E+01 -4.7508E+01  2.5147E+03

           1    7.50025E+00     1.6303E-01  1.5213E-03 -8.5243E-01  8.6788E-01
ac ID =   33377                -1.1359E-02  5.3097E+00 -1.5719E-01  5.3120E+00
                               -3.7525E-01  1.1096E+01 -4.7522E+01  2.5147E+03

           1    7.60024E+00     1.5567E-01  7.6059E-04 -8.8445E-01  8.9804E-01
ac ID =   33377                -4.7288E-02  5.0630E+00 -1.0557E-01  5.0643E+00
                               -3.7515E-01  1.1133E+01 -4.7536E+01  2.5147E+03

           1    7.70023E+00     1.5045E-01 -4.1134E-03 -9.3689E-01  9.4891E-01
ac ID =   33377                -4.7476E-02  5.0387E+00 -9.0144E-02  5.0397E+00
                               -3.7503E-01  1.1173E+01 -4.7551E+01  2.5147E+03

           1    7.80022E+00     1.8296E-01  6.7794E-03 -9.8620E-01  1.0030E+00
ac ID =   33377                -3.9586E-01  5.5324E+00 -1.3763E-01  5.5482E+00
                               -3.7496E-01  1.1217E+01 -4.7567E+01  2.5147E+03

           1    7.90021E+00     1.6980E-01  5.0020E-03 -9.9735E-01  1.0117E+00
ac ID =   33377                -5.1362E-01  5.4996E+00 -1.4733E-01  5.5255E+00
                               -3.7489E-01  1.1263E+01 -4.7584E+01  2.5147E+03

           1    8.00020E+00     1.6832E-01  2.3588E-03 -1.0466E+00  1.0601E+00
ac ID =   33377                -3.3272E-01  5.6795E+00 -2.0907E-01  5.6931E+00
                               -3.7480E-01  1.1312E+01 -4.7602E+01  2.5147E+03

           1    8.10019E+00     1.9490E-01  2.9300E-03 -1.1496E+00  1.1660E+00
ac ID =   33377                -2.5061E-01  6.5798E+00 -5.4812E-02  6.5848E+00
                               -3.7473E-01  1.1365E+01 -4.7620E+01  2.5147E+03

           1    8.20018E+00     2.0281E-01  2.0395E-03 -1.2103E+00  1.2272E+00
ac ID =   33377                 1.7270E-02  7.0127E+00  1.4559E-01  7.0142E+00
                               -3.7464E-01  1.1421E+01 -4.7640E+01  2.5147E+03

           1    8.30017E+00     1.8966E-01  8.5506E-04 -1.2396E+00  1.2541E+00
ac ID =   33377                -7.8007E-02  6.9271E+00  2.5403E-02  6.9275E+00
                               -3.7454E-01  1.1480E+01 -4.7660E+01  2.5147E+03

           1    8.40016E+00     2.1204E-01 -7.8555E-03 -1.2749E+00  1.2924E+00
ac ID =   33377                 2.1545E-01  7.5831E+00 -2.0161E-01  7.5888E+00
                               -3.7440E-01  1.1542E+01 -4.7681E+01  2.5147E+03

           1    8.50015E+00     2.1674E-01  6.2693E-04 -1.3514E+00  1.3687E+00
ac ID =   33377                -1.7312E-01  7.8434E+00 -1.4902E-01  7.8467E+00
                               -3.7421E-01  1.1607E+01 -4.7703E+01  2.5147E+03

           1    8.60014E+00     2.1051E-01  8.7529E-03 -1.4366E+00  1.4520E+00
ac ID =   33377                -3.1041E-01  7.9946E+00  4.7469E-03  8.0006E+00
                               -3.7405E-01  1.1676E+01 -4.7725E+01  2.5147E+03

           1    8.70013E+00     2.2173E-01  8.9950E-04 -1.4818E+00  1.4983E+00
ac ID =   33377                -3.7896E-01  8.3001E+00  1.9516E-01  8.3110E+00
                               -3.7383E-01  1.1748E+01 -4.7748E+01  2.5147E+03

           1    8.80012E+00     2.2788E-01  1.1918E-02 -1.5386E+00  1.5554E+00
ac ID =   33377                -7.1461E-01  8.5280E+00  4.2500E-02  8.5580E+00
                               -3.7358E-01  1.1823E+01 -4.7771E+01  2.5147E+03

           1    8.90011E+00     2.3973E-01  4.0758E-03 -1.6340E+00  1.6515E+00
ac ID =   33377                -4.5296E-01  9.0099E+00 -3.6508E-02  9.0214E+00
                               -3.7334E-01  1.1901E+01 -4.7795E+01  2.5147E+03

           1    9.00010E+00     2.3998E-01  7.9653E-03 -1.7246E+00  1.7412E+00
ac ID =   33377                -3.2785E-01  9.4318E+00  1.5204E-01  9.4387E+00
                               -3.7310E-01  1.1983E+01 -4.7819E+01  2.5147E+03

           1    9.10009E+00     2.5948E-01  2.7490E-03 -1.7729E+00  1.7918E+00
ac ID =   33377                -2.1506E-01  1.0078E+01  1.7287E-01  1.0082E+01
                               -3.7279E-01  1.2067E+01 -4.7844E+01  2.5147E+03

           1    9.20008E+00     2.5514E-01 -4.1809E-03 -1.8414E+00  1.8590E+00
ac ID =   33377                -3.1087E-02  1.0193E+01  2.6202E-02  1.0193E+01
                               -3.7245E-01  1.2155E+01 -4.7869E+01  2.5147E+03

           1    9.30007E+00     2.6279E-01  4.7577E-03 -1.9189E+00  1.9368E+00
ac ID =   33377                -8.5732E-02  1.0385E+01 -1.7505E-01  1.0387E+01
                               -3.7211E-01  1.2246E+01 -4.7893E+01  2.5147E+03

           1    9.40006E+00     2.7488E-01  3.8088E-03 -2.0008E+00  2.0196E+00
ac ID =   33377                -2.3417E-01  1.0888E+01 -1.8043E-01  1.0892E+01
                               -3.7168E-01  1.2340E+01 -4.7918E+01  2.5147E+03

           1    9.50005E+00     2.6938E-01  9.0613E-03 -2.0853E+00  2.1026E+00
ac ID =   33377                -5.6424E-01  1.1118E+01 -7.0755E-02  1.1133E+01
                               -3.7123E-01  1.2437E+01 -4.7943E+01  2.5147E+03

           1    9.60004E+00     2.8341E-01  1.0598E-02 -2.1437E+00  2.1624E+00
ac ID =   33377                -6.7175E-01  1.1874E+01  2.2068E-02  1.1893E+01
                               -3.7073E-01  1.2537E+01 -4.7967E+01  2.5147E+03

           1    9.70003E+00     3.0614E-01  1.1490E-02 -2.2147E+00  2.2358E+00
ac ID =   33377                -7.3879E-01  1.2648E+01  5.1327E-02  1.2670E+01
                               -3.7022E-01  1.2640E+01 -4.7991E+01  2.5147E+03

           1    9.80002E+00     2.9780E-01  1.0843E-02 -2.2952E+00  2.3145E+00
ac ID =   33377                -8.1540E-01  1.2865E+01  4.3560E-02  1.2890E+01
                               -3.6966E-01  1.2746E+01 -4.8015E+01  2.5147E+03

           1    9.90001E+00     3.1291E-01  3.6944E-03 -2.3842E+00  2.4047E+00
ac ID =   33377                -5.4612E-01  1.3569E+01  2.9347E-02  1.3580E+01
                               -3.6908E-01  1.2855E+01 -4.8038E+01  2.5147E+03

           1    1.00005E+01     3.3350E-01  8.4423E-03 -2.4693E+00  2.4917E+00
ac ID =   33377                -4.5926E-01  1.4355E+01 -8.4962E-02  1.4362E+01
                               -3.6851E-01  1.2968E+01 -4.8061E+01  2.5147E+03

           1    1.01005E+01     3.2992E-01  4.2691E-03 -2.5712E+00  2.5923E+00
ac ID =   33377                -5.3853E-01  1.4889E+01 -1.9857E-02  1.4899E+01
                               -3.6787E-01  1.3082E+01 -4.8083E+01  2.5147E+03

           1    1.02005E+01     3.4192E-01  7.0236E-03 -2.6642E+00  2.6861E+00
ac ID =   33377                -5.3338E-01  1.5623E+01 -1.8528E-02  1.5632E+01
                               -3.6723E-01  1.3199E+01 -4.8105E+01  2.5147E+03

           1    1.03005E+01     3.6158E-01  6.5719E-03 -2.7622E+00  2.7858E+00
ac ID =   33377                -7.3015E-01  1.6613E+01 -8.9078E-02  1.6629E+01
                               -3.6654E-01  1.3319E+01 -4.8125E+01  2.5147E+03

           1    1.04005E+01     3.6107E-01  6.5833E-03 -2.8489E+00  2.8717E+00
ac ID =   33377                -9.5845E-01  1.7128E+01 -1.7767E-01  1.7156E+01
                               -3.6584E-01  1.3442E+01 -4.8144E+01  2.5147E+03

           1    1.05004E+01     3.6575E-01  1.0622E-02 -2.9091E+00  2.9320E+00
ac ID =   33377                -8.8675E-01  1.7655E+01 -1.8304E-01  1.7679E+01
                               -3.6513E-01  1.3566E+01 -4.8163E+01  2.5147E+03

           1    1.06004E+01     3.8839E-01  9.4914E-03 -2.9785E+00  3.0037E+00
ac ID =   33377                -9.8233E-01  1.8430E+01  1.8860E-02  1.8456E+01
                               -3.6442E-01  1.3694E+01 -4.8180E+01  2.5147E+03

           1    1.07004E+01     3.8677E-01  1.2289E-02 -3.0529E+00  3.0773E+00
ac ID =   33377                -9.0854E-01  1.8903E+01  8.4313E-02  1.8925E+01
                               -3.6375E-01  1.3823E+01 -4.8195E+01  2.5147E+03

           1    1.08004E+01     3.9329E-01  6.4425E-03 -3.1316E+00  3.1562E+00
ac ID =   33377                -8.1685E-01  1.9358E+01  7.9567E-02  1.9375E+01
                               -3.6305E-01  1.3954E+01 -4.8209E+01  2.5147E+03

           1    1.09004E+01     4.1173E-01  4.1084E-03 -3.2338E+00  3.2599E+00
ac ID =   33377                -7.0841E-01  2.0211E+01 -7.0346E-02  2.0224E+01
                               -3.6238E-01  1.4088E+01 -4.8221E+01  2.5147E+03

           1    1.10004E+01     3.9904E-01  1.6415E-02 -3.2784E+00  3.3026E+00
ac ID =   33377                -9.8977E-01  2.0466E+01 -3.8392E-02  2.0490E+01
                               -3.6174E-01  1.4223E+01 -4.8231E+01  2.5147E+03

           1    1.11004E+01     4.2427E-01 -1.8069E-04 -3.3508E+00  3.3775E+00
ac ID =   33377                -7.4539E-01  2.1409E+01  2.0604E-01  2.1423E+01
                               -3.6108E-01  1.4360E+01 -4.8239E+01  2.5147E+03

           1    1.12004E+01     4.2465E-01 -5.4477E-03 -3.4280E+00  3.4542E+00
ac ID =   33377                -6.8315E-01  2.2245E+01  7.1769E-02  2.2256E+01
                               -3.6051E-01  1.4498E+01 -4.8244E+01  2.5147E+03

           1    1.13004E+01     4.1456E-01  1.7334E-02 -3.4506E+00  3.4755E+00
ac ID =   33377                -1.2692E+00  2.2363E+01 -1.7899E-01  2.2399E+01
                               -3.5997E-01  1.4638E+01 -4.8247E+01  2.5147E+03

           1    1.14004E+01     4.2566E-01  1.7000E-04 -3.4945E+00  3.5203E+00
ac ID =   33377                -1.0029E+00  2.2758E+01 -1.4060E-01  2.2781E+01
                               -3.5941E-01  1.4779E+01 -4.8247E+01  2.5147E+03

           1    1.15003E+01     4.4113E-01 -7.8114E-03 -3.5440E+00  3.5713E+00
ac ID =   33377                -6.2918E-01  2.3313E+01  1.2228E-01  2.3321E+01
                               -3.5891E-01  1.4920E+01 -4.8243E+01  2.5147E+03

           1    1.16003E+01     4.3652E-01  1.2933E-02 -3.6081E+00  3.6344E+00
ac ID =   33377                -1.1000E+00  2.3799E+01  4.6190E-01  2.3829E+01
                               -3.5841E-01  1.5063E+01 -4.8237E+01  2.5147E+03

           1    1.17003E+01     4.3019E-01  1.3845E-02 -3.6913E+00  3.7163E+00
ac ID =   33377                -1.2411E+00  2.4370E+01  4.1776E-01  2.4405E+01
                               -3.5792E-01  1.5206E+01 -4.8227E+01  2.5147E+03

           1    1.18003E+01     4.5773E-01 -2.3295E-03 -3.7534E+00  3.7812E+00
ac ID =   33377                -5.7847E-01  2.5369E+01 -1.1763E-01  2.5376E+01
                               -3.5740E-01  1.5349E+01 -4.8213E+01  2.5147E+03

           1    1.19003E+01     4.7157E-01 -3.8539E-03 -3.8121E+00  3.8412E+00
ac ID =   33377                -6.6093E-01  2.6202E+01 -6.1050E-01  2.6218E+01
                               -3.5680E-01  1.5493E+01 -4.8196E+01  2.5147E+03

           1    1.20003E+01     4.8988E-01  2.2093E-02 -3.8720E+00  3.9029E+00
ac ID =   33377                -1.3809E+00  2.7216E+01 -4.3451E-01  2.7254E+01
                               -3.5625E-01  1.5638E+01 -4.8175E+01  2.5147E+03

           1    1.21003E+01     4.7992E-01 -6.1207E-03 -3.9217E+00  3.9510E+00
ac ID =   33377                -7.4052E-01  2.7618E+01  7.9984E-02  2.7628E+01
                               -3.5569E-01  1.5783E+01 -4.8151E+01  2.5147E+03

           1    1.22003E+01     4.9275E-01  1.7222E-03 -3.9627E+00  3.9933E+00
ac ID =   33377                -7.7181E-01  2.8391E+01  2.3336E-02  2.8402E+01
                               -3.5505E-01  1.5928E+01 -4.8122E+01  2.5147E+03

           1    1.23003E+01     4.9706E-01  9.7191E-03 -3.9748E+00  4.0057E+00
ac ID =   33377                -1.2734E+00  2.8794E+01 -3.0199E-01  2.8824E+01
                               -3.5442E-01  1.6074E+01 -4.8090E+01  2.5147E+03

           1    1.24003E+01     4.9773E-01  1.0731E-02 -3.9890E+00  4.0199E+00
ac ID =   33377                -1.0625E+00  2.8819E+01 -3.7290E-01  2.8841E+01
                               -3.5382E-01  1.6219E+01 -4.8054E+01  2.5147E+03

           1    1.25002E+01     5.1226E-01  1.4929E-04 -4.0536E+00  4.0858E+00
ac ID =   33377                -7.8132E-01  2.9745E+01 -2.1399E-01  2.9756E+01
                               -3.5311E-01  1.6365E+01 -4.8015E+01  2.5147E+03

           1    1.26002E+01     5.1667E-01  1.7718E-04 -4.0917E+00  4.1242E+00
ac ID =   33377                -1.0023E+00  3.0644E+01  4.6414E-02  3.0661E+01
                               -3.5240E-01  1.6511E+01 -4.7971E+01  2.5147E+03

           1    1.27002E+01     5.2831E-01  1.3214E-02 -4.0657E+00  4.0999E+00
ac ID =   33377                -1.1444E+00  3.1145E+01  2.9971E-01  3.1167E+01
                               -3.5171E-01  1.6657E+01 -4.7923E+01  2.5147E+03

           1    1.28002E+01     5.3838E-01  7.2631E-03 -4.0924E+00  4.1277E+00
ac ID =   33377                -9.4456E-01  3.1913E+01 -3.4676E-02  3.1927E+01
                               -3.5098E-01  1.6803E+01 -4.7871E+01  2.5147E+03

           1    1.29002E+01     5.4916E-01 -1.4273E-02 -4.0939E+00  4.1306E+00
ac ID =   33377                -3.9458E-01  3.2687E+01 -4.5390E-01  3.2693E+01
                               -3.5022E-01  1.6949E+01 -4.7815E+01  2.5147E+03

           1    1.30002E+01     5.2068E-01  1.3492E-03 -4.0657E+00  4.0989E+00
ac ID =   33377                -1.1845E+00  3.2275E+01 -3.0719E-01  3.2298E+01
                               -3.4940E-01  1.7095E+01 -4.7755E+01  2.5147E+03

           1    1.31002E+01     5.4293E-01  1.1314E-02 -4.0695E+00  4.1056E+00
ac ID =   33377                -1.1176E+00  3.2926E+01 -1.4873E-01  3.2945E+01
                               -3.4862E-01  1.7240E+01 -4.7690E+01  2.5147E+03

           1    1.32002E+01     5.4997E-01 -5.5292E-03 -4.0330E+00  4.0704E+00
ac ID =   33377                -5.4592E-01  3.3245E+01  4.0966E-02  3.3250E+01
                               -3.4781E-01  1.7385E+01 -4.7622E+01  2.5147E+03

           1    1.33002E+01     5.4146E-01 -3.4403E-04 -4.0302E+00  4.0664E+00
ac ID =   33377                -1.1345E+00  3.3341E+01  7.3359E-02  3.3360E+01
                               -3.4688E-01  1.7530E+01 -4.7549E+01  2.5147E+03

           1    1.34002E+01     5.4522E-01  2.8653E-02 -4.0445E+00  4.0812E+00
ac ID =   33377                -1.8368E+00  3.3663E+01  9.9991E-02  3.3713E+01
                               -3.4603E-01  1.7674E+01 -4.7472E+01  2.5147E+03

           1    1.35001E+01     5.6729E-01 -7.5914E-03 -4.0109E+00  4.0508E+00
ac ID =   33377                -4.3727E-01  3.4177E+01 -5.7083E-01  3.4184E+01
                               -3.4516E-01  1.7818E+01 -4.7392E+01  2.5147E+03

           1    1.36001E+01     5.6076E-01 -4.1321E-03 -3.9622E+00  4.0017E+00
ac ID =   33377                -7.8417E-01  3.4273E+01 -4.8963E-01  3.4285E+01
                               -3.4411E-01  1.7962E+01 -4.7307E+01  2.5147E+03

           1    1.37001E+01     5.4750E-01  3.4038E-02 -3.9493E+00  3.9872E+00
ac ID =   33377                -1.9568E+00  3.4046E+01  2.7218E-01  3.4103E+01
                               -3.4315E-01  1.8105E+01 -4.7218E+01  2.5147E+03

           1    1.38001E+01     5.8147E-01  1.6585E-03 -3.9279E+00  3.9707E+00
ac ID =   33377                -8.2741E-01  3.5055E+01  3.5703E-01  3.5067E+01
                               -3.4224E-01  1.8248E+01 -4.7125E+01  2.5147E+03

           1    1.39001E+01     5.6879E-01 -1.4547E-02 -3.8849E+00  3.9263E+00
ac ID =   33377                -6.0401E-01  3.4780E+01  2.5490E-01  3.4786E+01
                               -3.4111E-01  1.8391E+01 -4.7028E+01  2.5147E+03

           1    1.40001E+01     4.8141E-01  2.3899E-02 -3.7422E+00  3.7731E+00
ac ID =   33377                -1.7522E+00  3.3337E+01 -5.4417E-01  3.3387E+01
                               -3.4003E-01  1.8533E+01 -4.6927E+01  2.5147E+03

           1    1.41001E+01     5.8868E-01  3.6751E-02 -3.7296E+00  3.7759E+00
ac ID =   33377                -1.8685E+00  3.4801E+01 -9.8615E-01  3.4865E+01
                               -3.3899E-01  1.8674E+01 -4.6822E+01  2.5147E+03

           1    1.42001E+01     5.2739E-01 -1.7589E-02 -3.7194E+00  3.7567E+00
ac ID =   33377                -7.5768E-01  3.5042E+01 -4.1259E-01  3.5052E+01
                               -3.3780E-01  1.8815E+01 -4.6713E+01  2.5147E+03

           1    1.43001E+01     4.9537E-01  1.2749E-02 -3.5915E+00  3.6255E+00
ac ID =   33377                -1.6905E+00  3.3576E+01  6.5773E-02  3.3618E+01
                               -3.3660E-01  1.8955E+01 -4.6600E+01  2.5147E+03

           1    1.44001E+01     5.4777E-01  5.1685E-02 -3.5284E+00  3.5711E+00
ac ID =   33377                -2.3514E+00  3.5197E+01  5.5069E-02  3.5276E+01
                               -3.3551E-01  1.9094E+01 -4.6484E+01  2.5147E+03

           1    1.45000E+01     5.4547E-01 -1.8771E-02 -3.4290E+00  3.4722E+00
ac ID =   33377                -6.3345E-01  3.4592E+01 -5.4874E-01  3.4602E+01
                               -3.3432E-01  1.9233E+01 -4.6364E+01  2.5147E+03

           1    1.46000E+01     5.0279E-01 -6.0929E-03 -3.3907E+00  3.4278E+00
ac ID =   33377                -1.5937E+00  3.3073E+01 -4.5203E-01  3.3115E+01
                               -3.3308E-01  1.9371E+01 -4.6240E+01  2.5147E+03

           1    1.47000E+01     5.3597E-01  2.8911E-02 -3.3455E+00  3.3883E+00
ac ID =   33377                -2.0917E+00  3.3986E+01 -9.2306E-01  3.4063E+01
                               -3.3198E-01  1.9509E+01 -4.6113E+01  2.5147E+03

           1    1.48005E+01     5.7824E-01  1.6804E-02 -3.2047E+00  3.2565E+00
ac ID =   33377                -1.7099E+00  3.4182E+01 -3.4654E-01  3.4226E+01
                               -3.3082E-01  1.9647E+01 -4.5982E+01  2.5147E+03

           1    1.49005E+01     4.9103E-01 -1.4653E-02 -3.1629E+00  3.2008E+00
ac ID =   33377                -1.6739E+00  3.3037E+01  8.0512E-01  3.3090E+01
                               -3.2957E-01  1.9784E+01 -4.5849E+01  2.5147E+03

           1    1.50005E+01     5.0247E-01  2.4254E-02 -3.0604E+00  3.1015E+00
ac ID =   33377                -2.2452E+00  3.2945E+01  6.5802E-01  3.3028E+01
                               -3.2847E-01  1.9921E+01 -4.5713E+01  2.5147E+03

           1    1.51005E+01     5.3497E-01  2.0070E-02 -2.9825E+00  3.0301E+00
ac ID =   33377                -2.2256E+00  3.3637E+01  3.2737E-01  3.3712E+01
                               -3.2741E-01  2.0057E+01 -4.5574E+01  2.5147E+03

           1    1.52005E+01     4.9659E-01  7.7951E-03 -2.9225E+00  2.9644E+00
ac ID =   33377                -1.9810E+00  3.2271E+01 -9.6909E-03  3.2332E+01
                               -3.2632E-01  2.0193E+01 -4.5432E+01  2.5147E+03

           1    1.53005E+01     5.1379E-01  2.5036E-03 -2.7914E+00  2.8383E+00
ac ID =   33377                -1.8468E+00  3.2580E+01  1.7721E-01  3.2633E+01
                               -3.2532E-01  2.0330E+01 -4.5289E+01  2.5147E+03

           1    1.54005E+01     5.1720E-01  3.2743E-02 -2.6974E+00  2.7468E+00
ac ID =   33377                -2.3766E+00  3.2389E+01  1.0815E-01  3.2477E+01
                               -3.2440E-01  2.0466E+01 -4.5143E+01  2.5147E+03

           1    1.55004E+01     5.1690E-01  2.3795E-02 -2.6857E+00  2.7351E+00
ac ID =   33377                -2.4320E+00  3.1752E+01 -5.9535E-01  3.1850E+01
                               -3.2353E-01  2.0602E+01 -4.4995E+01  2.5147E+03

           1    1.56004E+01     4.9349E-01  2.2817E-03 -2.5638E+00  2.6109E+00
ac ID =   33377                -1.8509E+00  3.1433E+01 -7.1875E-01  3.1496E+01
                               -3.2269E-01  2.0738E+01 -4.4845E+01  2.5147E+03

           1    1.57004E+01     5.0547E-01  5.0465E-03 -2.4244E+00  2.4765E+00
ac ID =   33377                -2.1217E+00  3.0526E+01 -6.2839E-01  3.0606E+01
                               -3.2195E-01  2.0875E+01 -4.4693E+01  2.5147E+03

