 LSTC 50th% Full_FE H-III Dummy (Beta Version, February 17, 2019)        
                    ls-dyna smp s R16 R16.0_619_d222963 date 03/18/2025

{BEGIN LEGEND}
 Entity #        Title
    22626                                                                                     
{END LEGEND}




 n o d a l   p r i n t   o u t   f o r   t i m e  s t e p       1                              ( at time 0.0000000E+00 )

 nodal point  x-disp     y-disp      z-disp      x-vel       y-vel       z-vel      x-accl      y-accl      z-accl      x-coor      y-coor      z-coor
    22626  0.00000E+00 0.00000E+00 0.00000E+00 0.00000E+00 0.00000E+00 0.00000E+00 0.00000E+00 0.00000E+00 0.00000E+00 4.65938E+00-2.81908E+01-4.49817E+01



 n o d a l   p r i n t   o u t   f o r   t i m e  s t e p       1                              ( at time 0.0000000E+00 )

 nodal point  x-rot      y-rot       z-rot       x-rot vel   y-rot vel   z-rot vel   x-rot acc   y-rot acc   z-rot acc
    22626  0.00000E+00 0.00000E+00 0.00000E+00 0.00000E+00 0.00000E+00 0.00000E+00 0.00000E+00 0.00000E+00 0.00000E+00



 n o d a l   p r i n t   o u t   f o r   t i m e  s t e p     201                              ( at time 9.9989993E-02 )

 nodal point  x-disp     y-disp      z-disp      x-vel       y-vel       z-vel      x-accl      y-accl      z-accl      x-coor      y-coor      z-coor
    22626  2.73607E-07 1.73650E-06-5.34275E-05 4.19765E-05 2.55577E-04-1.46815E-03 4.19807E-04 2.55602E-03-1.46829E-02 4.65938E+00-2.81908E+01-4.49818E+01



 n o d a l   p r i n t   o u t   f o r   t i m e  s t e p     201                              ( at time 9.9989993E-02 )

 nodal point  x-rot      y-rot       z-rot       x-rot vel   y-rot vel   z-rot vel   x-rot acc   y-rot acc   z-rot acc
    22626 -5.98923E-08-8.38633E-09-5.46165E-09-5.86847E-06-9.70061E-07-9.27274E-07-5.86906E-05-9.70158E-06-9.27367E-06



 n o d a l   p r i n t   o u t   f o r   t i m e  s t e p     401                              ( at time 1.9997999E-01 )

 nodal point  x-disp     y-disp      z-disp      x-vel       y-vel       z-vel      x-accl      y-accl      z-accl      x-coor      y-coor      z-coor
    22626  1.73084E-05 3.61735E-04-6.67574E-04 3.07792E-05 7.81131E-03-1.21542E-02-1.11984E-04 7.55648E-02-1.06872E-01 4.65939E+00-2.81905E+01-4.49824E+01



 n o d a l   p r i n t   o u t   f o r   t i m e  s t e p     401                              ( at time 1.9997999E-01 )

 nodal point  x-rot      y-rot       z-rot       x-rot vel   y-rot vel   z-rot vel   x-rot acc   y-rot acc   z-rot acc
    22626 -2.81978E-06-3.37183E-07-3.34596E-07-3.94329E-05-1.77506E-06-2.29608E-06-3.35678E-04-8.05082E-06-1.36894E-05



 n o d a l   p r i n t   o u t   f o r   t i m e  s t e p     601                              ( at time 2.9996998E-01 )

 nodal point  x-disp     y-disp      z-disp      x-vel       y-vel       z-vel      x-accl      y-accl      z-accl      x-coor      y-coor      z-coor
    22626  2.73648E-05 1.24002E-03-2.33841E-03 4.21282E-04 8.44738E-03-1.92550E-02 3.90542E-03 6.36137E-03-7.10149E-02 4.65940E+00-2.81896E+01-4.49841E+01



 n o d a l   p r i n t   o u t   f o r   t i m e  s t e p     601                              ( at time 2.9996998E-01 )

 nodal point  x-rot      y-rot       z-rot       x-rot vel   y-rot vel   z-rot vel   x-rot acc   y-rot acc   z-rot acc
    22626 -5.38439E-06-3.90559E-07-6.42346E-07-1.54527E-05-5.46115E-06-6.68109E-06 2.39826E-04-3.68645E-05-4.38545E-05



 n o d a l   p r i n t   o u t   f o r   t i m e  s t e p     801                              ( at time 3.9995997E-01 )

 nodal point  x-disp     y-disp      z-disp      x-vel       y-vel       z-vel      x-accl      y-accl      z-accl      x-coor      y-coor      z-coor
    22626  2.60572E-05 2.16025E-03-4.28310E-03-3.16236E-04 1.06795E-02-2.10960E-02-7.37592E-03 2.23239E-02-1.84120E-02 4.65940E+00-2.81887E+01-4.49860E+01



 n o d a l   p r i n t   o u t   f o r   t i m e  s t e p     801                              ( at time 3.9995997E-01 )

 nodal point  x-rot      y-rot       z-rot       x-rot vel   y-rot vel   z-rot vel   x-rot acc   y-rot acc   z-rot acc
    22626 -7.59378E-06-1.24938E-06-9.82198E-07-4.41976E-05-6.19872E-06-1.53452E-06-2.87478E-04-7.37645E-06 5.14709E-05



 n o d a l   p r i n t   o u t   f o r   t i m e  s t e p    1001                              ( at time 4.9994997E-01 )

 nodal point  x-disp     y-disp      z-disp      x-vel       y-vel       z-vel      x-accl      y-accl      z-accl      x-coor      y-coor      z-coor
    22626  3.05053E-06 3.42672E-03-6.74687E-03-2.51765E-04 1.40961E-02-2.87189E-02 6.44771E-04 3.41686E-02-7.62359E-02 4.65938E+00-2.81874E+01-4.49885E+01



 n o d a l   p r i n t   o u t   f o r   t i m e  s t e p    1001                              ( at time 4.9994997E-01 )

 nodal point  x-rot      y-rot       z-rot       x-rot vel   y-rot vel   z-rot vel   x-rot acc   y-rot acc   z-rot acc
    22626 -1.34270E-05-1.17415E-06-9.45701E-07-8.32393E-05 3.00767E-06 4.23049E-06-3.90457E-04 9.20731E-05 5.76559E-05



 n o d a l   p r i n t   o u t   f o r   t i m e  s t e p    1201                              ( at time 5.9993996E-01 )

 nodal point  x-disp     y-disp      z-disp      x-vel       y-vel       z-vel      x-accl      y-accl      z-accl      x-coor      y-coor      z-coor
    22626 -2.21848E-06 4.99189E-03-9.71859E-03 3.54053E-05 1.65104E-02-3.10147E-02 2.87200E-03 2.41456E-02-2.29605E-02 4.65937E+00-2.81858E+01-4.49914E+01



 n o d a l   p r i n t   o u t   f o r   t i m e  s t e p    1201                              ( at time 5.9993996E-01 )

 nodal point  x-rot      y-rot       z-rot       x-rot vel   y-rot vel   z-rot vel   x-rot acc   y-rot acc   z-rot acc
    22626 -2.00246E-05-9.07198E-07-9.60581E-07-5.70275E-05 3.86539E-06-2.16055E-06 2.62145E-04 8.57804E-06-6.39169E-05



 n o d a l   p r i n t   o u t   f o r   t i m e  s t e p    1401                              ( at time 6.9992995E-01 )

 nodal point  x-disp     y-disp      z-disp      x-vel       y-vel       z-vel      x-accl      y-accl      z-accl      x-coor      y-coor      z-coor
    22626 -5.24519E-05 6.81167E-03-1.31797E-02-4.79346E-04 1.94947E-02-3.90414E-02-5.14803E-03 2.98465E-02-8.02751E-02 4.65932E+00-2.81840E+01-4.49949E+01



 n o d a l   p r i n t   o u t   f o r   t i m e  s t e p    1401                              ( at time 6.9992995E-01 )

 nodal point  x-rot      y-rot       z-rot       x-rot vel   y-rot vel   z-rot vel   x-rot acc   y-rot acc   z-rot acc
    22626 -2.57136E-05-9.17274E-07-6.48409E-07-6.84400E-05 3.57032E-07 3.63651E-06-1.14137E-04-3.50871E-05 5.79765E-05



 n o d a l   p r i n t   o u t   f o r   t i m e  s t e p    1601                              ( at time 7.9991994E-01 )

 nodal point  x-disp     y-disp      z-disp      x-vel       y-vel       z-vel      x-accl      y-accl      z-accl      x-coor      y-coor      z-coor
    22626 -8.21329E-05 8.92382E-03-1.74774E-02-5.07703E-04 2.18624E-02-4.51411E-02-2.83595E-04 2.36794E-02-6.10032E-02 4.65929E+00-2.81819E+01-4.49992E+01



 n o d a l   p r i n t   o u t   f o r   t i m e  s t e p    1601                              ( at time 7.9991994E-01 )

 nodal point  x-rot      y-rot       z-rot       x-rot vel   y-rot vel   z-rot vel   x-rot acc   y-rot acc   z-rot acc
    22626 -3.36009E-05-9.05978E-07-5.20824E-07-8.79300E-05-4.94004E-06 1.80343E-06-1.94919E-04-5.29760E-05-1.83327E-05



 n o d a l   p r i n t   o u t   f o r   t i m e  s t e p    1801                              ( at time 8.9990994E-01 )

 nodal point  x-disp     y-disp      z-disp      x-vel       y-vel       z-vel      x-accl      y-accl      z-accl      x-coor      y-coor      z-coor
    22626 -1.18826E-04 1.11556E-02-2.20082E-02-2.90564E-04 2.36009E-02-4.56507E-02 2.17161E-03 1.73862E-02-5.09667E-03 4.65926E+00-2.81797E+01-4.50037E+01



 n o d a l   p r i n t   o u t   f o r   t i m e  s t e p    1801                              ( at time 8.9990994E-01 )

 nodal point  x-rot      y-rot       z-rot       x-rot vel   y-rot vel   z-rot vel   x-rot acc   y-rot acc   z-rot acc
    22626 -4.15035E-05-9.61905E-07-5.14341E-07-7.59500E-05 2.41554E-06-7.09115E-07 1.19812E-04 7.35631E-05-2.51279E-05



 n o d a l   p r i n t   o u t   f o r   t i m e  s t e p    2001                              ( at time 9.9989993E-01 )

 nodal point  x-disp     y-disp      z-disp      x-vel       y-vel       z-vel      x-accl      y-accl      z-accl      x-coor      y-coor      z-coor
    22626 -1.53750E-04 1.36403E-02-2.67561E-02-2.48934E-05 2.59622E-02-5.01183E-02 2.65697E-03 2.36155E-02-4.46802E-02 4.65922E+00-2.81772E+01-4.50085E+01



 n o d a l   p r i n t   o u t   f o r   t i m e  s t e p    2001                              ( at time 9.9989993E-01 )

 nodal point  x-rot      y-rot       z-rot       x-rot vel   y-rot vel   z-rot vel   x-rot acc   y-rot acc   z-rot acc
    22626 -4.97866E-05-8.58874E-07-4.31292E-07-9.82136E-05 1.81879E-06-2.81365E-06-2.22658E-04-5.96804E-06-2.10475E-05



 n o d a l   p r i n t   o u t   f o r   t i m e  s t e p    2201                              ( at time 1.0998899E+00 )

 nodal point  x-disp     y-disp      z-disp      x-vel       y-vel       z-vel      x-accl      y-accl      z-accl      x-coor      y-coor      z-coor
    22626 -1.62127E-04 1.63226E-02-3.20912E-02-3.45544E-04 2.81899E-02-5.61912E-02-3.20683E-03 2.22796E-02-6.07353E-02 4.65921E+00-2.81745E+01-4.50138E+01



 n o d a l   p r i n t   o u t   f o r   t i m e  s t e p    2201                              ( at time 1.0998899E+00 )

 nodal point  x-rot      y-rot       z-rot       x-rot vel   y-rot vel   z-rot vel   x-rot acc   y-rot acc   z-rot acc
    22626 -5.99625E-05-8.97180E-07-7.04011E-07-9.28104E-05-6.56009E-06-1.60937E-06 5.40366E-05-8.37972E-05 1.20440E-05



 n o d a l   p r i n t   o u t   f o r   t i m e  s t e p    2401                              ( at time 1.1998799E+00 )

 nodal point  x-disp     y-disp      z-disp      x-vel       y-vel       z-vel      x-accl      y-accl      z-accl      x-coor      y-coor      z-coor
    22626 -1.91325E-04 1.91894E-02-3.79788E-02-1.91808E-04 2.93952E-02-6.12911E-02 1.53751E-03 1.20535E-02-5.10038E-02 4.65918E+00-2.81716E+01-4.50197E+01



 n o d a l   p r i n t   o u t   f o r   t i m e  s t e p    2401                              ( at time 1.1998799E+00 )

 nodal point  x-rot      y-rot       z-rot       x-rot vel   y-rot vel   z-rot vel   x-rot acc   y-rot acc   z-rot acc
    22626 -6.87197E-05-1.37350E-06-9.02622E-07-8.69996E-05-5.63541E-06-2.23789E-06 5.81143E-05 9.24777E-06-6.28575E-06



 n o d a l   p r i n t   o u t   f o r   t i m e  s t e p    2601                              ( at time 1.2998699E+00 )

 nodal point  x-disp     y-disp      z-disp      x-vel       y-vel       z-vel      x-accl      y-accl      z-accl      x-coor      y-coor      z-coor
    22626 -2.22757E-04 2.22462E-02-4.42591E-02-2.29509E-04 3.15748E-02-6.40886E-02-3.77049E-04 2.17989E-02-2.79780E-02 4.65915E+00-2.81686E+01-4.50260E+01



 n o d a l   p r i n t   o u t   f o r   t i m e  s t e p    2601                              ( at time 1.2998699E+00 )

 nodal point  x-rot      y-rot       z-rot       x-rot vel   y-rot vel   z-rot vel   x-rot acc   y-rot acc   z-rot acc
    22626 -7.81491E-05-1.72208E-06-1.07671E-06-1.11930E-04 2.48313E-06-6.29305E-07-2.49327E-04 8.11935E-05 1.60874E-05



 n o d a l   p r i n t   o u t   f o r   t i m e  s t e p    2801                              ( at time 1.3998599E+00 )

 nodal point  x-disp     y-disp      z-disp      x-vel       y-vel       z-vel      x-accl      y-accl      z-accl      x-coor      y-coor      z-coor
    22626 -2.50538E-04 2.55033E-02-5.07704E-02-4.28912E-04 3.33366E-02-6.67774E-02-1.99423E-03 1.76198E-02-2.68903E-02 4.65912E+00-2.81653E+01-4.50325E+01



 n o d a l   p r i n t   o u t   f o r   t i m e  s t e p    2801                              ( at time 1.3998599E+00 )

 nodal point  x-rot      y-rot       z-rot       x-rot vel   y-rot vel   z-rot vel   x-rot acc   y-rot acc   z-rot acc
    22626 -8.96371E-05-1.31402E-06-1.05537E-06-1.15555E-04 2.58829E-06 2.79960E-06-3.62546E-05 1.05170E-06 3.42924E-05



 n o d a l   p r i n t   o u t   f o r   t i m e  s t e p    3001                              ( at time 1.4998499E+00 )

 nodal point  x-disp     y-disp      z-disp      x-vel       y-vel       z-vel      x-accl      y-accl      z-accl      x-coor      y-coor      z-coor
    22626 -2.94100E-04 2.89764E-02-5.77961E-02-4.46128E-04 3.59655E-02-7.41133E-02-1.72171E-04 2.62909E-02-7.33666E-02 4.65908E+00-2.81619E+01-4.50395E+01



 n o d a l   p r i n t   o u t   f o r   t i m e  s t e p    3001                              ( at time 1.4998499E+00 )

 nodal point  x-rot      y-rot       z-rot       x-rot vel   y-rot vel   z-rot vel   x-rot acc   y-rot acc   z-rot acc
    22626 -1.00579E-04-1.00664E-06-8.46167E-07-1.03122E-04 2.84753E-06 1.66781E-07 1.24345E-04 2.59268E-06-2.63308E-05



 n o d a l   p r i n t   o u t   f o r   t i m e  s t e p    3201                              ( at time 1.5998399E+00 )

 nodal point  x-disp     y-disp      z-disp      x-vel       y-vel       z-vel      x-accl      y-accl      z-accl      x-coor      y-coor      z-coor
    22626 -3.54924E-04 3.27344E-02-6.55237E-02-5.66585E-04 3.90428E-02-7.97037E-02-1.20469E-03 3.07766E-02-5.59097E-02 4.65902E+00-2.81581E+01-4.50472E+01



 n o d a l   p r i n t   o u t   f o r   t i m e  s t e p    3201                              ( at time 1.5998399E+00 )

 nodal point  x-rot      y-rot       z-rot       x-rot vel   y-rot vel   z-rot vel   x-rot acc   y-rot acc   z-rot acc
    22626 -1.10483E-04-6.99553E-07-4.75992E-07-1.05322E-04 1.72295E-06 5.09265E-06-2.20085E-05-1.12469E-05 4.92636E-05



 n o d a l   p r i n t   o u t   f o r   t i m e  s t e p    3401                              ( at time 1.6998299E+00 )

 nodal point  x-disp     y-disp      z-disp      x-vel       y-vel       z-vel      x-accl      y-accl      z-accl      x-coor      y-coor      z-coor
    22626 -4.14365E-04 3.67259E-02-7.36624E-02-6.87838E-04 4.05236E-02-8.26343E-02-1.21265E-03 1.48091E-02-2.93089E-02 4.65896E+00-2.81541E+01-4.50554E+01



 n o d a l   p r i n t   o u t   f o r   t i m e  s t e p    3401                              ( at time 1.6998299E+00 )

 nodal point  x-rot      y-rot       z-rot       x-rot vel   y-rot vel   z-rot vel   x-rot acc   y-rot acc   z-rot acc
    22626 -1.21577E-04-1.57818E-07-7.72014E-08-1.12999E-04 7.59939E-06 6.17557E-06-7.67726E-05 5.87703E-05 1.08303E-05



 n o d a l   p r i n t   o u t   f o r   t i m e  s t e p    3601                              ( at time 1.7998199E+00 )

 nodal point  x-disp     y-disp      z-disp      x-vel       y-vel       z-vel      x-accl      y-accl      z-accl      x-coor      y-coor      z-coor
    22626 -4.75627E-04 4.08087E-02-8.20435E-02-4.74318E-04 4.17431E-02-8.50287E-02 2.13541E-03 1.21967E-02-2.39467E-02 4.65890E+00-2.81500E+01-4.50638E+01



 n o d a l   p r i n t   o u t   f o r   t i m e  s t e p    3601                              ( at time 1.7998199E+00 )

 nodal point  x-rot      y-rot       z-rot       x-rot vel   y-rot vel   z-rot vel   x-rot acc   y-rot acc   z-rot acc
    22626 -1.33048E-04 5.50660E-07 3.39896E-07-1.07588E-04 8.31766E-06 1.56113E-06 5.41160E-05 7.18342E-06-4.61490E-05



 n o d a l   p r i n t   o u t   f o r   t i m e  s t e p    3801                              ( at time 1.8998099E+00 )

 nodal point  x-disp     y-disp      z-disp      x-vel       y-vel       z-vel      x-accl      y-accl      z-accl      x-coor      y-coor      z-coor
    22626 -5.31834E-04 4.52812E-02-9.07845E-02-5.20109E-04 4.76938E-02-8.98855E-02-4.57949E-04 5.95125E-02-4.85724E-02 4.65884E+00-2.81455E+01-4.50725E+01



 n o d a l   p r i n t   o u t   f o r   t i m e  s t e p    3801                              ( at time 1.8998099E+00 )

 nodal point  x-rot      y-rot       z-rot       x-rot vel   y-rot vel   z-rot vel   x-rot acc   y-rot acc   z-rot acc
    22626 -1.44179E-04 1.49607E-06 7.54739E-07-1.13268E-04 6.31304E-06 2.65765E-06-5.68118E-05-2.00482E-05 1.09663E-05



 n o d a l   p r i n t   o u t   f o r   t i m e  s t e p    4001                              ( at time 1.9997999E+00 )

 nodal point  x-disp     y-disp      z-disp      x-vel       y-vel       z-vel      x-accl      y-accl      z-accl      x-coor      y-coor      z-coor
    22626 -5.83416E-04 5.03082E-02-1.00026E-01-5.60736E-04 5.38831E-02-9.48325E-02-4.06310E-04 6.18992E-02-4.94747E-02 4.65879E+00-2.81405E+01-4.50817E+01



 n o d a l   p r i n t   o u t   f o r   t i m e  s t e p    4001                              ( at time 1.9997999E+00 )

 nodal point  x-rot      y-rot       z-rot       x-rot vel   y-rot vel   z-rot vel   x-rot acc   y-rot acc   z-rot acc
    22626 -1.56381E-04 2.10374E-06 9.94609E-07-1.34757E-04 5.22221E-06 2.92335E-06-2.14904E-04-1.09094E-05 2.65724E-06



 n o d a l   p r i n t   o u t   f o r   t i m e  s t e p    4201                              ( at time 2.0997899E+00 )

 nodal point  x-disp     y-disp      z-disp      x-vel       y-vel       z-vel      x-accl      y-accl      z-accl      x-coor      y-coor      z-coor
    22626 -6.41386E-04 5.60992E-02-1.09682E-01-5.91172E-04 6.19683E-02-9.80718E-02-3.04394E-04 8.08603E-02-3.23968E-02 4.65873E+00-2.81347E+01-4.50914E+01



 n o d a l   p r i n t   o u t   f o r   t i m e  s t e p    4201                              ( at time 2.0997899E+00 )

 nodal point  x-rot      y-rot       z-rot       x-rot vel   y-rot vel   z-rot vel   x-rot acc   y-rot acc   z-rot acc
    22626 -1.70972E-04 2.70600E-06 1.19617E-06-1.53904E-04 8.71219E-06 5.79828E-06-1.91492E-04 3.49033E-05 2.87523E-05



 n o d a l   p r i n t   o u t   f o r   t i m e  s t e p    4401                              ( at time 2.1997798E+00 )

 nodal point  x-disp     y-disp      z-disp      x-vel       y-vel       z-vel      x-accl      y-accl      z-accl      x-coor      y-coor      z-coor
    22626 -6.98579E-04 6.28073E-02-1.19568E-01-4.46535E-04 7.27259E-02-1.00370E-01 1.44652E-03 1.07587E-01-2.29798E-02 4.65868E+00-2.81280E+01-4.51013E+01



 n o d a l   p r i n t   o u t   f o r   t i m e  s t e p    4401                              ( at time 2.1997798E+00 )

 nodal point  x-rot      y-rot       z-rot       x-rot vel   y-rot vel   z-rot vel   x-rot acc   y-rot acc   z-rot acc
    22626 -1.88984E-04 3.77068E-06 1.69137E-06-2.08853E-04 1.17756E-05 5.02160E-06-5.49551E-04 3.06375E-05-7.76758E-06



 n o d a l   p r i n t   o u t   f o r   t i m e  s t e p    4601                              ( at time 2.2997698E+00 )

 nodal point  x-disp     y-disp      z-disp      x-vel       y-vel       z-vel      x-accl      y-accl      z-accl      x-coor      y-coor      z-coor
    22626 -7.53328E-04 7.06463E-02-1.29759E-01-7.78209E-04 8.38087E-02-1.03913E-01-3.31707E-03 1.10840E-01-3.54358E-02 4.65862E+00-2.81202E+01-4.51115E+01



 n o d a l   p r i n t   o u t   f o r   t i m e  s t e p    4601                              ( at time 2.2997698E+00 )

 nodal point  x-rot      y-rot       z-rot       x-rot vel   y-rot vel   z-rot vel   x-rot acc   y-rot acc   z-rot acc
    22626 -2.12595E-04 5.20558E-06 2.25345E-06-2.49038E-04 1.34827E-05 2.95249E-06-4.01883E-04 1.70726E-05-2.06932E-05



 n o d a l   p r i n t   o u t   f o r   t i m e  s t e p    4801                              ( at time 2.3997598E+00 )

 nodal point  x-disp     y-disp      z-disp      x-vel       y-vel       z-vel      x-accl      y-accl      z-accl      x-coor      y-coor      z-coor
    22626 -8.55329E-04 7.97887E-02-1.40424E-01-1.08077E-03 9.93626E-02-1.09643E-01-3.02587E-03 1.55554E-01-5.73082E-02 4.65852E+00-2.81110E+01-4.51221E+01



 n o d a l   p r i n t   o u t   f o r   t i m e  s t e p    4801                              ( at time 2.3997598E+00 )

 nodal point  x-rot      y-rot       z-rot       x-rot vel   y-rot vel   z-rot vel   x-rot acc   y-rot acc   z-rot acc
    22626 -2.40675E-04 6.40331E-06 2.66840E-06-3.17842E-04 1.21246E-05 5.43756E-06-6.88112E-04-1.35821E-05 2.48532E-05



 n o d a l   p r i n t   o u t   f o r   t i m e  s t e p    5001                              ( at time 2.4997498E+00 )

 nodal point  x-disp     y-disp      z-disp      x-vel       y-vel       z-vel      x-accl      y-accl      z-accl      x-coor      y-coor      z-coor
    22626 -9.63090E-04 9.05372E-02-1.51589E-01-1.03545E-03 1.15371E-01-1.12644E-01 4.53195E-04 1.60097E-01-3.00164E-02 4.65841E+00-2.81003E+01-4.51333E+01



 n o d a l   p r i n t   o u t   f o r   t i m e  s t e p    5001                              ( at time 2.4997498E+00 )

 nodal point  x-rot      y-rot       z-rot       x-rot vel   y-rot vel   z-rot vel   x-rot acc   y-rot acc   z-rot acc
    22626 -2.76608E-04 7.87979E-06 3.29492E-06-3.95465E-04 1.65981E-05 1.06501E-05-7.76307E-04 4.47391E-05 5.21308E-05



 n o d a l   p r i n t   o u t   f o r   t i m e  s t e p    5201                              ( at time 2.5997398E+00 )

 nodal point  x-disp     y-disp      z-disp      x-vel       y-vel       z-vel      x-accl      y-accl      z-accl      x-coor      y-coor      z-coor
    22626 -1.06059E-03 1.02952E-01-1.62835E-01-9.78885E-04 1.33019E-01-1.12465E-01 5.65708E-04 1.76497E-01 1.79711E-03 4.65831E+00-2.80879E+01-4.51446E+01



 n o d a l   p r i n t   o u t   f o r   t i m e  s t e p    5201                              ( at time 2.5997398E+00 )

 nodal point  x-rot      y-rot       z-rot       x-rot vel   y-rot vel   z-rot vel   x-rot acc   y-rot acc   z-rot acc
    22626 -3.21753E-04 9.89121E-06 4.49120E-06-4.97034E-04 2.28619E-05 1.46077E-05-1.01579E-03 6.26439E-05 3.95793E-05



 n o d a l   p r i n t   o u t   f o r   t i m e  s t e p    5401                              ( at time 2.6997298E+00 )

 nodal point  x-disp     y-disp      z-disp      x-vel       y-vel       z-vel      x-accl      y-accl      z-accl      x-coor      y-coor      z-coor
    22626 -1.15596E-03 1.17230E-01-1.74128E-01-7.48016E-04 1.53251E-01-1.13369E-01 2.30892E-03 2.02342E-01-9.03956E-03 4.65822E+00-2.80736E+01-4.51558E+01



 n o d a l   p r i n t   o u t   f o r   t i m e  s t e p    5401                              ( at time 2.6997298E+00 )

 nodal point  x-rot      y-rot       z-rot       x-rot vel   y-rot vel   z-rot vel   x-rot acc   y-rot acc   z-rot acc
    22626 -3.78754E-04 1.22389E-05 6.19624E-06-6.39227E-04 2.41877E-05 1.71555E-05-1.42207E-03 1.32594E-05 2.54813E-05



 n o d a l   p r i n t   o u t   f o r   t i m e  s t e p    5601                              ( at time 2.7997198E+00 )

 nodal point  x-disp     y-disp      z-disp      x-vel       y-vel       z-vel      x-accl      y-accl      z-accl      x-coor      y-coor      z-coor
    22626 -1.23263E-03 1.33717E-01-1.85468E-01-6.71324E-04 1.75970E-01-1.13825E-01 7.66998E-04 2.27218E-01-4.56648E-03 4.65814E+00-2.80571E+01-4.51672E+01



 n o d a l   p r i n t   o u t   f o r   t i m e  s t e p    5601                              ( at time 2.7997198E+00 )

 nodal point  x-rot      y-rot       z-rot       x-rot vel   y-rot vel   z-rot vel   x-rot acc   y-rot acc   z-rot acc
    22626 -4.49104E-04 1.48191E-05 8.04979E-06-7.63386E-04 2.66656E-05 1.90239E-05-1.24171E-03 2.47814E-05 1.86860E-05



 n o d a l   p r i n t   o u t   f o r   t i m e  s t e p    5801                              ( at time 2.8997098E+00 )

 nodal point  x-disp     y-disp      z-disp      x-vel       y-vel       z-vel      x-accl      y-accl      z-accl      x-coor      y-coor      z-coor
    22626 -1.29783E-03 1.52556E-01-1.96936E-01-4.53415E-04 2.01321E-01-1.15478E-01 2.17931E-03 2.53534E-01-1.65303E-02 4.65808E+00-2.80383E+01-4.51787E+01



 n o d a l   p r i n t   o u t   f o r   t i m e  s t e p    5801                              ( at time 2.8997098E+00 )

 nodal point  x-rot      y-rot       z-rot       x-rot vel   y-rot vel   z-rot vel   x-rot acc   y-rot acc   z-rot acc
    22626 -5.33746E-04 1.74958E-05 1.01527E-05-9.35467E-04 2.54718E-05 2.31715E-05-1.72098E-03-1.19389E-05 4.14796E-05



 n o d a l   p r i n t   o u t   f o r   t i m e  s t e p    6001                              ( at time 2.9996998E+00 )

 nodal point  x-disp     y-disp      z-disp      x-vel       y-vel       z-vel      x-accl      y-accl      z-accl      x-coor      y-coor      z-coor
    22626 -1.34228E-03 1.73906E-01-2.08343E-01-2.50758E-04 2.25728E-01-1.12500E-01 2.02677E-03 2.44093E-01 2.97828E-02 4.65803E+00-2.80169E+01-4.51901E+01



 n o d a l   p r i n t   o u t   f o r   t i m e  s t e p    6001                              ( at time 2.9996998E+00 )

 nodal point  x-rot      y-rot       z-rot       x-rot vel   y-rot vel   z-rot vel   x-rot acc   y-rot acc   z-rot acc
    22626 -6.37717E-04 2.00515E-05 1.25161E-05-1.14568E-03 2.38225E-05 2.48856E-05-2.10237E-03-1.64941E-05 1.71425E-05



 n o d a l   p r i n t   o u t   f o r   t i m e  s t e p    6201                              ( at time 3.0996898E+00 )

 nodal point  x-disp     y-disp      z-disp      x-vel       y-vel       z-vel      x-accl      y-accl      z-accl      x-coor      y-coor      z-coor
    22626 -1.36786E-03 1.97763E-01-2.19418E-01-7.25670E-05 2.51772E-01-1.09827E-01 1.78209E-03 2.60468E-01 2.67368E-02 4.65801E+00-2.79931E+01-4.52011E+01



 n o d a l   p r i n t   o u t   f o r   t i m e  s t e p    6201                              ( at time 3.0996898E+00 )

 nodal point  x-rot      y-rot       z-rot       x-rot vel   y-rot vel   z-rot vel   x-rot acc   y-rot acc   z-rot acc
    22626 -7.62548E-04 2.30838E-05 1.55415E-05-1.34071E-03 3.43581E-05 2.96867E-05-1.95045E-03 1.05366E-04 4.80164E-05



 n o d a l   p r i n t   o u t   f o r   t i m e  s t e p    6401                              ( at time 3.1996798E+00 )

 nodal point  x-disp     y-disp      z-disp      x-vel       y-vel       z-vel      x-accl      y-accl      z-accl      x-coor      y-coor      z-coor
    22626 -1.33695E-03 2.24464E-01-2.30328E-01 1.08318E-04 2.79347E-01-1.07861E-01 1.80903E-03 2.75775E-01 1.96597E-02 4.65804E+00-2.79664E+01-4.52120E+01



 n o d a l   p r i n t   o u t   f o r   t i m e  s t e p    6401                              ( at time 3.1996798E+00 )

 nodal point  x-rot      y-rot       z-rot       x-rot vel   y-rot vel   z-rot vel   x-rot acc   y-rot acc   z-rot acc
    22626 -9.09014E-04 2.63510E-05 1.89501E-05-1.54548E-03 2.63863E-05 2.69500E-05-2.04788E-03-7.97255E-05-2.73701E-05



 n o d a l   p r i n t   o u t   f o r   t i m e  s t e p    6601                              ( at time 3.2996698E+00 )

 nodal point  x-disp     y-disp      z-disp      x-vel       y-vel       z-vel      x-accl      y-accl      z-accl      x-coor      y-coor      z-coor
    22626 -1.35928E-03 2.53902E-01-2.41065E-01-4.65047E-04 3.10594E-01-1.06767E-01-5.73423E-03 3.12501E-01 1.09401E-02 4.65802E+00-2.79369E+01-4.52228E+01



 n o d a l   p r i n t   o u t   f o r   t i m e  s t e p    6601                              ( at time 3.2996698E+00 )

 nodal point  x-rot      y-rot       z-rot       x-rot vel   y-rot vel   z-rot vel   x-rot acc   y-rot acc   z-rot acc
    22626 -1.07705E-03 2.94411E-05 2.17084E-05-1.79433E-03 2.77106E-05 1.67986E-05-2.48880E-03 1.32445E-05-1.01524E-04



 n o d a l   p r i n t   o u t   f o r   t i m e  s t e p    6801                              ( at time 3.3996598E+00 )

 nodal point  x-disp     y-disp      z-disp      x-vel       y-vel       z-vel      x-accl      y-accl      z-accl      x-coor      y-coor      z-coor
    22626 -1.36456E-03 2.86374E-01-2.51517E-01 5.24053E-04 3.39509E-01-1.01773E-01 9.89197E-03 2.89178E-01 4.99443E-02 4.65801E+00-2.79045E+01-4.52332E+01



 n o d a l   p r i n t   o u t   f o r   t i m e  s t e p    6801                              ( at time 3.3996598E+00 )

 nodal point  x-rot      y-rot       z-rot       x-rot vel   y-rot vel   z-rot vel   x-rot acc   y-rot acc   z-rot acc
    22626 -1.27031E-03 3.24616E-05 2.47675E-05-2.05915E-03 2.97270E-05 2.69669E-05-2.64842E-03 2.01657E-05 1.01693E-04



 n o d a l   p r i n t   o u t   f o r   t i m e  s t e p    7001                              ( at time 3.4996498E+00 )

 nodal point  x-disp     y-disp      z-disp      x-vel       y-vel       z-vel      x-accl      y-accl      z-accl      x-coor      y-coor      z-coor
    22626 -1.34976E-03 3.21804E-01-2.61323E-01 2.02829E-04 3.68525E-01-9.55977E-02-3.21257E-03 2.90195E-01 6.17596E-02 4.65803E+00-2.78690E+01-4.52430E+01



 n o d a l   p r i n t   o u t   f o r   t i m e  s t e p    7001                              ( at time 3.4996498E+00 )

 nodal point  x-rot      y-rot       z-rot       x-rot vel   y-rot vel   z-rot vel   x-rot acc   y-rot acc   z-rot acc
    22626 -1.48910E-03 3.58898E-05 2.87484E-05-2.32643E-03 2.72315E-05 2.79500E-05-2.67308E-03-2.49580E-05 9.83187E-06



 n o d a l   p r i n t   o u t   f o r   t i m e  s t e p    7201                              ( at time 3.5996397E+00 )

 nodal point  x-disp     y-disp      z-disp      x-vel       y-vel       z-vel      x-accl      y-accl      z-accl      x-coor      y-coor      z-coor
    22626 -1.32760E-03 3.60228E-01-2.70492E-01-3.63783E-04 4.00194E-01-8.95683E-02-5.66669E-03 3.16720E-01 6.02994E-02 4.65805E+00-2.78306E+01-4.52522E+01



 n o d a l   p r i n t   o u t   f o r   t i m e  s t e p    7201                              ( at time 3.5996397E+00 )

 nodal point  x-rot      y-rot       z-rot       x-rot vel   y-rot vel   z-rot vel   x-rot acc   y-rot acc   z-rot acc
    22626 -1.73332E-03 3.91785E-05 3.11684E-05-2.60657E-03 2.92641E-05 1.44643E-05-2.80176E-03 2.03281E-05-1.34871E-04



 n o d a l   p r i n t   o u t   f o r   t i m e  s t e p    7401                              ( at time 3.6996297E+00 )

 nodal point  x-disp     y-disp      z-disp      x-vel       y-vel       z-vel      x-accl      y-accl      z-accl      x-coor      y-coor      z-coor
    22626 -1.36186E-03 4.01926E-01-2.79111E-01 1.53281E-04 4.31789E-01-8.29520E-02 5.17115E-03 3.15976E-01 6.61698E-02 4.65801E+00-2.77889E+01-4.52608E+01



 n o d a l   p r i n t   o u t   f o r   t i m e  s t e p    7401                              ( at time 3.6996297E+00 )

 nodal point  x-rot      y-rot       z-rot       x-rot vel   y-rot vel   z-rot vel   x-rot acc   y-rot acc   z-rot acc
    22626 -2.00533E-03 4.23554E-05 3.34274E-05-2.83850E-03 3.16055E-05 1.67437E-05-2.31947E-03 2.34167E-05 2.27962E-05



 n o d a l   p r i n t   o u t   f o r   t i m e  s t e p    7601                              ( at time 3.7996197E+00 )

 nodal point  x-disp     y-disp      z-disp      x-vel       y-vel       z-vel      x-accl      y-accl      z-accl      x-coor      y-coor      z-coor
    22626 -1.35050E-03 4.46644E-01-2.87111E-01-1.64544E-04 4.63554E-01-7.54981E-02-3.17857E-03 3.17680E-01 7.45469E-02 4.65802E+00-2.77442E+01-4.52688E+01



 n o d a l   p r i n t   o u t   f o r   t i m e  s t e p    7601                              ( at time 3.7996197E+00 )

 nodal point  x-rot      y-rot       z-rot       x-rot vel   y-rot vel   z-rot vel   x-rot acc   y-rot acc   z-rot acc
    22626 -2.30405E-03 4.51121E-05 3.56704E-05-3.10850E-03 3.17923E-05 2.08165E-05-2.70027E-03 1.86811E-06 4.07321E-05



 n o d a l   p r i n t   o u t   f o r   t i m e  s t e p    7801                              ( at time 3.8996097E+00 )

 nodal point  x-disp     y-disp      z-disp      x-vel       y-vel       z-vel      x-accl      y-accl      z-accl      x-coor      y-coor      z-coor
    22626 -1.33865E-03 4.94726E-01-2.94336E-01 2.50428E-04 4.97007E-01-6.68604E-02 4.15013E-03 3.34565E-01 8.63856E-02 4.65804E+00-2.76961E+01-4.52761E+01



 n o d a l   p r i n t   o u t   f o r   t i m e  s t e p    7801                              ( at time 3.8996097E+00 )

 nodal point  x-rot      y-rot       z-rot       x-rot vel   y-rot vel   z-rot vel   x-rot acc   y-rot acc   z-rot acc
    22626 -2.63203E-03 4.74355E-05 3.75887E-05-3.38848E-03 2.80775E-05 2.19778E-05-2.80007E-03-3.71512E-05 1.16143E-05



 n o d a l   p r i n t   o u t   f o r   t i m e  s t e p    8001                              ( at time 3.9995997E+00 )

 nodal point  x-disp     y-disp      z-disp      x-vel       y-vel       z-vel      x-accl      y-accl      z-accl      x-coor      y-coor      z-coor
    22626 -1.34207E-03 5.46125E-01-3.00706E-01-8.68922E-04 5.32297E-01-5.96920E-02-1.11946E-02 3.52938E-01 7.16907E-02 4.65803E+00-2.76447E+01-4.52824E+01



 n o d a l   p r i n t   o u t   f o r   t i m e  s t e p    8001                              ( at time 3.9995997E+00 )

 nodal point  x-rot      y-rot       z-rot       x-rot vel   y-rot vel   z-rot vel   x-rot acc   y-rot acc   z-rot acc
    22626 -2.98640E-03 4.94145E-05 3.80296E-05-3.68017E-03 2.57875E-05 5.66769E-07-2.91724E-03-2.29024E-05-2.14132E-04



 n o d a l   p r i n t   o u t   f o r   t i m e  s t e p    8201                              ( at time 4.0995897E+00 )

 nodal point  x-disp     y-disp      z-disp      x-vel       y-vel       z-vel      x-accl      y-accl      z-accl      x-coor      y-coor      z-coor
    22626 -1.40648E-03 6.00998E-01-3.06236E-01-1.39881E-05 5.66390E-01-5.22554E-02 8.55018E-03 3.40964E-01 7.43732E-02 4.65797E+00-2.75898E+01-4.52880E+01



 n o d a l   p r i n t   o u t   f o r   t i m e  s t e p    8201                              ( at time 4.0995897E+00 )

 nodal point  x-rot      y-rot       z-rot       x-rot vel   y-rot vel   z-rot vel   x-rot acc   y-rot acc   z-rot acc
    22626 -3.36739E-03 5.07306E-05 3.82738E-05-3.98741E-03 6.35923E-06 1.15797E-05-3.07271E-03-1.94302E-04 1.10140E-04



 n o d a l   p r i n t   o u t   f o r   t i m e  s t e p    8401                              ( at time 4.1995797E+00 )

 nodal point  x-disp     y-disp      z-disp      x-vel       y-vel       z-vel      x-accl      y-accl      z-accl      x-coor      y-coor      z-coor
    22626 -1.44226E-03 6.59566E-01-3.10939E-01 2.06142E-04 6.03374E-01-4.39432E-02 2.20152E-03 3.69872E-01 8.31308E-02 4.65793E+00-2.75313E+01-4.52927E+01



 n o d a l   p r i n t   o u t   f o r   t i m e  s t e p    8401                              ( at time 4.1995797E+00 )

 nodal point  x-rot      y-rot       z-rot       x-rot vel   y-rot vel   z-rot vel   x-rot acc   y-rot acc   z-rot acc
    22626 -3.77726E-03 5.21553E-05 3.85698E-05-4.25073E-03 6.78895E-06 1.04099E-05-2.63347E-03 4.29761E-06-1.16994E-05



 n o d a l   p r i n t   o u t   f o r   t i m e  s t e p    8601                              ( at time 4.2995697E+00 )

 nodal point  x-disp     y-disp      z-disp      x-vel       y-vel       z-vel      x-accl      y-accl      z-accl      x-coor      y-coor      z-coor
    22626 -1.49435E-03 7.21735E-01-3.14760E-01-1.12793E-03 6.39884E-01-3.18995E-02-1.33421E-02 3.65137E-01 1.20450E-01 4.65788E+00-2.74691E+01-4.52965E+01



 n o d a l   p r i n t   o u t   f o r   t i m e  s t e p    8601                              ( at time 4.2995697E+00 )

 nodal point  x-rot      y-rot       z-rot       x-rot vel   y-rot vel   z-rot vel   x-rot acc   y-rot acc   z-rot acc
    22626 -4.21403E-03 5.24754E-05 3.75673E-05-4.50239E-03-1.26990E-05 1.57912E-06-2.51682E-03-1.94900E-04-8.83165E-05



 n o d a l   p r i n t   o u t   f o r   t i m e  s t e p    8801                              ( at time 4.3995597E+00 )

 nodal point  x-disp     y-disp      z-disp      x-vel       y-vel       z-vel      x-accl      y-accl      z-accl      x-coor      y-coor      z-coor
    22626 -1.63321E-03 7.87543E-01-3.17406E-01-7.20700E-04 6.77792E-01-2.10562E-02 4.07272E-03 3.79120E-01 1.08443E-01 4.65774E+00-2.74033E+01-4.52991E+01



 n o d a l   p r i n t   o u t   f o r   t i m e  s t e p    8801                              ( at time 4.3995597E+00 )

 nodal point  x-rot      y-rot       z-rot       x-rot vel   y-rot vel   z-rot vel   x-rot acc   y-rot acc   z-rot acc
    22626 -4.67911E-03 5.32828E-05 3.60706E-05-4.79056E-03 1.85155E-05-1.56151E-05-2.88198E-03 3.12177E-04-1.71959E-04



 n o d a l   p r i n t   o u t   f o r   t i m e  s t e p    9001                              ( at time 4.4995497E+00 )

 nodal point  x-disp     y-disp      z-disp      x-vel       y-vel       z-vel      x-accl      y-accl      z-accl      x-coor      y-coor      z-coor
    22626 -1.72884E-03 8.56995E-01-3.19071E-01-1.23792E-04 7.14764E-01-1.06401E-02 5.96965E-03 3.69761E-01 1.04171E-01 4.65765E+00-2.73338E+01-4.53008E+01



 n o d a l   p r i n t   o u t   f o r   t i m e  s t e p    9001                              ( at time 4.4995497E+00 )

 nodal point  x-rot      y-rot       z-rot       x-rot vel   y-rot vel   z-rot vel   x-rot acc   y-rot acc   z-rot acc
    22626 -5.17156E-03 5.42221E-05 3.50825E-05-5.04429E-03 9.40543E-06-2.11563E-05-2.53756E-03-9.11094E-05-5.54172E-05



 n o d a l   p r i n t   o u t   f o r   t i m e  s t e p    9201                              ( at time 4.5995397E+00 )

 nodal point  x-disp     y-disp      z-disp      x-vel       y-vel       z-vel      x-accl      y-accl      z-accl      x-coor      y-coor      z-coor
    22626 -1.87171E-03 9.30327E-01-3.19615E-01-2.81265E-03 7.51013E-01 5.02804E-04-2.68913E-02 3.62521E-01 1.11440E-01 4.65750E+00-2.72605E+01-4.53013E+01



 n o d a l   p r i n t   o u t   f o r   t i m e  s t e p    9201                              ( at time 4.5995397E+00 )

 nodal point  x-rot      y-rot       z-rot       x-rot vel   y-rot vel   z-rot vel   x-rot acc   y-rot acc   z-rot acc
    22626 -5.69052E-03 5.38862E-05 3.30706E-05-5.31043E-03-7.17116E-06-3.17803E-05-2.66163E-03-1.65783E-04-1.06251E-04



 n o d a l   p r i n t   o u t   f o r   t i m e  s t e p    9401                              ( at time 4.6995297E+00 )

 nodal point  x-disp     y-disp      z-disp      x-vel       y-vel       z-vel      x-accl      y-accl      z-accl      x-coor      y-coor      z-coor
    22626 -2.01527E-03 1.00733E+00-3.19085E-01-2.70341E-03 7.89536E-01 1.02191E-02 1.09251E-03 3.85271E-01 9.71727E-02 4.65736E+00-2.71835E+01-4.53008E+01



 n o d a l   p r i n t   o u t   f o r   t i m e  s t e p    9401                              ( at time 4.6995297E+00 )

 nodal point  x-rot      y-rot       z-rot       x-rot vel   y-rot vel   z-rot vel   x-rot acc   y-rot acc   z-rot acc
    22626 -6.23555E-03 5.33960E-05 2.98950E-05-5.59442E-03-5.95532E-06-3.42325E-05-2.84028E-03 1.21597E-05-2.45249E-05



 n o d a l   p r i n t   o u t   f o r   t i m e  s t e p    9601                              ( at time 4.7995197E+00 )

 nodal point  x-disp     y-disp      z-disp      x-vel       y-vel       z-vel      x-accl      y-accl      z-accl      x-coor      y-coor      z-coor
    22626 -2.18782E-03 1.08818E+00-3.17296E-01-5.45025E-04 8.26982E-01 2.56453E-02 2.15860E-02 3.74496E-01 1.54278E-01 4.65719E+00-2.71026E+01-4.52990E+01



 n o d a l   p r i n t   o u t   f o r   t i m e  s t e p    9601                              ( at time 4.7995197E+00 )

 nodal point  x-rot      y-rot       z-rot       x-rot vel   y-rot vel   z-rot vel   x-rot acc   y-rot acc   z-rot acc
    22626 -6.80694E-03 5.27363E-05 2.64471E-05-5.82967E-03-1.44952E-05-3.61262E-05-2.35267E-03-8.54078E-05-1.89385E-05



 n o d a l   p r i n t   o u t   f o r   t i m e  s t e p    9801                              ( at time 4.8995097E+00 )

 nodal point  x-disp     y-disp      z-disp      x-vel       y-vel       z-vel      x-accl      y-accl      z-accl      x-coor      y-coor      z-coor
    22626 -2.35254E-03 1.17277E+00-3.14174E-01-1.15530E-03 8.63495E-01 3.62151E-02-6.10336E-03 3.65167E-01 1.05708E-01 4.65702E+00-2.70181E+01-4.52959E+01



 n o d a l   p r i n t   o u t   f o r   t i m e  s t e p    9801                              ( at time 4.8995097E+00 )

 nodal point  x-rot      y-rot       z-rot       x-rot vel   y-rot vel   z-rot vel   x-rot acc   y-rot acc   z-rot acc
    22626 -7.40226E-03 5.06542E-05 2.36413E-05-6.06484E-03-1.45459E-05-5.29874E-05-2.35194E-03-5.06976E-07-1.68629E-04



 n o d a l   p r i n t   o u t   f o r   t i m e  s t e p   10001                              ( at time 4.9994997E+00 )

 nodal point  x-disp     y-disp      z-disp      x-vel       y-vel       z-vel      x-accl      y-accl      z-accl      x-coor      y-coor      z-coor
    22626 -2.53450E-03 1.26112E+00-3.09949E-01-2.35774E-03 9.02971E-01 4.82481E-02-1.20256E-02 3.94803E-01 1.20342E-01 4.65684E+00-2.69297E+01-4.52917E+01



 n o d a l   p r i n t   o u t   f o r   t i m e  s t e p   10001                              ( at time 4.9994997E+00 )

 nodal point  x-rot      y-rot       z-rot       x-rot vel   y-rot vel   z-rot vel   x-rot acc   y-rot acc   z-rot acc
    22626 -8.02010E-03 4.87476E-05 1.88948E-05-6.30290E-03-3.63903E-05-3.79866E-05-2.38082E-03-2.18465E-04 1.50022E-04



 n o d a l   p r i n t   o u t   f o r   t i m e  s t e p   10202                              ( at time 5.0999896E+00 )

 nodal point  x-disp     y-disp      z-disp      x-vel       y-vel       z-vel      x-accl      y-accl      z-accl      x-coor      y-coor      z-coor
    22626 -2.74662E-03 1.35378E+00-3.04357E-01-2.35227E-03 9.40317E-01 6.20457E-02 5.44324E-05 3.71636E-01 1.37303E-01 4.65663E+00-2.68370E+01-4.52861E+01



 n o d a l   p r i n t   o u t   f o r   t i m e  s t e p   10202                              ( at time 5.0999896E+00 )

 nodal point  x-rot      y-rot       z-rot       x-rot vel   y-rot vel   z-rot vel   x-rot acc   y-rot acc   z-rot acc
    22626 -8.66398E-03 4.64560E-05 1.44476E-05-6.51757E-03-2.16933E-05-5.62052E-05-2.13630E-03 1.46254E-04-1.81299E-04



 n o d a l   p r i n t   o u t   f o r   t i m e  s t e p   10402                              ( at time 5.1999796E+00 )

 nodal point  x-disp     y-disp      z-disp      x-vel       y-vel       z-vel      x-accl      y-accl      z-accl      x-coor      y-coor      z-coor
    22626 -3.02037E-03 1.44960E+00-2.97503E-01-1.70944E-03 9.78195E-01 7.45838E-02 6.42892E-03 3.78819E-01 1.25394E-01 4.65635E+00-2.67412E+01-4.52792E+01



 n o d a l   p r i n t   o u t   f o r   t i m e  s t e p   10402                              ( at time 5.1999796E+00 )

 nodal point  x-rot      y-rot       z-rot       x-rot vel   y-rot vel   z-rot vel   x-rot acc   y-rot acc   z-rot acc
    22626 -9.32516E-03 4.39415E-05 8.84513E-06-6.74447E-03-2.06541E-05-7.95651E-05-2.26923E-03 1.03927E-05-2.33621E-04



 n o d a l   p r i n t   o u t   f o r   t i m e  s t e p   10602                              ( at time 5.2999696E+00 )

 nodal point  x-disp     y-disp      z-disp      x-vel       y-vel       z-vel      x-accl      y-accl      z-accl      x-coor      y-coor      z-coor
    22626 -3.32517E-03 1.54923E+00-2.89265E-01-3.85840E-03 1.01475E+00 9.00733E-02-2.14918E-02 3.65541E-01 1.54910E-01 4.65605E+00-2.66416E+01-4.52710E+01



 n o d a l   p r i n t   o u t   f o r   t i m e  s t e p   10602                              ( at time 5.2999696E+00 )

 nodal point  x-rot      y-rot       z-rot       x-rot vel   y-rot vel   z-rot vel   x-rot acc   y-rot acc   z-rot acc
    22626 -1.00066E-02 4.08811E-05 4.23218E-06-6.89778E-03-2.44999E-05-4.93752E-05-1.53321E-03-3.84614E-05 3.01930E-04



 n o d a l   p r i n t   o u t   f o r   t i m e  s t e p   10802                              ( at time 5.3999596E+00 )

 nodal point  x-disp     y-disp      z-disp      x-vel       y-vel       z-vel      x-accl      y-accl      z-accl      x-coor      y-coor      z-coor
    22626 -3.61034E-03 1.65247E+00-2.79709E-01-4.09456E-03 1.05212E+00 1.02990E-01-2.36180E-03 3.73833E-01 1.29180E-01 4.65576E+00-2.65384E+01-4.52614E+01



 n o d a l   p r i n t   o u t   f o r   t i m e  s t e p   10802                              ( at time 5.3999596E+00 )

 nodal point  x-rot      y-rot       z-rot       x-rot vel   y-rot vel   z-rot vel   x-rot acc   y-rot acc   z-rot acc
    22626 -1.07054E-02 3.80338E-05-2.54240E-06-7.06731E-03-4.59943E-05-6.54382E-05-1.69547E-03-2.14965E-04-1.60647E-04



 n o d a l   p r i n t   o u t   f o r   t i m e  s t e p   11002                              ( at time 5.4999496E+00 )

 nodal point  x-disp     y-disp      z-disp      x-vel       y-vel       z-vel      x-accl      y-accl      z-accl      x-coor      y-coor      z-coor
    22626 -3.93412E-03 1.75937E+00-2.68819E-01-3.38634E-03 1.08795E+00 1.16681E-01 7.08283E-03 3.58299E-01 1.36925E-01 4.65544E+00-2.64315E+01-4.52505E+01



 n o d a l   p r i n t   o u t   f o r   t i m e  s t e p   11002                              ( at time 5.4999496E+00 )

 nodal point  x-rot      y-rot       z-rot       x-rot vel   y-rot vel   z-rot vel   x-rot acc   y-rot acc   z-rot acc
    22626 -1.14209E-02 3.43413E-05-9.12320E-06-7.22267E-03-3.27846E-05-5.43506E-05-1.55378E-03 1.32110E-04 1.10887E-04



 n o d a l   p r i n t   o u t   f o r   t i m e  s t e p   11202                              ( at time 5.5999396E+00 )

 nodal point  x-disp     y-disp      z-disp      x-vel       y-vel       z-vel      x-accl      y-accl      z-accl      x-coor      y-coor      z-coor
    22626 -4.28583E-03 1.86985E+00-2.56511E-01-2.01487E-03 1.12212E+00 1.29459E-01 1.37162E-02 3.41682E-01 1.27797E-01 4.65509E+00-2.63210E+01-4.52382E+01



 n o d a l   p r i n t   o u t   f o r   t i m e  s t e p   11202                              ( at time 5.5999396E+00 )

 nodal point  x-rot      y-rot       z-rot       x-rot vel   y-rot vel   z-rot vel   x-rot acc   y-rot acc   z-rot acc
    22626 -1.21505E-02 3.05705E-05-1.44090E-05-7.37292E-03-4.89656E-05-5.72167E-05-1.50265E-03-1.61827E-04-2.86637E-05



 n o d a l   p r i n t   o u t   f o r   t i m e  s t e p   11402                              ( at time 5.6999296E+00 )

 nodal point  x-disp     y-disp      z-disp      x-vel       y-vel       z-vel      x-accl      y-accl      z-accl      x-coor      y-coor      z-coor
    22626 -4.64224E-03 1.98382E+00-2.42719E-01-3.65784E-03 1.15595E+00 1.45744E-01-1.64313E-02 3.38406E-01 1.62865E-01 4.65473E+00-2.62070E+01-4.52244E+01



 n o d a l   p r i n t   o u t   f o r   t i m e  s t e p   11402                              ( at time 5.6999296E+00 )

 nodal point  x-rot      y-rot       z-rot       x-rot vel   y-rot vel   z-rot vel   x-rot acc   y-rot acc   z-rot acc
    22626 -1.28916E-02 2.56026E-05-2.18329E-05-7.46929E-03-5.43228E-05-4.58588E-05-9.63751E-04-5.35771E-05 1.13590E-04



 n o d a l   p r i n t   o u t   f o r   t i m e  s t e p   11602                              ( at time 5.7999195E+00 )

 nodal point  x-disp     y-disp      z-disp      x-vel       y-vel       z-vel      x-accl      y-accl      z-accl      x-coor      y-coor      z-coor
    22626 -4.97635E-03 2.10115E+00-2.27420E-01-3.33821E-03 1.19018E+00 1.58337E-01 3.19663E-03 3.42253E-01 1.25935E-01 4.65440E+00-2.60897E+01-4.52091E+01



 n o d a l   p r i n t   o u t   f o r   t i m e  s t e p   11602                              ( at time 5.7999195E+00 )

 nodal point  x-rot      y-rot       z-rot       x-rot vel   y-rot vel   z-rot vel   x-rot acc   y-rot acc   z-rot acc
    22626 -1.36414E-02 2.11899E-05-2.81479E-05-7.54283E-03-3.69985E-05-6.14907E-05-7.35498E-04 1.73261E-04-1.56334E-04



 n o d a l   p r i n t   o u t   f o r   t i m e  s t e p   11802                              ( at time 5.8999095E+00 )

 nodal point  x-disp     y-disp      z-disp      x-vel       y-vel       z-vel      x-accl      y-accl      z-accl      x-coor      y-coor      z-coor
    22626 -5.35703E-03 2.22186E+00-2.10891E-01-4.46966E-03 1.22397E+00 1.71466E-01-1.13156E-02 3.38003E-01 1.31308E-01 4.65402E+00-2.59690E+01-4.51926E+01



 n o d a l   p r i n t   o u t   f o r   t i m e  s t e p   11802                              ( at time 5.8999095E+00 )

 nodal point  x-rot      y-rot       z-rot       x-rot vel   y-rot vel   z-rot vel   x-rot acc   y-rot acc   z-rot acc
    22626 -1.43977E-02 1.73446E-05-3.55820E-05-7.61776E-03-4.64251E-05-4.97895E-05-7.49381E-04-9.42752E-05 1.17023E-04



 n o d a l   p r i n t   o u t   f o r   t i m e  s t e p   12002                              ( at time 5.9998995E+00 )

 nodal point  x-disp     y-disp      z-disp      x-vel       y-vel       z-vel      x-accl      y-accl      z-accl      x-coor      y-coor      z-coor
    22626 -5.78523E-03 2.34589E+00-1.92898E-01-4.47353E-03 1.25400E+00 1.88024E-01-3.86585E-05 3.00315E-01 1.65598E-01 4.65359E+00-2.58449E+01-4.51746E+01



 n o d a l   p r i n t   o u t   f o r   t i m e  s t e p   12002                              ( at time 5.9998995E+00 )

 nodal point  x-rot      y-rot       z-rot       x-rot vel   y-rot vel   z-rot vel   x-rot acc   y-rot acc   z-rot acc
    22626 -1.51590E-02 1.19632E-05-4.10197E-05-7.61156E-03-2.98494E-05-6.20690E-05 6.19765E-05 1.65773E-04-1.22807E-04



 n o d a l   p r i n t   o u t   f o r   t i m e  s t e p   12202                              ( at time 6.0998895E+00 )

 nodal point  x-disp     y-disp      z-disp      x-vel       y-vel       z-vel      x-accl      y-accl      z-accl      x-coor      y-coor      z-coor
    22626 -6.19161E-03 2.47267E+00-1.73407E-01-5.83036E-03 1.28309E+00 2.02156E-01-1.35696E-02 2.90958E-01 1.41329E-01 4.65318E+00-2.57182E+01-4.51551E+01



 n o d a l   p r i n t   o u t   f o r   t i m e  s t e p   12202                              ( at time 6.0998895E+00 )

 nodal point  x-rot      y-rot       z-rot       x-rot vel   y-rot vel   z-rot vel   x-rot acc   y-rot acc   z-rot acc
    22626 -1.59194E-02 6.11458E-06-5.01038E-05-7.63501E-03-7.31008E-05-1.20309E-04-2.34455E-04-4.32555E-04-5.82457E-04



 n o d a l   p r i n t   o u t   f o r   t i m e  s t e p   12402                              ( at time 6.1998795E+00 )

 nodal point  x-disp     y-disp      z-disp      x-vel       y-vel       z-vel      x-accl      y-accl      z-accl      x-coor      y-coor      z-coor
    22626 -6.83276E-03 2.60247E+00-1.52428E-01-8.19672E-03 1.31264E+00 2.16743E-01-2.36660E-02 2.95526E-01 1.45888E-01 4.65254E+00-2.55884E+01-4.51341E+01



 n o d a l   p r i n t   o u t   f o r   t i m e  s t e p   12402                              ( at time 6.1998795E+00 )

 nodal point  x-rot      y-rot       z-rot       x-rot vel   y-rot vel   z-rot vel   x-rot acc   y-rot acc   z-rot acc
    22626 -1.66821E-02-1.45096E-06-6.46975E-05-7.63494E-03-7.59077E-05-1.42633E-04 6.56649E-07-2.80722E-05-2.23264E-04



 n o d a l   p r i n t   o u t   f o r   t i m e  s t e p   12602                              ( at time 6.2998695E+00 )

 nodal point  x-disp     y-disp      z-disp      x-vel       y-vel       z-vel      x-accl      y-accl      z-accl      x-coor      y-coor      z-coor
    22626 -7.45517E-03 2.73507E+00-1.30036E-01-4.13306E-03 1.34026E+00 2.31375E-01 4.06407E-02 2.76148E-01 1.46332E-01 4.65192E+00-2.54558E+01-4.51118E+01



 n o d a l   p r i n t   o u t   f o r   t i m e  s t e p   12602                              ( at time 6.2998695E+00 )

 nodal point  x-rot      y-rot       z-rot       x-rot vel   y-rot vel   z-rot vel   x-rot acc   y-rot acc   z-rot acc
    22626 -1.74415E-02-9.42772E-06-7.73809E-05-7.55974E-03-8.16969E-05-1.34331E-04 7.52077E-04-5.78979E-05 8.30297E-05



 n o d a l   p r i n t   o u t   f o r   t i m e  s t e p   12802                              ( at time 6.3998595E+00 )

 nodal point  x-disp     y-disp      z-disp      x-vel       y-vel       z-vel      x-accl      y-accl      z-accl      x-coor      y-coor      z-coor
    22626 -8.04712E-03 2.87035E+00-1.06199E-01-8.06425E-03 1.36479E+00 2.46637E-01-3.93158E-02 2.45349E-01 1.52641E-01 4.65133E+00-2.53205E+01-4.50879E+01



 n o d a l   p r i n t   o u t   f o r   t i m e  s t e p   12802                              ( at time 6.3998595E+00 )

 nodal point  x-rot      y-rot       z-rot       x-rot vel   y-rot vel   z-rot vel   x-rot acc   y-rot acc   z-rot acc
    22626 -1.81941E-02-1.87985E-05-9.17019E-05-7.49483E-03-1.11476E-04-1.52039E-04 6.49225E-04-2.97822E-04-1.77101E-04



 n o d a l   p r i n t   o u t   f o r   t i m e  s t e p   13002                              ( at time 6.4998495E+00 )

 nodal point  x-disp     y-disp      z-disp      x-vel       y-vel       z-vel      x-accl      y-accl      z-accl      x-coor      y-coor      z-coor
    22626 -8.81702E-03 3.00801E+00-8.07186E-02-7.81538E-03 1.38964E+00 2.62576E-01 2.48895E-03 2.48597E-01 1.59402E-01 4.65056E+00-2.51828E+01-4.50624E+01



 n o d a l   p r i n t   o u t   f o r   t i m e  s t e p   13002                              ( at time 6.4998495E+00 )

 nodal point  x-rot      y-rot       z-rot       x-rot vel   y-rot vel   z-rot vel   x-rot acc   y-rot acc   z-rot acc
    22626 -1.89392E-02-2.99785E-05-1.09306E-04-7.40692E-03-1.14374E-04-1.82366E-04 8.79155E-04-2.89844E-05-3.03301E-04



 n o d a l   p r i n t   o u t   f o r   t i m e  s t e p   13202                              ( at time 6.5998395E+00 )

 nodal point  x-disp     y-disp      z-disp      x-vel       y-vel       z-vel      x-accl      y-accl      z-accl      x-coor      y-coor      z-coor
    22626 -9.59027E-03 3.14807E+00-5.37047E-02-6.73061E-03 1.41049E+00 2.78604E-01 1.08487E-02 2.08458E-01 1.60299E-01 4.64978E+00-2.50428E+01-4.50354E+01



 n o d a l   p r i n t   o u t   f o r   t i m e  s t e p   13202                              ( at time 6.5998395E+00 )

 nodal point  x-rot      y-rot       z-rot       x-rot vel   y-rot vel   z-rot vel   x-rot acc   y-rot acc   z-rot acc
    22626 -1.96747E-02-4.05589E-05-1.27896E-04-7.29978E-03-9.85010E-05-1.77162E-04 1.07149E-03 1.58748E-04 5.20475E-05



 n o d a l   p r i n t   o u t   f o r   t i m e  s t e p   13402                              ( at time 6.6998295E+00 )

 nodal point  x-disp     y-disp      z-disp      x-vel       y-vel       z-vel      x-accl      y-accl      z-accl      x-coor      y-coor      z-coor
    22626 -1.02963E-02 3.29040E+00-2.51693E-02-7.56100E-03 1.43543E+00 2.92466E-01-8.30471E-03 2.49399E-01 1.38632E-01 4.64908E+00-2.49004E+01-4.50069E+01



 n o d a l   p r i n t   o u t   f o r   t i m e  s t e p   13402                              ( at time 6.6998295E+00 )

 nodal point  x-rot      y-rot       z-rot       x-rot vel   y-rot vel   z-rot vel   x-rot acc   y-rot acc   z-rot acc
    22626 -2.03995E-02-5.13068E-05-1.43273E-04-7.19189E-03-1.13773E-04-1.77246E-04 1.07906E-03-1.52733E-04-8.36529E-07



 n o d a l   p r i n t   o u t   f o r   t i m e  s t e p   13602                              ( at time 6.7998195E+00 )

 nodal point  x-disp     y-disp      z-disp      x-vel       y-vel       z-vel      x-accl      y-accl      z-accl      x-coor      y-coor      z-coor
    22626 -1.10437E-02 3.43483E+00 4.82741E-03-8.28406E-03 1.45510E+00 3.07472E-01-7.23132E-03 1.96743E-01 1.50078E-01 4.64833E+00-2.47560E+01-4.49769E+01



 n o d a l   p r i n t   o u t   f o r   t i m e  s t e p   13602                              ( at time 6.7998195E+00 )

 nodal point  x-rot      y-rot       z-rot       x-rot vel   y-rot vel   z-rot vel   x-rot acc   y-rot acc   z-rot acc
    22626 -2.11104E-02-6.43515E-05-1.62214E-04-7.05434E-03-1.34951E-04-1.84397E-04 1.37563E-03-2.11801E-04-7.15161E-05



 n o d a l   p r i n t   o u t   f o r   t i m e  s t e p   13802                              ( at time 6.8998095E+00 )

 nodal point  x-disp     y-disp      z-disp      x-vel       y-vel       z-vel      x-accl      y-accl      z-accl      x-coor      y-coor      z-coor
    22626 -1.19238E-02 3.58152E+00 3.64439E-02-8.62981E-03 1.47744E+00 3.24476E-01-3.45791E-03 2.23451E-01 1.70051E-01 4.64745E+00-2.46093E+01-4.49453E+01



 n o d a l   p r i n t   o u t   f o r   t i m e  s t e p   13802                              ( at time 6.8998095E+00 )

 nodal point  x-rot      y-rot       z-rot       x-rot vel   y-rot vel   z-rot vel   x-rot acc   y-rot acc   z-rot acc
    22626 -2.18086E-02-7.65859E-05-1.79219E-04-6.92863E-03-1.02301E-04-1.69847E-04 1.25723E-03 3.26533E-04 1.45514E-04



 n o d a l   p r i n t   o u t   f o r   t i m e  s t e p   14002                              ( at time 6.9997995E+00 )

 nodal point  x-disp     y-disp      z-disp      x-vel       y-vel       z-vel      x-accl      y-accl      z-accl      x-coor      y-coor      z-coor
    22626 -1.26511E-02 3.73028E+00 6.97163E-02-6.82235E-03 1.49851E+00 3.40530E-01 1.80765E-02 2.10721E-01 1.60553E-01 4.64672E+00-2.44605E+01-4.49120E+01



 n o d a l   p r i n t   o u t   f o r   t i m e  s t e p   14002                              ( at time 6.9997995E+00 )

 nodal point  x-rot      y-rot       z-rot       x-rot vel   y-rot vel   z-rot vel   x-rot acc   y-rot acc   z-rot acc
    22626 -2.24939E-02-8.75440E-05-1.96454E-04-6.79022E-03-1.24944E-04-1.55152E-04 1.38419E-03-2.26455E-04 1.46965E-04



 n o d a l   p r i n t   o u t   f o r   t i m e  s t e p   14202                              ( at time 7.0997895E+00 )

 nodal point  x-disp     y-disp      z-disp      x-vel       y-vel       z-vel      x-accl      y-accl      z-accl      x-coor      y-coor      z-coor
    22626 -1.34432E-02 3.88119E+00 1.04574E-01-8.66147E-03 1.51963E+00 3.57750E-01-1.83930E-02 2.11232E-01 1.72219E-01 4.64593E+00-2.43096E+01-4.48771E+01



 n o d a l   p r i n t   o u t   f o r   t i m e  s t e p   14202                              ( at time 7.0997895E+00 )

 nodal point  x-rot      y-rot       z-rot       x-rot vel   y-rot vel   z-rot vel   x-rot acc   y-rot acc   z-rot acc
    22626 -2.31655E-02-1.00121E-04-2.12394E-04-6.66318E-03-1.40555E-04-1.60536E-04 1.27053E-03-1.56125E-04-5.38505E-05



 n o d a l   p r i n t   o u t   f o r   t i m e  s t e p   14402                              ( at time 7.1997794E+00 )

 nodal point  x-disp     y-disp      z-disp      x-vel       y-vel       z-vel      x-accl      y-accl      z-accl      x-coor      y-coor      z-coor
    22626 -1.43843E-02 4.03402E+00 1.41343E-01-8.43318E-03 1.53862E+00 3.78428E-01 2.28311E-03 1.89903E-01 2.06803E-01 4.64499E+00-2.41568E+01-4.48404E+01



 n o d a l   p r i n t   o u t   f o r   t i m e  s t e p   14402                              ( at time 7.1997794E+00 )

 nodal point  x-rot      y-rot       z-rot       x-rot vel   y-rot vel   z-rot vel   x-rot acc   y-rot acc   z-rot acc
    22626 -2.38262E-02-1.14696E-04-2.29138E-04-6.53434E-03-1.19531E-04-1.55901E-04 1.28851E-03 2.10257E-04 4.63550E-05



 n o d a l   p r i n t   o u t   f o r   t i m e  s t e p   14602                              ( at time 7.2997694E+00 )

 nodal point  x-disp     y-disp      z-disp      x-vel       y-vel       z-vel      x-accl      y-accl      z-accl      x-coor      y-coor      z-coor
    22626 -1.53028E-02 4.18879E+00 1.80048E-01-9.79118E-03 1.55697E+00 3.97396E-01-1.35814E-02 1.83542E-01 1.89695E-01 4.64407E+00-2.40020E+01-4.48017E+01



 n o d a l   p r i n t   o u t   f o r   t i m e  s t e p   14602                              ( at time 7.2997694E+00 )

 nodal point  x-rot      y-rot       z-rot       x-rot vel   y-rot vel   z-rot vel   x-rot acc   y-rot acc   z-rot acc
    22626 -2.44751E-02-1.23601E-04-2.45137E-04-6.43538E-03-9.53910E-05-1.38066E-04 9.89719E-04 2.41429E-04 1.78372E-04



 n o d a l   p r i n t   o u t   f o r   t i m e  s t e p   14802                              ( at time 7.3997594E+00 )

 nodal point  x-disp     y-disp      z-disp      x-vel       y-vel       z-vel      x-accl      y-accl      z-accl      x-coor      y-coor      z-coor
    22626 -1.61622E-02 4.34539E+00 2.21013E-01-9.38484E-03 1.57436E+00 4.21427E-01 4.06386E-03 1.73930E-01 2.40341E-01 4.64321E+00-2.38454E+01-4.47607E+01



 n o d a l   p r i n t   o u t   f o r   t i m e  s t e p   14802                              ( at time 7.3997594E+00 )

 nodal point  x-rot      y-rot       z-rot       x-rot vel   y-rot vel   z-rot vel   x-rot acc   y-rot acc   z-rot acc
    22626 -2.51141E-02-1.36235E-04-2.61152E-04-6.35917E-03-1.36301E-04-1.54375E-04 7.62206E-04-4.09143E-04-1.63102E-04



 n o d a l   p r i n t   o u t   f o r   t i m e  s t e p   15002                              ( at time 7.4997494E+00 )

 nodal point  x-disp     y-disp      z-disp      x-vel       y-vel       z-vel      x-accl      y-accl      z-accl      x-coor      y-coor      z-coor
    22626 -1.72607E-02 4.50363E+00 2.64299E-01-1.05513E-02 1.59064E+00 4.43459E-01-1.16659E-02 1.62822E-01 2.20340E-01 4.64211E+00-2.36872E+01-4.47174E+01



 n o d a l   p r i n t   o u t   f o r   t i m e  s t e p   15002                              ( at time 7.4997494E+00 )

 nodal point  x-rot      y-rot       z-rot       x-rot vel   y-rot vel   z-rot vel   x-rot acc   y-rot acc   z-rot acc
    22626 -2.57432E-02-1.48861E-04-2.75722E-04-6.26320E-03-1.07478E-04-1.38518E-04 9.59746E-04 2.88258E-04 1.58582E-04



 n o d a l   p r i n t   o u t   f o r   t i m e  s t e p   15202                              ( at time 7.5997394E+00 )

 nodal point  x-disp     y-disp      z-disp      x-vel       y-vel       z-vel      x-accl      y-accl      z-accl      x-coor      y-coor      z-coor
    22626 -1.81759E-02 4.66356E+00 3.09954E-01-9.10520E-03 1.60784E+00 4.69453E-01 1.44626E-02 1.71974E-01 2.59962E-01 4.64120E+00-2.35273E+01-4.46718E+01



 n o d a l   p r i n t   o u t   f o r   t i m e  s t e p   15202                              ( at time 7.5997394E+00 )

 nodal point  x-rot      y-rot       z-rot       x-rot vel   y-rot vel   z-rot vel   x-rot acc   y-rot acc   z-rot acc
    22626 -2.63643E-02-1.59271E-04-2.90602E-04-6.18505E-03-8.93151E-05-1.48448E-04 7.81575E-04 1.81649E-04-9.93117E-05



 n o d a l   p r i n t   o u t   f o r   t i m e  s t e p   15402                              ( at time 7.6997294E+00 )

 nodal point  x-disp     y-disp      z-disp      x-vel       y-vel       z-vel      x-accl      y-accl      z-accl      x-coor      y-coor      z-coor
    22626 -1.91110E-02 4.82507E+00 3.58252E-01-9.68559E-03 1.62200E+00 4.96755E-01-5.80450E-03 1.41604E-01 2.73052E-01 4.64026E+00-2.33658E+01-4.46235E+01



 n o d a l   p r i n t   o u t   f o r   t i m e  s t e p   15402                              ( at time 7.6997294E+00 )

 nodal point  x-rot      y-rot       z-rot       x-rot vel   y-rot vel   z-rot vel   x-rot acc   y-rot acc   z-rot acc
    22626 -2.69795E-02-1.68922E-04-3.05272E-04-6.13062E-03-1.08141E-04-1.31401E-04 5.44371E-04-1.88281E-04 1.70492E-04



 n o d a l   p r i n t   o u t   f o r   t i m e  s t e p   15602                              ( at time 7.7997194E+00 )

 nodal point  x-disp     y-disp      z-disp      x-vel       y-vel       z-vel      x-accl      y-accl      z-accl      x-coor      y-coor      z-coor
    22626 -2.00293E-02 4.98803E+00 4.09385E-01-8.74938E-03 1.63860E+00 5.25610E-01 9.36310E-03 1.66044E-01 2.88576E-01 4.63935E+00-2.32028E+01-4.45723E+01



 n o d a l   p r i n t   o u t   f o r   t i m e  s t e p   15602                              ( at time 7.7997194E+00 )

 nodal point  x-rot      y-rot       z-rot       x-rot vel   y-rot vel   z-rot vel   x-rot acc   y-rot acc   z-rot acc
    22626 -2.75890E-02-1.80648E-04-3.17997E-04-6.07855E-03-1.16951E-04-1.38010E-04 5.20811E-04-8.81027E-05-6.60983E-05



 n o d a l   p r i n t   o u t   f o r   t i m e  s t e p   15802                              ( at time 7.8997094E+00 )

 nodal point  x-disp     y-disp      z-disp      x-vel       y-vel       z-vel      x-accl      y-accl      z-accl      x-coor      y-coor      z-coor
    22626 -2.09417E-02 5.15255E+00 4.63375E-01-8.39900E-03 1.65192E+00 5.55410E-01 3.50413E-03 1.33241E-01 2.98031E-01 4.63843E+00-2.30383E+01-4.45183E+01



 n o d a l   p r i n t   o u t   f o r   t i m e  s t e p   15802                              ( at time 7.8997094E+00 )

 nodal point  x-rot      y-rot       z-rot       x-rot vel   y-rot vel   z-rot vel   x-rot acc   y-rot acc   z-rot acc
    22626 -2.81955E-02-1.91106E-04-3.30901E-04-6.04902E-03-9.59539E-05-1.24089E-04 2.95301E-04 2.09989E-04 1.39223E-04



 n o d a l   p r i n t   o u t   f o r   t i m e  s t e p   16002                              ( at time 7.9996994E+00 )

 nodal point  x-disp     y-disp      z-disp      x-vel       y-vel       z-vel      x-accl      y-accl      z-accl      x-coor      y-coor      z-coor
    22626 -2.17797E-02 5.31848E+00 5.20396E-01-8.24518E-03 1.66744E+00 5.85262E-01 1.53837E-03 1.55136E-01 2.98552E-01 4.63760E+00-2.28723E+01-4.44613E+01



 n o d a l   p r i n t   o u t   f o r   t i m e  s t e p   16002                              ( at time 7.9996994E+00 )

 nodal point  x-rot      y-rot       z-rot       x-rot vel   y-rot vel   z-rot vel   x-rot acc   y-rot acc   z-rot acc
    22626 -2.87986E-02-1.98652E-04-3.43638E-04-6.02211E-03-9.47926E-05-1.36648E-04 2.69085E-04 1.16146E-05-1.25605E-04



 n o d a l   p r i n t   o u t   f o r   t i m e  s t e p   16202                              ( at time 8.0996894E+00 )

 nodal point  x-disp     y-disp      z-disp      x-vel       y-vel       z-vel      x-accl      y-accl      z-accl      x-coor      y-coor      z-coor
    22626 -2.26049E-02 5.48582E+00 5.80518E-01-8.02126E-03 1.68064E+00 6.18017E-01 2.23937E-03 1.32067E-01 3.27583E-01 4.63677E+00-2.27050E+01-4.44012E+01



 n o d a l   p r i n t   o u t   f o r   t i m e  s t e p   16202                              ( at time 8.0996894E+00 )

 nodal point  x-rot      y-rot       z-rot       x-rot vel   y-rot vel   z-rot vel   x-rot acc   y-rot acc   z-rot acc
    22626 -2.93998E-02-2.09159E-04-3.56161E-04-6.01221E-03-9.77003E-05-1.17690E-04 9.90515E-05-2.90801E-05 1.89596E-04



 n o d a l   p r i n t   o u t   f o r   t i m e  s t e p   16402                              ( at time 8.1996794E+00 )

 nodal point  x-disp     y-disp      z-disp      x-vel       y-vel       z-vel      x-accl      y-accl      z-accl      x-coor      y-coor      z-coor
    22626 -2.34320E-02 5.65455E+00 6.43973E-01-8.18365E-03 1.69462E+00 6.50713E-01-1.62399E-03 1.39741E-01 3.26993E-01 4.63594E+00-2.25363E+01-4.43377E+01



 n o d a l   p r i n t   o u t   f o r   t i m e  s t e p   16402                              ( at time 8.1996794E+00 )

 nodal point  x-rot      y-rot       z-rot       x-rot vel   y-rot vel   z-rot vel   x-rot acc   y-rot acc   z-rot acc
    22626 -3.00002E-02-2.16695E-04-3.65951E-04-6.02772E-03-7.20695E-05-1.13419E-04-1.55146E-04 2.56334E-04 4.27197E-05



 n o d a l   p r i n t   o u t   f o r   t i m e  s t e p   16602                              ( at time 8.2996694E+00 )

 nodal point  x-disp     y-disp      z-disp      x-vel       y-vel       z-vel      x-accl      y-accl      z-accl      x-coor      y-coor      z-coor
    22626 -2.41507E-02 5.82455E+00 7.10758E-01-7.64151E-03 1.70568E+00 6.84768E-01 5.42195E-03 1.10643E-01 3.40578E-01 4.63522E+00-2.23663E+01-4.42710E+01



 n o d a l   p r i n t   o u t   f o r   t i m e  s t e p   16602                              ( at time 8.2996694E+00 )

 nodal point  x-rot      y-rot       z-rot       x-rot vel   y-rot vel   z-rot vel   x-rot acc   y-rot acc   z-rot acc
    22626 -3.06011E-02-2.24177E-04-3.77738E-04-6.01002E-03-7.93646E-05-1.18697E-04 1.77006E-04-7.29587E-05-5.27862E-05



 n o d a l   p r i n t   o u t   f o r   t i m e  s t e p   16802                              ( at time 8.3996594E+00 )

 nodal point  x-disp     y-disp      z-disp      x-vel       y-vel       z-vel      x-accl      y-accl      z-accl      x-coor      y-coor      z-coor
    22626 -2.49001E-02 5.99579E+00 7.80930E-01-6.34624E-03 1.71884E+00 7.18239E-01 1.29540E-02 1.31639E-01 3.34747E-01 4.63447E+00-2.21950E+01-4.42008E+01



 n o d a l   p r i n t   o u t   f o r   t i m e  s t e p   16802                              ( at time 8.3996594E+00 )

 nodal point  x-rot      y-rot       z-rot       x-rot vel   y-rot vel   z-rot vel   x-rot acc   y-rot acc   z-rot acc
    22626 -3.12004E-02-2.30668E-04-3.86871E-04-6.01466E-03-6.37070E-05-8.77768E-05-4.63520E-05 1.56591E-04 3.09232E-04



 n o d a l   p r i n t   o u t   f o r   t i m e  s t e p   17002                              ( at time 8.4996494E+00 )

 nodal point  x-disp     y-disp      z-disp      x-vel       y-vel       z-vel      x-accl      y-accl      z-accl      x-coor      y-coor      z-coor
    22626 -2.55884E-02 6.16822E+00 8.54512E-01-6.36825E-03 1.73002E+00 7.54364E-01-2.20131E-04 1.11753E-01 3.61288E-01 4.63379E+00-2.20226E+01-4.41272E+01



 n o d a l   p r i n t   o u t   f o r   t i m e  s t e p   17002                              ( at time 8.4996494E+00 )

 nodal point  x-rot      y-rot       z-rot       x-rot vel   y-rot vel   z-rot vel   x-rot acc   y-rot acc   z-rot acc
    22626 -3.18020E-02-2.37138E-04-3.96956E-04-6.03063E-03-6.07305E-05-1.10508E-04-1.59710E-04 2.97682E-05-2.27338E-04



 n o d a l   p r i n t   o u t   f o r   t i m e  s t e p   17202                              ( at time 8.5996394E+00 )

 nodal point  x-disp     y-disp      z-disp      x-vel       y-vel       z-vel      x-accl      y-accl      z-accl      x-coor      y-coor      z-coor
    22626 -2.62486E-02 6.34171E+00 9.31725E-01-6.65991E-03 1.74035E+00 7.89925E-01-2.91696E-03 1.03352E-01 3.55641E-01 4.63313E+00-2.18491E+01-4.40500E+01



 n o d a l   p r i n t   o u t   f o r   t i m e  s t e p   17202                              ( at time 8.5996394E+00 )

 nodal point  x-rot      y-rot       z-rot       x-rot vel   y-rot vel   z-rot vel   x-rot acc   y-rot acc   z-rot acc
    22626 -3.24042E-02-2.43544E-04-4.07614E-04-6.02914E-03-6.81132E-05-9.55611E-05 1.49166E-05-7.38342E-05 1.49487E-04



 n o d a l   p r i n t   o u t   f o r   t i m e  s t e p   17402                              ( at time 8.6996293E+00 )

 nodal point  x-disp     y-disp      z-disp      x-vel       y-vel       z-vel      x-accl      y-accl      z-accl      x-coor      y-coor      z-coor
    22626 -2.69963E-02 6.51625E+00 1.01250E+00-7.83851E-03 1.75068E+00 8.26914E-01-1.17870E-02 1.03317E-01 3.69930E-01 4.63238E+00-2.16746E+01-4.39692E+01



 n o d a l   p r i n t   o u t   f o r   t i m e  s t e p   17402                              ( at time 8.6996293E+00 )

 nodal point  x-rot      y-rot       z-rot       x-rot vel   y-rot vel   z-rot vel   x-rot acc   y-rot acc   z-rot acc
    22626 -3.30071E-02-2.50336E-04-4.19412E-04-6.04100E-03-6.56922E-05-1.46610E-04-1.18643E-04 2.42124E-05-5.10537E-04



 n o d a l   p r i n t   o u t   f o r   t i m e  s t e p   17602                              ( at time 8.7996193E+00 )

 nodal point  x-disp     y-disp      z-disp      x-vel       y-vel       z-vel      x-accl      y-accl      z-accl      x-coor      y-coor      z-coor
    22626 -2.77936E-02 6.69177E+00 1.09705E+00-8.09543E-03 1.75966E+00 8.63431E-01-2.56946E-03 8.98345E-02 3.65206E-01 4.63158E+00-2.14991E+01-4.38847E+01



 n o d a l   p r i n t   o u t   f o r   t i m e  s t e p   17602                              ( at time 8.7996193E+00 )

 nodal point  x-rot      y-rot       z-rot       x-rot vel   y-rot vel   z-rot vel   x-rot acc   y-rot acc   z-rot acc
    22626 -3.36106E-02-2.56495E-04-4.34115E-04-6.05305E-03-6.26364E-05-1.40568E-04-1.20483E-04 3.05604E-05 6.04303E-05



 n o d a l   p r i n t   o u t   f o r   t i m e  s t e p   17802                              ( at time 8.8996093E+00 )

 nodal point  x-disp     y-disp      z-disp      x-vel       y-vel       z-vel      x-accl      y-accl      z-accl      x-coor      y-coor      z-coor
    22626 -2.86473E-02 6.86810E+00 1.18528E+00-8.96642E-03 1.76686E+00 9.00929E-01-8.71077E-03 7.20204E-02 3.75015E-01 4.63073E+00-2.13227E+01-4.37964E+01



 n o d a l   p r i n t   o u t   f o r   t i m e  s t e p   17802                              ( at time 8.8996093E+00 )

 nodal point  x-rot      y-rot       z-rot       x-rot vel   y-rot vel   z-rot vel   x-rot acc   y-rot acc   z-rot acc
    22626 -3.42144E-02-2.64698E-04-4.49518E-04-6.08039E-03-9.59006E-05-1.64857E-04-2.73497E-04-3.32676E-04-2.42921E-04



 n o d a l   p r i n t   o u t   f o r   t i m e  s t e p   18002                              ( at time 8.9995993E+00 )

 nodal point  x-disp     y-disp      z-disp      x-vel       y-vel       z-vel      x-accl      y-accl      z-accl      x-coor      y-coor      z-coor
    22626 -2.96391E-02 7.04518E+00 1.27737E+00-1.10808E-02 1.77454E+00 9.39653E-01-2.11463E-02 7.67583E-02 3.87281E-01 4.62974E+00-2.11457E+01-4.37044E+01



 n o d a l   p r i n t   o u t   f o r   t i m e  s t e p   18002                              ( at time 8.9995993E+00 )

 nodal point  x-rot      y-rot       z-rot       x-rot vel   y-rot vel   z-rot vel   x-rot acc   y-rot acc   z-rot acc
    22626 -3.48205E-02-2.73228E-04-4.68891E-04-6.08129E-03-6.07079E-05-1.98796E-04-9.01611E-06 3.51963E-04-3.39418E-04



 n o d a l   p r i n t   o u t   f o r   t i m e  s t e p   18202                              ( at time 9.0995893E+00 )

 nodal point  x-disp     y-disp      z-disp      x-vel       y-vel       z-vel      x-accl      y-accl      z-accl      x-coor      y-coor      z-coor
    22626 -3.06575E-02 7.22276E+00 1.37341E+00-1.04591E-02 1.77786E+00 9.80549E-01 6.21773E-03 3.31793E-02 4.08998E-01 4.62872E+00-2.09681E+01-4.36083E+01



 n o d a l   p r i n t   o u t   f o r   t i m e  s t e p   18202                              ( at time 9.0995893E+00 )

 nodal point  x-rot      y-rot       z-rot       x-rot vel   y-rot vel   z-rot vel   x-rot acc   y-rot acc   z-rot acc
    22626 -3.54268E-02-2.79731E-04-4.89657E-04-6.08831E-03-8.25405E-05-2.05771E-04-7.02009E-05-2.18348E-04-6.97634E-05



 n o d a l   p r i n t   o u t   f o r   t i m e  s t e p   18402                              ( at time 9.1995793E+00 )

 nodal point  x-disp     y-disp      z-disp      x-vel       y-vel       z-vel      x-accl      y-accl      z-accl      x-coor      y-coor      z-coor
    22626 -3.18126E-02 7.40084E+00 1.47337E+00-1.25353E-02 1.78340E+00 1.01719E+00-2.07636E-02 5.54033E-02 3.66427E-01 4.62756E+00-2.07900E+01-4.35084E+01



 n o d a l   p r i n t   o u t   f o r   t i m e  s t e p   18402                              ( at time 9.1995793E+00 )

 nodal point  x-rot      y-rot       z-rot       x-rot vel   y-rot vel   z-rot vel   x-rot acc   y-rot acc   z-rot acc
    22626 -3.60353E-02-2.89286E-04-5.12778E-04-6.09285E-03-9.53383E-05-2.61612E-04-4.54112E-05-1.27991E-04-5.58464E-04



 n o d a l   p r i n t   o u t   f o r   t i m e  s t e p   18602                              ( at time 9.2995693E+00 )

 nodal point  x-disp     y-disp      z-disp      x-vel       y-vel       z-vel      x-accl      y-accl      z-accl      x-coor      y-coor      z-coor
    22626 -3.30716E-02 7.57936E+00 1.57707E+00-1.31384E-02 1.78718E+00 1.05688E+00-6.03185E-03 3.77944E-02 3.96927E-01 4.62630E+00-2.06115E+01-4.34047E+01



 n o d a l   p r i n t   o u t   f o r   t i m e  s t e p   18602                              ( at time 9.2995693E+00 )

 nodal point  x-rot      y-rot       z-rot       x-rot vel   y-rot vel   z-rot vel   x-rot acc   y-rot acc   z-rot acc
    22626 -3.66445E-02-2.99103E-04-5.40049E-04-6.11469E-03-9.67721E-05-2.63133E-04-2.18394E-04-1.43402E-05-1.52132E-05



 n o d a l   p r i n t   o u t   f o r   t i m e  s t e p   18802                              ( at time 9.3995593E+00 )

 nodal point  x-disp     y-disp      z-disp      x-vel       y-vel       z-vel      x-accl      y-accl      z-accl      x-coor      y-coor      z-coor
    22626 -3.43239E-02 7.75829E+00 1.68470E+00-1.19753E-02 1.79049E+00 1.09434E+00 1.16325E-02 3.31471E-02 3.74679E-01 4.62505E+00-2.04325E+01-4.32970E+01



 n o d a l   p r i n t   o u t   f o r   t i m e  s t e p   18802                              ( at time 9.3995593E+00 )

 nodal point  x-rot      y-rot       z-rot       x-rot vel   y-rot vel   z-rot vel   x-rot acc   y-rot acc   z-rot acc
    22626 -3.72542E-02-3.07743E-04-5.68302E-04-6.10875E-03-7.54131E-05-2.91474E-04 5.94663E-05 2.13612E-04-2.83434E-04



 n o d a l   p r i n t   o u t   f o r   t i m e  s t e p   19002                              ( at time 9.4995493E+00 )

 nodal point  x-disp     y-disp      z-disp      x-vel       y-vel       z-vel      x-accl      y-accl      z-accl      x-coor      y-coor      z-coor
    22626 -3.55671E-02 7.93759E+00 1.79603E+00-1.27607E-02 1.79535E+00 1.13241E+00-7.85499E-03 4.85898E-02 3.80782E-01 4.62381E+00-2.02532E+01-4.31857E+01



 n o d a l   p r i n t   o u t   f o r   t i m e  s t e p   19002                              ( at time 9.4995493E+00 )

 nodal point  x-rot      y-rot       z-rot       x-rot vel   y-rot vel   z-rot vel   x-rot acc   y-rot acc   z-rot acc
    22626 -3.78653E-02-3.16678E-04-5.98085E-04-6.13407E-03-1.00846E-04-3.05858E-04-2.53276E-04-2.54357E-04-1.43855E-04



 n o d a l   p r i n t   o u t   f o r   t i m e  s t e p   19202                              ( at time 9.5995393E+00 )

 nodal point  x-disp     y-disp      z-disp      x-vel       y-vel       z-vel      x-accl      y-accl      z-accl      x-coor      y-coor      z-coor
    22626 -3.69313E-02 8.11722E+00 1.91118E+00-1.43666E-02 1.79686E+00 1.17002E+00-1.60604E-02 1.51410E-02 3.76056E-01 4.62244E+00-2.00736E+01-4.30705E+01



 n o d a l   p r i n t   o u t   f o r   t i m e  s t e p   19202                              ( at time 9.5995393E+00 )

 nodal point  x-rot      y-rot       z-rot       x-rot vel   y-rot vel   z-rot vel   x-rot acc   y-rot acc   z-rot acc
    22626 -3.84772E-02-3.27994E-04-6.31315E-04-6.13639E-03-1.13620E-04-3.53229E-04-2.32340E-05-1.27746E-04-4.73757E-04



 n o d a l   p r i n t   o u t   f o r   t i m e  s t e p   19402                              ( at time 9.6995293E+00 )

 nodal point  x-disp     y-disp      z-disp      x-vel       y-vel       z-vel      x-accl      y-accl      z-accl      x-coor      y-coor      z-coor
    22626 -3.83794E-02 8.29695E+00 2.02999E+00-1.44454E-02 1.79939E+00 1.20586E+00-7.88640E-04 2.52618E-02 3.58420E-01 4.62100E+00-1.98939E+01-4.29517E+01



 n o d a l   p r i n t   o u t   f o r   t i m e  s t e p   19402                              ( at time 9.6995293E+00 )

 nodal point  x-rot      y-rot       z-rot       x-rot vel   y-rot vel   z-rot vel   x-rot acc   y-rot acc   z-rot acc
    22626 -3.90898E-02-3.38664E-04-6.69386E-04-6.15952E-03-9.56516E-05-3.73782E-04-2.31313E-04 1.79698E-04-2.05550E-04



 n o d a l   p r i n t   o u t   f o r   t i m e  s t e p   19602                              ( at time 9.7995193E+00 )

 nodal point  x-disp     y-disp      z-disp      x-vel       y-vel       z-vel      x-accl      y-accl      z-accl      x-coor      y-coor      z-coor
    22626 -3.97976E-02 8.47686E+00 2.15244E+00-1.25966E-02 1.79878E+00 1.24329E+00 1.84897E-02-6.07671E-03 3.74416E-01 4.61958E+00-1.97140E+01-4.28293E+01



 n o d a l   p r i n t   o u t   f o r   t i m e  s t e p   19602                              ( at time 9.7995193E+00 )

 nodal point  x-rot      y-rot       z-rot       x-rot vel   y-rot vel   z-rot vel   x-rot acc   y-rot acc   z-rot acc
    22626 -3.97054E-02-3.48765E-04-7.05006E-04-6.19042E-03-9.62600E-05-3.50888E-04-3.09011E-04-6.08433E-06 2.28966E-04



 n o d a l   p r i n t   o u t   f o r   t i m e  s t e p   19802                              ( at time 9.8995093E+00 )

 nodal point  x-disp     y-disp      z-disp      x-vel       y-vel       z-vel      x-accl      y-accl      z-accl      x-coor      y-coor      z-coor
    22626 -4.10871E-02 8.65669E+00 2.27862E+00-1.41271E-02 1.79996E+00 1.28050E+00-1.53057E-02 1.17743E-02 3.72111E-01 4.61829E+00-1.95341E+01-4.27031E+01



 n o d a l   p r i n t   o u t   f o r   t i m e  s t e p   19802                              ( at time 9.8995093E+00 )

 nodal point  x-rot      y-rot       z-rot       x-rot vel   y-rot vel   z-rot vel   x-rot acc   y-rot acc   z-rot acc
    22626 -4.03224E-02-3.58354E-04-7.41556E-04-6.20580E-03-9.27507E-05-3.80362E-04-1.53814E-04 3.50969E-05-2.94777E-04



 n o d a l   p r i n t   o u t   f o r   t i m e  s t e p   20003                              ( at time 9.9999992E+00 )

 nodal point  x-disp     y-disp      z-disp      x-vel       y-vel       z-vel      x-accl      y-accl      z-accl      x-coor      y-coor      z-coor
[...]
    22626 -2.32600E-01 4.65944E-03-2.16220E-03-2.40370E-02 2.67155E-05-4.22390E-04-2.65302E-04-2.62065E-04-1.04647E-04



 n o d a l   p r i n t   o u t   f o r   t i m e  s t e p   45205                              ( at time 2.2599738E+01 )

 nodal point  x-disp     y-disp      z-disp      x-vel       y-vel       z-vel      x-accl      y-accl      z-accl      x-coor      y-coor      z-coor
    22626 -1.44357E-01 3.18482E+01 2.22955E+01 6.11847E-03 1.67549E+00 1.05075E+00 8.30589E-03-7.88499E-02 4.45776E-02 4.51502E+00 3.65737E+00-2.26862E+01



 n o d a l   p r i n t   o u t   f o r   t i m e  s t e p   45205                              ( at time 2.2599738E+01 )

 nodal point  x-rot      y-rot       z-rot       x-rot vel   y-rot vel   z-rot vel   x-rot acc   y-rot acc   z-rot acc
    22626 -2.35006E-01 4.66117E-03-2.20504E-03-2.40827E-02-2.41730E-06-4.45806E-04-4.57303E-04-2.91354E-04-2.34183E-04



 n o d a l   p r i n t   o u t   f o r   t i m e  s t e p   45405                              ( at time 2.2699728E+01 )

 nodal point  x-disp     y-disp      z-disp      x-vel       y-vel       z-vel      x-accl      y-accl      z-accl      x-coor      y-coor      z-coor
    22626 -1.43719E-01 3.20154E+01 2.24008E+01 6.10104E-03 1.66814E+00 1.05604E+00-1.74302E-04-7.35448E-02 5.29217E-02 4.51566E+00 3.82455E+00-2.25809E+01



 n o d a l   p r i n t   o u t   f o r   t i m e  s t e p   45405                              ( at time 2.2699728E+01 )

 nodal point  x-rot      y-rot       z-rot       x-rot vel   y-rot vel   z-rot vel   x-rot acc   y-rot acc   z-rot acc
    22626 -2.37415E-01 4.65824E-03-2.25111E-03-2.41130E-02-5.30655E-05-4.74389E-04-3.03105E-04-5.06538E-04-2.85864E-04



 n o d a l   p r i n t   o u t   f o r   t i m e  s t e p   45605                              ( at time 2.2799718E+01 )

 nodal point  x-disp     y-disp      z-disp      x-vel       y-vel       z-vel      x-accl      y-accl      z-accl      x-coor      y-coor      z-coor
    22626 -1.43096E-01 3.21818E+01 2.25068E+01 6.90566E-03 1.66015E+00 1.06268E+00 8.04689E-03-7.99300E-02 6.63139E-02 4.51628E+00 3.99094E+00-2.24750E+01



 n o d a l   p r i n t   o u t   f o r   t i m e  s t e p   45605                              ( at time 2.2799718E+01 )

 nodal point  x-rot      y-rot       z-rot       x-rot vel   y-rot vel   z-rot vel   x-rot acc   y-rot acc   z-rot acc
    22626 -2.39828E-01 4.65197E-03-2.29912E-03-2.41461E-02-7.95505E-05-4.92311E-04-3.30873E-04-2.64875E-04-1.79238E-04



 n o d a l   p r i n t   o u t   f o r   t i m e  s t e p   45805                              ( at time 2.2899708E+01 )

 nodal point  x-disp     y-disp      z-disp      x-vel       y-vel       z-vel      x-accl      y-accl      z-accl      x-coor      y-coor      z-coor
    22626 -1.42344E-01 3.23474E+01 2.26133E+01 7.80192E-03 1.65332E+00 1.06866E+00 8.96363E-03-6.82716E-02 5.98449E-02 4.51703E+00 4.15657E+00-2.23684E+01



 n o d a l   p r i n t   o u t   f o r   t i m e  s t e p   45805                              ( at time 2.2899708E+01 )

 nodal point  x-rot      y-rot       z-rot       x-rot vel   y-rot vel   z-rot vel   x-rot acc   y-rot acc   z-rot acc
    22626 -2.42244E-01 4.64304E-03-2.34933E-03-2.41698E-02-1.05555E-04-5.11157E-04-2.36843E-04-2.60070E-04-1.88476E-04



 n o d a l   p r i n t   o u t   f o r   t i m e  s t e p   46005                              ( at time 2.2999698E+01 )

 nodal point  x-disp     y-disp      z-disp      x-vel       y-vel       z-vel      x-accl      y-accl      z-accl      x-coor      y-coor      z-coor
    22626 -1.41549E-01 3.25123E+01 2.27205E+01 8.08348E-03 1.64628E+00 1.07567E+00 2.81587E-03-7.04389E-02 7.01444E-02 4.51783E+00 4.32151E+00-2.22612E+01



 n o d a l   p r i n t   o u t   f o r   t i m e  s t e p   46005                              ( at time 2.2999698E+01 )

 nodal point  x-rot      y-rot       z-rot       x-rot vel   y-rot vel   z-rot vel   x-rot acc   y-rot acc   z-rot acc
    22626 -2.44662E-01 4.63054E-03-2.40119E-03-2.41846E-02-1.50491E-04-5.24314E-04-1.48746E-04-4.49406E-04-1.31579E-04



 n o d a l   p r i n t   o u t   f o r   t i m e  s t e p   46205                              ( at time 2.3099688E+01 )

 nodal point  x-disp     y-disp      z-disp      x-vel       y-vel       z-vel      x-accl      y-accl      z-accl      x-coor      y-coor      z-coor
    22626 -1.40779E-01 3.26766E+01 2.28284E+01 7.21693E-03 1.63889E+00 1.08264E+00-8.66644E-03-7.38726E-02 6.96677E-02 4.51860E+00 4.48575E+00-2.21533E+01



 n o d a l   p r i n t   o u t   f o r   t i m e  s t e p   46205                              ( at time 2.3099688E+01 )

 nodal point  x-rot      y-rot       z-rot       x-rot vel   y-rot vel   z-rot vel   x-rot acc   y-rot acc   z-rot acc
    22626 -2.47081E-01 4.61317E-03-2.45530E-03-2.42085E-02-1.86308E-04-5.54248E-04-2.38724E-04-3.58213E-04-2.99382E-04



 n o d a l   p r i n t   o u t   f o r   t i m e  s t e p   46405                              ( at time 2.3199678E+01 )

 nodal point  x-disp     y-disp      z-disp      x-vel       y-vel       z-vel      x-accl      y-accl      z-accl      x-coor      y-coor      z-coor
    22626 -1.40010E-01 3.28401E+01 2.29370E+01 8.41596E-03 1.63215E+00 1.08999E+00 1.19914E-02-6.73749E-02 7.35159E-02 4.51937E+00 4.64930E+00-2.20447E+01



 n o d a l   p r i n t   o u t   f o r   t i m e  s t e p   46405                              ( at time 2.3199678E+01 )

 nodal point  x-rot      y-rot       z-rot       x-rot vel   y-rot vel   z-rot vel   x-rot acc   y-rot acc   z-rot acc
    22626 -2.49502E-01 4.59332E-03-2.51152E-03-2.42114E-02-2.06266E-04-5.69496E-04-2.93021E-05-1.99598E-04-1.52487E-04



 n o d a l   p r i n t   o u t   f o r   t i m e  s t e p   46605                              ( at time 2.3299668E+01 )

 nodal point  x-disp     y-disp      z-disp      x-vel       y-vel       z-vel      x-accl      y-accl      z-accl      x-coor      y-coor      z-coor
    22626 -1.39184E-01 3.30030E+01 2.30464E+01 8.05043E-03 1.62577E+00 1.09816E+00-3.65577E-03-6.38758E-02 8.17199E-02 4.52019E+00 4.81217E+00-2.19353E+01



 n o d a l   p r i n t   o u t   f o r   t i m e  s t e p   46605                              ( at time 2.3299668E+01 )

 nodal point  x-rot      y-rot       z-rot       x-rot vel   y-rot vel   z-rot vel   x-rot acc   y-rot acc   z-rot acc
    22626 -2.51924E-01 4.57059E-03-2.56977E-03-2.42271E-02-2.47990E-04-5.96625E-04-1.56982E-04-4.17282E-04-2.71320E-04



 n o d a l   p r i n t   o u t   f o r   t i m e  s t e p   46805                              ( at time 2.3399658E+01 )

 nodal point  x-disp     y-disp      z-disp      x-vel       y-vel       z-vel      x-accl      y-accl      z-accl      x-coor      y-coor      z-coor
    22626 -1.38448E-01 3.31653E+01 2.31566E+01 6.85697E-03 1.61977E+00 1.10630E+00-1.19357E-02-5.99368E-02 8.13964E-02 4.52093E+00 4.97443E+00-2.18251E+01



 n o d a l   p r i n t   o u t   f o r   t i m e  s t e p   46805                              ( at time 2.3399658E+01 )

 nodal point  x-rot      y-rot       z-rot       x-rot vel   y-rot vel   z-rot vel   x-rot acc   y-rot acc   z-rot acc
    22626 -2.54347E-01 4.54247E-03-2.63010E-03-2.42351E-02-3.04029E-04-6.07998E-04-8.00638E-05-5.60438E-04-1.13744E-04



 n o d a l   p r i n t   o u t   f o r   t i m e  s t e p   47005                              ( at time 2.3499648E+01 )

 nodal point  x-disp     y-disp      z-disp      x-vel       y-vel       z-vel      x-accl      y-accl      z-accl      x-coor      y-coor      z-coor
    22626 -1.37748E-01 3.33269E+01 2.32677E+01 7.08636E-03 1.61341E+00 1.11443E+00 2.29419E-03-6.36707E-02 8.13046E-02 4.52163E+00 5.13604E+00-2.17141E+01



 n o d a l   p r i n t   o u t   f o r   t i m e  s t e p   47005                              ( at time 2.3499648E+01 )

 nodal point  x-rot      y-rot       z-rot       x-rot vel   y-rot vel   z-rot vel   x-rot acc   y-rot acc   z-rot acc
    22626 -2.56770E-01 4.51130E-03-2.69195E-03-2.42359E-02-3.26300E-04-6.29587E-04-7.43263E-06-2.22734E-04-2.15911E-04



 n o d a l   p r i n t   o u t   f o r   t i m e  s t e p   47205                              ( at time 2.3599638E+01 )

 nodal point  x-disp     y-disp      z-disp      x-vel       y-vel       z-vel      x-accl      y-accl      z-accl      x-coor      y-coor      z-coor
    22626 -1.37051E-01 3.34879E+01 2.33795E+01 7.15075E-03 1.60713E+00 1.12297E+00 6.43946E-04-6.27873E-02 8.53907E-02 4.52232E+00 5.29706E+00-2.16022E+01



 n o d a l   p r i n t   o u t   f o r   t i m e  s t e p   47205                              ( at time 2.3599638E+01 )

 nodal point  x-rot      y-rot       z-rot       x-rot vel   y-rot vel   z-rot vel   x-rot acc   y-rot acc   z-rot acc
    22626 -2.59194E-01 4.47703E-03-2.75621E-03-2.42390E-02-3.64151E-04-6.54118E-04-3.07557E-05-3.78549E-04-2.45332E-04



 n o d a l   p r i n t   o u t   f o r   t i m e  s t e p   47405                              ( at time 2.3699628E+01 )

 nodal point  x-disp     y-disp      z-disp      x-vel       y-vel       z-vel      x-accl      y-accl      z-accl      x-coor      y-coor      z-coor
    22626 -1.36468E-01 3.36483E+01 2.34923E+01 5.17453E-03 1.60164E+00 1.13170E+00-1.97640E-02-5.49414E-02 8.73526E-02 4.52291E+00 5.45752E+00-2.14895E+01



 n o d a l   p r i n t   o u t   f o r   t i m e  s t e p   47405                              ( at time 2.3699628E+01 )

 nodal point  x-rot      y-rot       z-rot       x-rot vel   y-rot vel   z-rot vel   x-rot acc   y-rot acc   z-rot acc
    22626 -2.61617E-01 4.43800E-03-2.82158E-03-2.42291E-02-4.18605E-04-6.62730E-04 9.85802E-05-5.44589E-04-8.61261E-05



 n o d a l   p r i n t   o u t   f o r   t i m e  s t e p   47605                              ( at time 2.3799618E+01 )

 nodal point  x-disp     y-disp      z-disp      x-vel       y-vel       z-vel      x-accl      y-accl      z-accl      x-coor      y-coor      z-coor
    22626 -1.35899E-01 3.38082E+01 2.36058E+01 5.09489E-03 1.59622E+00 1.14045E+00-7.96578E-04-5.41866E-02 8.74771E-02 4.52348E+00 5.61739E+00-2.13759E+01



 n o d a l   p r i n t   o u t   f o r   t i m e  s t e p   47605                              ( at time 2.3799618E+01 )

 nodal point  x-rot      y-rot       z-rot       x-rot vel   y-rot vel   z-rot vel   x-rot acc   y-rot acc   z-rot acc
    22626 -2.64040E-01 4.39454E-03-2.88877E-03-2.42324E-02-4.53933E-04-6.76090E-04-3.25254E-05-3.53323E-04-1.33621E-04



 n o d a l   p r i n t   o u t   f o r   t i m e  s t e p   47805                              ( at time 2.3899608E+01 )

 nodal point  x-disp     y-disp      z-disp      x-vel       y-vel       z-vel      x-accl      y-accl      z-accl      x-coor      y-coor      z-coor
    22626 -1.35360E-01 3.39675E+01 2.37203E+01 5.33824E-03 1.59048E+00 1.14958E+00 2.43372E-03-5.73640E-02 9.12726E-02 4.52401E+00 5.77667E+00-2.12614E+01



 n o d a l   p r i n t   o u t   f o r   t i m e  s t e p   47805                              ( at time 2.3899608E+01 )

 nodal point  x-rot      y-rot       z-rot       x-rot vel   y-rot vel   z-rot vel   x-rot acc   y-rot acc   z-rot acc
    22626 -2.66463E-01 4.34819E-03-2.95775E-03-2.42275E-02-4.83813E-04-7.04495E-04 4.83587E-05-2.98827E-04-2.84070E-04



 n o d a l   p r i n t   o u t   f o r   t i m e  s t e p   48005                              ( at time 2.3999598E+01 )

 nodal point  x-disp     y-disp      z-disp      x-vel       y-vel       z-vel      x-accl      y-accl      z-accl      x-coor      y-coor      z-coor
    22626 -1.34927E-01 3.41262E+01 2.38357E+01 4.07510E-03 1.58409E+00 1.15808E+00-1.26327E-02-6.38961E-02 8.50593E-02 4.52445E+00 5.93537E+00-2.11460E+01



 n o d a l   p r i n t   o u t   f o r   t i m e  s t e p   48005                              ( at time 2.3999598E+01 )

 nodal point  x-rot      y-rot       z-rot       x-rot vel   y-rot vel   z-rot vel   x-rot acc   y-rot acc   z-rot acc
    22626 -2.68885E-01 4.29729E-03-3.02809E-03-2.42166E-02-5.29997E-04-7.11410E-04 1.09144E-04-4.61890E-04-6.91630E-05



 n o d a l   p r i n t   o u t   f o r   t i m e  s t e p   48205                              ( at time 2.4099588E+01 )

 nodal point  x-disp     y-disp      z-disp      x-vel       y-vel       z-vel      x-accl      y-accl      z-accl      x-coor      y-coor      z-coor
    22626 -1.34530E-01 3.42843E+01 2.39519E+01 3.28233E-03 1.57873E+00 1.16664E+00-7.92848E-03-5.36324E-02 8.55798E-02 4.52485E+00 6.09351E+00-2.10298E+01



 n o d a l   p r i n t   o u t   f o r   t i m e  s t e p   48205                              ( at time 2.4099588E+01 )

 nodal point  x-rot      y-rot       z-rot       x-rot vel   y-rot vel   z-rot vel   x-rot acc   y-rot acc   z-rot acc
    22626 -2.71307E-01 4.24263E-03-3.09965E-03-2.42186E-02-5.63919E-04-7.12906E-04-1.96341E-05-3.39247E-04-1.49584E-05



 n o d a l   p r i n t   o u t   f o r   t i m e  s t e p   48405                              ( at time 2.4199578E+01 )

 nodal point  x-disp     y-disp      z-disp      x-vel       y-vel       z-vel      x-accl      y-accl      z-accl      x-coor      y-coor      z-coor
    22626 -1.34178E-01 3.44419E+01 2.40690E+01 3.61221E-03 1.57292E+00 1.17578E+00 3.29916E-03-5.81448E-02 9.14639E-02 4.52520E+00 6.25105E+00-2.09127E+01



 n o d a l   p r i n t   o u t   f o r   t i m e  s t e p   48405                              ( at time 2.4199578E+01 )

 nodal point  x-rot      y-rot       z-rot       x-rot vel   y-rot vel   z-rot vel   x-rot acc   y-rot acc   z-rot acc
    22626 -2.73728E-01 4.18455E-03-3.17255E-03-2.42100E-02-5.92776E-04-7.43438E-04 8.56725E-05-2.88605E-04-3.05351E-04



 n o d a l   p r i n t   o u t   f o r   t i m e  s t e p   48605                              ( at time 2.4299568E+01 )

 nodal point  x-disp     y-disp      z-disp      x-vel       y-vel       z-vel      x-accl      y-accl      z-accl      x-coor      y-coor      z-coor
    22626 -1.33912E-01 3.45989E+01 2.41870E+01 2.37413E-03 1.56725E+00 1.18453E+00-1.23819E-02-5.66296E-02 8.74480E-02 4.52546E+00 6.40803E+00-2.07947E+01



 n o d a l   p r i n t   o u t   f o r   t i m e  s t e p   48605                              ( at time 2.4299568E+01 )

 nodal point  x-rot      y-rot       z-rot       x-rot vel   y-rot vel   z-rot vel   x-rot acc   y-rot acc   z-rot acc
    22626 -2.76147E-01 4.12326E-03-3.24612E-03-2.41829E-02-6.26103E-04-7.35213E-04 2.71505E-04-3.33300E-04 8.22555E-05



 n o d a l   p r i n t   o u t   f o r   t i m e  s t e p   48805                              ( at time 2.4399558E+01 )

 nodal point  x-disp     y-disp      z-disp      x-vel       y-vel       z-vel      x-accl      y-accl      z-accl      x-coor      y-coor      z-coor
    22626 -1.33661E-01 3.47553E+01 2.43059E+01 1.65036E-03 1.56150E+00 1.19312E+00-7.23838E-03-5.75786E-02 8.59447E-02 4.52571E+00 6.56445E+00-2.06758E+01



 n o d a l   p r i n t   o u t   f o r   t i m e  s t e p   48805                              ( at time 2.4399558E+01 )

 nodal point  x-rot      y-rot       z-rot       x-rot vel   y-rot vel   z-rot vel   x-rot acc   y-rot acc   z-rot acc
    22626 -2.78565E-01 4.05889E-03-3.32004E-03-2.41803E-02-6.60510E-04-7.35059E-04 2.55951E-05-3.44104E-04 1.53973E-06



 n o d a l   p r i n t   o u t   f o r   t i m e  s t e p   49006                              ( at time 2.4500048E+01 )

 nodal point  x-disp     y-disp      z-disp      x-vel       y-vel       z-vel      x-accl      y-accl      z-accl      x-coor      y-coor      z-coor
    22626 -1.33485E-01 3.49119E+01 2.44262E+01 2.10346E-03 1.55606E+00 1.20157E+00 4.50897E-03-5.41022E-02 8.40645E-02 4.52589E+00 6.72109E+00-2.05555E+01



 n o d a l   p r i n t   o u t   f o r   t i m e  s t e p   49006                              ( at time 2.4500048E+01 )

 nodal point  x-rot      y-rot       z-rot       x-rot vel   y-rot vel   z-rot vel   x-rot acc   y-rot acc   z-rot acc
    22626 -2.80995E-01 3.99082E-03-3.39489E-03-2.41710E-02-6.90910E-04-7.53063E-04 9.26979E-05-3.02523E-04-1.79162E-04



 n o d a l   p r i n t   o u t   f o r   t i m e  s t e p   49206                              ( at time 2.4600038E+01 )

 nodal point  x-disp     y-disp      z-disp      x-vel       y-vel       z-vel      x-accl      y-accl      z-accl      x-coor      y-coor      z-coor
    22626 -1.33318E-01 3.50672E+01 2.45468E+01 1.64760E-03 1.55053E+00 1.21026E+00-4.55902E-03-5.53039E-02 8.69688E-02 4.52606E+00 6.87636E+00-2.04349E+01



 n o d a l   p r i n t   o u t   f o r   t i m e  s t e p   49206                              ( at time 2.4600038E+01 )

 nodal point  x-rot      y-rot       z-rot       x-rot vel   y-rot vel   z-rot vel   x-rot acc   y-rot acc   z-rot acc
    22626 -2.83410E-01 3.92022E-03-3.46928E-03-2.41462E-02-7.23149E-04-7.42428E-04 2.48127E-04-3.22419E-04 1.06359E-04



 n o d a l   p r i n t   o u t   f o r   t i m e  s t e p   49406                              ( at time 2.4700028E+01 )

 nodal point  x-disp     y-disp      z-disp      x-vel       y-vel       z-vel      x-accl      y-accl      z-accl      x-coor      y-coor      z-coor
    22626 -1.33168E-01 3.52220E+01 2.46682E+01 1.26959E-03 1.54479E+00 1.21913E+00-3.78050E-03-5.73603E-02 8.86801E-02 4.52621E+00 7.03113E+00-2.03135E+01



 n o d a l   p r i n t   o u t   f o r   t i m e  s t e p   49406                              ( at time 2.4700028E+01 )

 nodal point  x-rot      y-rot       z-rot       x-rot vel   y-rot vel   z-rot vel   x-rot acc   y-rot acc   z-rot acc
    22626 -2.85824E-01 3.84729E-03-3.54398E-03-2.41264E-02-7.45605E-04-7.49193E-04 1.97276E-04-2.24587E-04-6.76588E-05



 n o d a l   p r i n t   o u t   f o r   t i m e  s t e p   49606                              ( at time 2.4800018E+01 )

 nodal point  x-disp     y-disp      z-disp      x-vel       y-vel       z-vel      x-accl      y-accl      z-accl      x-coor      y-coor      z-coor
    22626 -1.33040E-01 3.53762E+01 2.47906E+01 1.81811E-03 1.53959E+00 1.22744E+00 5.48568E-03-5.20408E-02 8.31382E-02 4.52633E+00 7.18533E+00-2.01911E+01



 n o d a l   p r i n t   o u t   f o r   t i m e  s t e p   49606                              ( at time 2.4800018E+01 )

 nodal point  x-rot      y-rot       z-rot       x-rot vel   y-rot vel   z-rot vel   x-rot acc   y-rot acc   z-rot acc
    22626 -2.88235E-01 3.77114E-03-3.61926E-03-2.41067E-02-7.75338E-04-7.58780E-04 1.97049E-04-2.97354E-04-9.58785E-05



 n o d a l   p r i n t   o u t   f o r   t i m e  s t e p   49806                              ( at time 2.4900008E+01 )

 nodal point  x-disp     y-disp      z-disp      x-vel       y-vel       z-vel      x-accl      y-accl      z-accl      x-coor      y-coor      z-coor
    22626 -1.32919E-01 3.55299E+01 2.49137E+01 9.55638E-04 1.53399E+00 1.23550E+00-8.62564E-03-5.60238E-02 8.05813E-02 4.52646E+00 7.33902E+00-2.00680E+01



 n o d a l   p r i n t   o u t   f o r   t i m e  s t e p   49806                              ( at time 2.4900008E+01 )

 nodal point  x-rot      y-rot       z-rot       x-rot vel   y-rot vel   z-rot vel   x-rot acc   y-rot acc   z-rot acc
    22626 -2.90645E-01 3.69234E-03-3.69438E-03-2.40851E-02-8.01022E-04-7.48427E-04 2.16333E-04-2.56868E-04 1.03542E-04



 n o d a l   p r i n t   o u t   f o r   t i m e  s t e p   50006                              ( at time 2.4999998E+01 )

 nodal point  x-disp     y-disp      z-disp      x-vel       y-vel       z-vel      x-accl      y-accl      z-accl      x-coor      y-coor      z-coor
    22626 -1.32774E-01 3.56829E+01 2.50377E+01 1.58987E-03 1.52831E+00 1.24432E+00 6.34288E-03-5.67536E-02 8.81848E-02 4.52660E+00 7.49211E+00-1.99440E+01



 n o d a l   p r i n t   o u t   f o r   t i m e  s t e p   50006                              ( at time 2.4999998E+01 )

 nodal point  x-rot      y-rot       z-rot       x-rot vel   y-rot vel   z-rot vel   x-rot acc   y-rot acc   z-rot acc
    22626 -2.93052E-01 3.61251E-03-3.76934E-03-2.40624E-02-8.05116E-04-7.45722E-04 2.27114E-04-4.09412E-05 2.70452E-05
