 LSTC 50th% Full_FE H-III Dummy (Beta Version, February 17, 2019)        
                    ls-dyna smp s R16 R16.0_619_d222963 date 03/18/2025

{BEGIN LEGEND}
 Entity #        Title
        1     Upper_Neck_Force_INJURY                                              
{END LEGEND}



 line#1  section#     time        x-force     y-force     z-force    magnitude
 line#2  resultant  moments       x-moment    y-moment    z-moment   magnitude
 line#3  centroids                x           y           z            area  
           1    0.00000E+00     0.0000E+00  0.0000E+00  0.0000E+00  0.0000E+00
ac ID =   33377                 0.0000E+00  0.0000E+00  0.0000E+00  0.0000E+00
                               -3.7437E-01  1.0501E+01 -4.6940E+01  0.0000E+00

           1    1.00490E-01     1.3628E-04 -4.9878E-03  2.5982E-01  2.5987E-01
ac ID =   33377                 4.2550E-01 -1.2521E+00 -2.7105E-02  1.3227E+00
                               -3.7387E-01  1.0590E+01 -4.6886E+01  2.5147E+03

           1    2.00480E-01    -4.4364E-02  6.3584E-04  4.4133E-01  4.4356E-01
ac ID =   33377                 3.0580E-01 -1.5975E+00  2.0622E-02  1.6266E+00
                               -3.7386E-01  1.0591E+01 -4.6888E+01  2.5147E+03

           1    3.00470E-01     1.4487E-02 -3.4281E-03  2.1771E-01  2.1822E-01
ac ID =   33377                 2.5696E-02 -3.3382E-01  6.6634E-02  3.4138E-01
                               -3.7382E-01  1.0591E+01 -4.6889E+01  2.5147E+03

           1    4.00460E-01     2.5477E-03  1.0853E-02  8.7998E-02  8.8701E-02
ac ID =   33377                -4.9780E-01 -9.5317E-01 -3.1463E-03  1.0753E+00
                               -3.7383E-01  1.0592E+01 -4.6890E+01  2.5147E+03

           1    5.00450E-01    -4.0855E-02  4.1262E-03  1.6232E-01  1.6743E-01
ac ID =   33377                -3.9874E-01 -1.5026E+00 -1.0828E-01  1.5583E+00
                               -3.7385E-01  1.0594E+01 -4.6893E+01  2.5147E+03

           1    6.00440E-01    -1.1137E-02  4.4154E-03  3.4487E-01  3.4507E-01
ac ID =   33377                 8.8422E-02 -1.3281E+00 -3.8006E-02  1.3316E+00
                               -3.7385E-01  1.0595E+01 -4.6897E+01  2.5147E+03

           1    7.00430E-01     3.1329E-03 -5.5330E-03  2.9456E-01  2.9463E-01
ac ID =   33377                 1.3533E-01 -4.9840E-01  8.1659E-02  5.2286E-01
                               -3.7389E-01  1.0597E+01 -4.6901E+01  2.5147E+03

           1    8.00420E-01    -3.2029E-02 -1.4456E-03  1.0074E-01  1.0572E-01
ac ID =   33377                 8.3232E-02 -1.0632E+00  3.7871E-02  1.0671E+00
                               -3.7394E-01  1.0599E+01 -4.6905E+01  2.5147E+03

           1    9.00410E-01    -3.9238E-02  8.1837E-04  6.3443E-02  7.4601E-02
ac ID =   33377                 8.8105E-02 -1.0636E+00 -1.1868E-03  1.0673E+00
                               -3.7399E-01  1.0601E+01 -4.6909E+01  2.5147E+03

           1    1.00040E+00     1.5212E-02 -3.8881E-03  2.2396E-01  2.2451E-01
ac ID =   33377                 3.7420E-01 -2.9097E-01 -5.8375E-02  4.7759E-01
                               -3.7400E-01  1.0604E+01 -4.6915E+01  2.5147E+03

           1    1.10039E+00    -2.2912E-04 -3.4679E-03  2.7098E-01  2.7100E-01
ac ID =   33377                 3.4627E-01 -8.6780E-01 -5.2712E-02  9.3582E-01
                               -3.7401E-01  1.0607E+01 -4.6921E+01  2.5147E+03

           1    1.20038E+00    -3.2490E-02 -5.4047E-04  1.2923E-01  1.3326E-01
ac ID =   33377                -1.5851E-01 -1.1653E+00  9.6925E-03  1.1760E+00
                               -3.7404E-01  1.0609E+01 -4.6927E+01  2.5147E+03

           1    1.30037E+00    -8.9919E-03  4.7691E-03  7.8058E-02  7.8719E-02
ac ID =   33377                -2.8749E-01 -8.4866E-01  3.7387E-03  8.9604E-01
                               -3.7408E-01  1.0612E+01 -4.6933E+01  2.5147E+03

           1    1.40036E+00     6.7531E-03  3.1545E-03  1.7910E-01  1.7925E-01
ac ID =   33377                -2.7796E-01 -8.1287E-01  3.0910E-02  8.5964E-01
                               -3.7410E-01  1.0616E+01 -4.6941E+01  2.5147E+03

           1    1.50035E+00    -2.6038E-02  7.6280E-04  3.3029E-01  3.3132E-01
ac ID =   33377                -1.1352E-02 -1.5413E+00 -3.8901E-02  1.5419E+00
                               -3.7414E-01  1.0619E+01 -4.6948E+01  2.5147E+03

           1    1.60034E+00    -1.8658E-02 -2.1092E-03  2.2273E-01  2.2352E-01
ac ID =   33377                -1.0131E-02 -1.3265E+00 -2.0483E-02  1.3267E+00
                               -3.7422E-01  1.0623E+01 -4.6956E+01  2.5147E+03

           1    1.70033E+00    -1.9687E-03 -7.1917E-04  6.2605E-02  6.2640E-02
ac ID =   33377                -2.1063E-02 -6.2400E-01  8.3462E-02  6.2991E-01
                               -3.7430E-01  1.0626E+01 -4.6964E+01  2.5147E+03

           1    1.80032E+00    -1.9920E-02 -2.9348E-06  8.4152E-02  8.6478E-02
ac ID =   33377                 1.1922E-01 -1.0714E+00  1.1415E-01  1.0840E+00
                               -3.7437E-01  1.0631E+01 -4.6973E+01  2.5147E+03

           1    1.90031E+00     1.4615E-02 -3.0246E-03  1.7807E-01  1.7869E-01
ac ID =   33377                 2.8105E-01 -5.2339E-01 -6.7581E-02  5.9790E-01
                               -3.7444E-01  1.0635E+01 -4.6983E+01  2.5147E+03

           1    2.00030E+00     3.0518E-02 -3.4639E-03  1.1357E-01  1.1765E-01
ac ID =   33377                 1.9782E-01  2.4445E-01 -1.3350E-01  3.4163E-01
                               -3.7451E-01  1.0640E+01 -4.6992E+01  2.5147E+03

           1    2.10029E+00     1.6450E-02  3.0236E-03 -5.9828E-02  6.2121E-02
ac ID =   33377                -6.7422E-02  2.5304E-01  3.1680E-02  2.6378E-01
                               -3.7459E-01  1.0645E+01 -4.7002E+01  2.5147E+03

           1    2.20028E+00     2.9004E-02  4.7499E-03 -5.0113E-02  5.8096E-02
ac ID =   33377                -2.0675E-01  3.2920E-01  5.1257E-02  3.9210E-01
                               -3.7466E-01  1.0652E+01 -4.7012E+01  2.5147E+03

           1    2.30027E+00     6.6892E-02  3.0663E-03  6.4917E-02  9.3263E-02
ac ID =   33377                -1.0617E-01  7.8321E-01 -3.9679E-02  7.9137E-01
                               -3.7474E-01  1.0660E+01 -4.7024E+01  2.5147E+03

           1    2.40026E+00     5.2492E-02  1.5746E-04  8.6016E-02  1.0077E-01
ac ID =   33377                -1.5392E-01  4.4361E-01  4.5453E-02  4.7175E-01
                               -3.7486E-01  1.0669E+01 -4.7036E+01  2.5147E+03

           1    2.50025E+00     5.4489E-02  1.2940E-03 -1.2659E-01  1.3783E-01
ac ID =   33377                -1.4633E-01  7.9459E-01  1.2672E-01  8.1783E-01
                               -3.7500E-01  1.0679E+01 -4.7048E+01  2.5147E+03

           1    2.60024E+00     8.6345E-02  4.8991E-03 -2.2069E-01  2.3703E-01
ac ID =   33377                -1.8759E-01  2.0283E+00  2.9047E-02  2.0371E+00
                               -3.7515E-01  1.0691E+01 -4.7060E+01  2.5147E+03

           1    2.70023E+00     9.0744E-02 -1.7338E-03 -1.6150E-01  1.8525E-01
ac ID =   33377                 5.5768E-02  2.0689E+00 -9.3129E-03  2.0697E+00
                               -3.7530E-01  1.0706E+01 -4.7074E+01  2.5147E+03

           1    2.80022E+00     1.1168E-01 -1.7180E-03 -1.3996E-01  1.7906E-01
ac ID =   33377                 3.8393E-01  2.6642E+00 -4.2512E-02  2.6921E+00
                               -3.7546E-01  1.0722E+01 -4.7088E+01  2.5147E+03

           1    2.90021E+00     1.2853E-01 -4.7095E-03 -2.3527E-01  2.6813E-01
ac ID =   33377                 1.9321E-01  3.2042E+00 -5.4350E-02  3.2105E+00
                               -3.7561E-01  1.0740E+01 -4.7103E+01  2.5147E+03

           1    3.00020E+00     1.2826E-01  3.2842E-03 -3.3666E-01  3.6028E-01
ac ID =   33377                 8.0179E-03  3.5026E+00 -1.2331E-01  3.5048E+00
                               -3.7576E-01  1.0761E+01 -4.7118E+01  2.5147E+03

           1    3.10019E+00     1.1446E-01 -1.7134E-03 -2.5897E-01  2.8314E-01
ac ID =   33377                 1.1439E-01  3.0262E+00 -6.5743E-02  3.0291E+00
                               -3.7590E-01  1.0785E+01 -4.7134E+01  2.5147E+03

           1    3.20018E+00     1.6580E-01  5.7261E-03 -2.2184E-01  2.7702E-01
ac ID =   33377                -1.7374E-02  3.4161E+00 -1.5898E-01  3.4198E+00
                               -3.7603E-01  1.0812E+01 -4.7151E+01  2.5147E+03

           1    3.30017E+00     1.5452E-01 -1.4619E-03 -3.0487E-01  3.4179E-01
ac ID =   33377                -3.0255E-01  3.1613E+00  1.6370E-01  3.1800E+00
                               -3.7614E-01  1.0841E+01 -4.7168E+01  2.5147E+03

           1    3.40016E+00     1.4595E-01  3.0560E-03 -4.6240E-01  4.8490E-01
ac ID =   33377                -1.9544E-01  3.8540E+00  7.3256E-02  3.8596E+00
                               -3.7629E-01  1.0872E+01 -4.7185E+01  2.5147E+03

           1    3.50015E+00     1.4500E-01  2.7523E-03 -4.9070E-01  5.1169E-01
ac ID =   33377                -3.6132E-01  4.3237E+00  1.3056E-01  4.3407E+00
                               -3.7642E-01  1.0907E+01 -4.7203E+01  2.5147E+03

           1    3.60014E+00     1.8075E-01  1.0370E-02 -4.1489E-01  4.5267E-01
ac ID =   33377                -4.1667E-02  4.3851E+00  1.0859E-01  4.3866E+00
                               -3.7651E-01  1.0945E+01 -4.7222E+01  2.5147E+03

           1    3.70013E+00     2.0562E-01 -1.4874E-02 -4.9285E-01  5.3423E-01
ac ID =   33377                 2.0686E-01  6.3089E+00  3.7242E-02  6.3124E+00
                               -3.7661E-01  1.0986E+01 -4.7241E+01  2.5147E+03

           1    3.80012E+00     1.8172E-01  1.9381E-03 -5.9879E-01  6.2576E-01
ac ID =   33377                 2.1674E-01  5.8345E+00  1.4506E-01  5.8404E+00
                               -3.7670E-01  1.1030E+01 -4.7260E+01  2.5147E+03

           1    3.90011E+00     2.0051E-01  7.7339E-03 -6.9050E-01  7.1907E-01
ac ID =   33377                -1.1239E-01  6.0490E+00  3.6016E-01  6.0607E+00
                               -3.7677E-01  1.1077E+01 -4.7280E+01  2.5147E+03

           1    4.00010E+00     2.0719E-01 -8.0334E-03 -6.7142E-01  7.0271E-01
ac ID =   33377                -1.4815E-02  6.2356E+00  4.2551E-01  6.2501E+00
                               -3.7683E-01  1.1128E+01 -4.7300E+01  2.5147E+03

           1    4.10009E+00     2.0823E-01  2.5558E-03 -6.8785E-01  7.1869E-01
ac ID =   33377                -1.2294E-02  6.0212E+00 -9.6594E-02  6.0220E+00
                               -3.7687E-01  1.1182E+01 -4.7321E+01  2.5147E+03

           1    4.20008E+00     2.1958E-01  9.2438E-03 -8.1153E-01  8.4076E-01
ac ID =   33377                -5.2895E-01  6.4603E+00 -2.2931E-01  6.4860E+00
                               -3.7691E-01  1.1240E+01 -4.7341E+01  2.5147E+03

           1    4.30007E+00     2.5539E-01  1.5883E-02 -9.3851E-01  9.7277E-01
ac ID =   33377                -6.1056E-01  7.4436E+00 -1.0605E-01  7.4694E+00
                               -3.7701E-01  1.1301E+01 -4.7361E+01  2.5147E+03

           1    4.40006E+00     2.6609E-01 -1.0975E-02 -9.4098E-01  9.7794E-01
ac ID =   33377                -2.5806E-01  8.4740E+00 -1.0464E-01  8.4785E+00
                               -3.7704E-01  1.1366E+01 -4.7382E+01  2.5147E+03

           1    4.50005E+00     2.2412E-01  7.5606E-03 -9.3539E-01  9.6189E-01
ac ID =   33377                 3.9116E-02  7.8601E+00 -1.7543E-02  7.8602E+00
                               -3.7708E-01  1.1434E+01 -4.7403E+01  2.5147E+03

           1    4.60004E+00     2.5710E-01  1.9239E-02 -1.0449E+00  1.0763E+00
ac ID =   33377                -2.5575E-01  8.8665E+00 -5.5454E-02  8.8703E+00
                               -3.7717E-01  1.1506E+01 -4.7423E+01  2.5147E+03

           1    4.70003E+00     2.8394E-01  1.3362E-02 -1.1596E+00  1.1939E+00
ac ID =   33377                -7.0431E-02  8.9414E+00 -4.8656E-01  8.9550E+00
                               -3.7721E-01  1.1582E+01 -4.7443E+01  2.5147E+03

           1    4.80002E+00     2.9055E-01 -1.3885E-02 -1.2029E+00  1.2376E+00
ac ID =   33377                -1.9269E-02  9.2770E+00 -7.6362E-01  9.3084E+00
                               -3.7722E-01  1.1661E+01 -4.7464E+01  2.5147E+03

           1    4.90001E+00     2.5578E-01 -7.7784E-03 -1.1992E+00  1.2262E+00
ac ID =   33377                -2.7607E-01  9.4386E+00 -1.0972E-01  9.4433E+00
                               -3.7721E-01  1.1745E+01 -4.7484E+01  2.5147E+03

           1    5.00000E+00     3.2050E-01  1.6875E-02 -1.2804E+00  1.3200E+00
ac ID =   33377                -4.5638E-01  1.0225E+01  2.5469E-01  1.0239E+01
                               -3.7729E-01  1.1832E+01 -4.7503E+01  2.5147E+03

           1    5.10049E+00     3.3060E-01  2.7029E-03 -1.4140E+00  1.4521E+00
ac ID =   33377                -6.4888E-01  1.1448E+01  2.1173E-01  1.1468E+01
                               -3.7733E-01  1.1923E+01 -4.7522E+01  2.5147E+03

           1    5.20048E+00     3.0870E-01  4.6693E-03 -1.4699E+00  1.5020E+00
ac ID =   33377                -3.9402E-01  1.1453E+01  5.2106E-01  1.1472E+01
                               -3.7736E-01  1.2017E+01 -4.7541E+01  2.5147E+03

           1    5.30047E+00     3.2609E-01  4.5562E-03 -1.4799E+00  1.5154E+00
ac ID =   33377                -7.5396E-01  1.1734E+01 -2.2791E-01  1.1760E+01
                               -3.7741E-01  1.2115E+01 -4.7559E+01  2.5147E+03

           1    5.40046E+00     3.6800E-01  1.5527E-02 -1.5557E+00  1.5988E+00
ac ID =   33377                -7.2708E-02  1.3114E+01 -9.4656E-01  1.3148E+01
                               -3.7752E-01  1.2217E+01 -4.7577E+01  2.5147E+03

           1    5.50045E+00     3.2952E-01  1.3954E-04 -1.7095E+00  1.7410E+00
ac ID =   33377                -6.0691E-01  1.3671E+01 -3.9150E-01  1.3690E+01
                               -3.7757E-01  1.2322E+01 -4.7593E+01  2.5147E+03

           1    5.60044E+00     3.4305E-01 -2.1142E-02 -1.8259E+00  1.8580E+00
ac ID =   33377                 1.4967E-03  1.4255E+01  6.1643E-02  1.4255E+01
                               -3.7762E-01  1.2430E+01 -4.7609E+01  2.5147E+03

           1    5.70043E+00     3.9427E-01  6.8751E-03 -1.8772E+00  1.9182E+00
ac ID =   33377                -3.0231E-01  1.5185E+01  5.7256E-01  1.5199E+01
                               -3.7773E-01  1.2542E+01 -4.7624E+01  2.5147E+03

           1    5.80042E+00     3.9401E-01  1.9798E-02 -1.9057E+00  1.9461E+00
ac ID =   33377                -5.2599E-01  1.6193E+01  1.8982E-01  1.6202E+01
                               -3.7787E-01  1.2658E+01 -4.7638E+01  2.5147E+03

           1    5.90041E+00     3.9709E-01  2.0383E-02 -1.9873E+00  2.0267E+00
ac ID =   33377                -5.0478E-01  1.6924E+01  5.7552E-02  1.6932E+01
                               -3.7795E-01  1.2777E+01 -4.7650E+01  2.5147E+03

           1    6.00040E+00     4.0997E-01  6.2930E-03 -2.1070E+00  2.1465E+00
ac ID =   33377                -7.4006E-01  1.7816E+01 -4.3457E-01  1.7836E+01
                               -3.7809E-01  1.2898E+01 -4.7661E+01  2.5147E+03

           1    6.10039E+00     3.9596E-01  1.3332E-02 -2.0961E+00  2.1332E+00
ac ID =   33377                -1.0314E+00  1.7688E+01 -5.8349E-01  1.7728E+01
                               -3.7824E-01  1.3023E+01 -4.7671E+01  2.5147E+03

           1    6.20038E+00     4.4259E-01  1.6369E-02 -2.1545E+00  2.1996E+00
ac ID =   33377                -1.0831E+00  1.9468E+01 -6.7945E-01  1.9510E+01
                               -3.7825E-01  1.3151E+01 -4.7680E+01  2.5147E+03

           1    6.30037E+00     4.2360E-01 -4.3742E-03 -2.2987E+00  2.3374E+00
ac ID =   33377                -5.2532E-01  1.9723E+01 -2.6741E-01  1.9731E+01
                               -3.7832E-01  1.3282E+01 -4.7687E+01  2.5147E+03

           1    6.40036E+00     4.3763E-01  1.8593E-02 -2.4039E+00  2.4435E+00
ac ID =   33377                -1.0683E+00  2.0941E+01  1.7557E-01  2.0969E+01
                               -3.7839E-01  1.3415E+01 -4.7692E+01  2.5147E+03

           1    6.50035E+00     4.3590E-01  8.3028E-03 -2.4497E+00  2.4882E+00
ac ID =   33377                -1.0692E+00  2.2182E+01  1.2057E-01  2.2208E+01
                               -3.7839E-01  1.3551E+01 -4.7695E+01  2.5147E+03

           1    6.60034E+00     4.7279E-01 -2.4789E-02 -2.4743E+00  2.5191E+00
ac ID =   33377                -1.9131E-02  2.3516E+01  8.2571E-01  2.3531E+01
                               -3.7844E-01  1.3689E+01 -4.7697E+01  2.5147E+03

           1    6.70033E+00     4.8782E-01  2.6892E-03 -2.5573E+00  2.6034E+00
ac ID =   33377                -4.9626E-01  2.4432E+01  2.2732E-01  2.4438E+01
                               -3.7847E-01  1.3829E+01 -4.7696E+01  2.5147E+03

           1    6.80032E+00     4.6319E-01  2.8868E-02 -2.6876E+00  2.7274E+00
ac ID =   33377                -1.3550E+00  2.5329E+01  2.4045E-01  2.5367E+01
                               -3.7851E-01  1.3972E+01 -4.7693E+01  2.5147E+03

           1    6.90031E+00     5.2483E-01 -2.1866E-02 -2.7342E+00  2.7842E+00
ac ID =   33377                 1.7232E-01  2.6890E+01 -1.4475E-01  2.6891E+01
                               -3.7865E-01  1.4116E+01 -4.7689E+01  2.5147E+03

           1    7.00030E+00     5.0903E-01  4.2561E-03 -2.7548E+00  2.8014E+00
ac ID =   33377                -9.9425E-01  2.7091E+01 -1.2189E-01  2.7110E+01
                               -3.7868E-01  1.4263E+01 -4.7682E+01  2.5147E+03

           1    7.10029E+00     5.2896E-01  1.1014E-02 -2.8675E+00  2.9159E+00
ac ID =   33377                -1.0050E+00  2.8472E+01 -1.8276E-01  2.8490E+01
                               -3.7884E-01  1.4412E+01 -4.7673E+01  2.5147E+03

           1    7.20028E+00     5.1644E-01  3.1544E-02 -2.9771E+00  3.0217E+00
ac ID =   33377                -1.0457E+00  2.9446E+01  2.1892E-01  2.9466E+01
                               -3.7916E-01  1.4563E+01 -4.7662E+01  2.5147E+03

           1    7.30027E+00     5.5720E-01 -2.0283E-02 -3.0834E+00  3.1334E+00
ac ID =   33377                -5.8724E-01  3.1036E+01  1.3939E-01  3.1042E+01
                               -3.7928E-01  1.4716E+01 -4.7648E+01  2.5147E+03

           1    7.40026E+00     5.5154E-01  2.0341E-02 -3.1294E+00  3.1777E+00
ac ID =   33377                -1.0458E+00  3.2577E+01 -6.8989E-02  3.2594E+01
                               -3.7964E-01  1.4871E+01 -4.7632E+01  2.5147E+03

           1    7.50025E+00     5.6689E-01 -9.0295E-03 -3.1288E+00  3.1797E+00
ac ID =   33377                -3.3386E-01  3.3268E+01 -4.2309E-01  3.3272E+01
                               -3.8005E-01  1.5027E+01 -4.7613E+01  2.5147E+03

           1    7.60024E+00     5.8618E-01  3.2515E-03 -3.2237E+00  3.2765E+00
ac ID =   33377                -3.5884E-01  3.4598E+01 -4.3486E-01  3.4603E+01
                               -3.8038E-01  1.5185E+01 -4.7591E+01  2.5147E+03

           1    7.70023E+00     5.8121E-01 -2.4214E-02 -3.2985E+00  3.3494E+00
ac ID =   33377                -4.2151E-01  3.5273E+01  2.3011E-01  3.5276E+01
                               -3.8067E-01  1.5345E+01 -4.7567E+01  2.5147E+03

           1    7.80022E+00     5.7038E-01  8.0129E-03 -3.2887E+00  3.3378E+00
ac ID =   33377                -5.5646E-01  3.5651E+01 -4.7532E-01  3.5658E+01
                               -3.8114E-01  1.5506E+01 -4.7539E+01  2.5147E+03

           1    7.90021E+00     6.0531E-01  4.8906E-03 -3.3436E+00  3.3980E+00
ac ID =   33377                -9.9760E-01  3.6787E+01 -2.7788E-01  3.6802E+01
                               -3.8148E-01  1.5669E+01 -4.7509E+01  2.5147E+03

           1    8.00020E+00     6.0774E-01 -5.8424E-03 -3.4013E+00  3.4551E+00
ac ID =   33377                -5.4108E-01  3.7913E+01 -5.8856E-01  3.7921E+01
                               -3.8181E-01  1.5833E+01 -4.7475E+01  2.5147E+03

           1    8.10019E+00     6.0767E-01  1.3851E-02 -3.5076E+00  3.5599E+00
ac ID =   33377                -1.6501E+00  3.8874E+01 -2.1691E-01  3.8909E+01
                               -3.8214E-01  1.5998E+01 -4.7438E+01  2.5147E+03

           1    8.20018E+00     6.2561E-01 -6.3348E-03 -3.5332E+00  3.5882E+00
ac ID =   33377                -4.8947E-01  4.0503E+01  8.8824E-02  4.0506E+01
                               -3.8252E-01  1.6165E+01 -4.7398E+01  2.5147E+03

           1    8.30017E+00     6.2991E-01  1.9292E-02 -3.5221E+00  3.5780E+00
ac ID =   33377                -1.1835E+00  4.0938E+01  2.0128E-01  4.0955E+01
                               -3.8283E-01  1.6333E+01 -4.7354E+01  2.5147E+03

           1    8.40016E+00     6.3265E-01 -1.6757E-02 -3.5655E+00  3.6213E+00
ac ID =   33377                -1.9374E-01  4.1790E+01  1.4902E-01  4.1790E+01
                               -3.8311E-01  1.6503E+01 -4.7307E+01  2.5147E+03

           1    8.50015E+00     6.4829E-01 -1.8619E-03 -3.6278E+00  3.6852E+00
ac ID =   33377                -3.2808E-01  4.2779E+01 -8.6015E-02  4.2780E+01
                               -3.8343E-01  1.6673E+01 -4.7257E+01  2.5147E+03

           1    8.60014E+00     6.3268E-01  1.1824E-02 -3.6548E+00  3.7092E+00
ac ID =   33377                -1.1614E+00  4.3024E+01 -4.5940E-01  4.3042E+01
                               -3.8367E-01  1.6845E+01 -4.7203E+01  2.5147E+03

           1    8.70013E+00     6.2656E-01 -1.9196E-03 -3.6763E+00  3.7293E+00
ac ID =   33377                -2.4387E-01  4.3412E+01 -4.4171E-01  4.3415E+01
                               -3.8395E-01  1.7018E+01 -4.7145E+01  2.5147E+03

           1    8.80012E+00     6.3802E-01 -1.1259E-02 -3.6867E+00  3.7415E+00
ac ID =   33377                -1.2114E+00  4.4503E+01  4.1951E-02  4.4520E+01
                               -3.8409E-01  1.7191E+01 -4.7084E+01  2.5147E+03

           1    8.90011E+00     6.4222E-01  2.5906E-02 -3.7442E+00  3.7989E+00
ac ID =   33377                -1.3206E+00  4.5185E+01 -3.0677E-01  4.5205E+01
                               -3.8444E-01  1.7366E+01 -4.7019E+01  2.5147E+03

           1    9.00010E+00     6.5802E-01  1.4867E-02 -3.7674E+00  3.8244E+00
ac ID =   33377                -1.7118E+00  4.6228E+01 -3.5982E-01  4.6261E+01
                               -3.8460E-01  1.7541E+01 -4.6950E+01  2.5147E+03

           1    9.10009E+00     6.2980E-01 -5.4810E-03 -3.7499E+00  3.8024E+00
ac ID =   33377                -8.3766E-01  4.6635E+01 -6.3437E-01  4.6647E+01
                               -3.8479E-01  1.7717E+01 -4.6878E+01  2.5147E+03

           1    9.20008E+00     6.4888E-01  4.4927E-03 -3.7438E+00  3.7997E+00
ac ID =   33377                -1.2490E+00  4.7435E+01 -2.0682E-01  4.7452E+01
                               -3.8500E-01  1.7893E+01 -4.6802E+01  2.5147E+03

           1    9.30007E+00     6.4260E-01  2.2456E-02 -3.7680E+00  3.8225E+00
ac ID =   33377                -1.1428E+00  4.7744E+01  1.8845E-01  4.7758E+01
                               -3.8522E-01  1.8069E+01 -4.6722E+01  2.5147E+03

           1    9.40006E+00     6.2776E-01 -4.4122E-03 -3.7824E+00  3.8341E+00
ac ID =   33377                -5.8157E-01  4.8116E+01  3.1872E-01  4.8121E+01
                               -3.8530E-01  1.8246E+01 -4.6637E+01  2.5147E+03

           1    9.50005E+00     6.4086E-01 -1.1640E-02 -3.7489E+00  3.8033E+00
ac ID =   33377                -7.1610E-01  4.8761E+01 -4.4104E-02  4.8766E+01
                               -3.8535E-01  1.8424E+01 -4.6550E+01  2.5147E+03

           1    9.60004E+00     6.5152E-01  2.9101E-02 -3.7029E+00  3.7599E+00
ac ID =   33377                -1.6213E+00  4.9901E+01 -4.1336E-01  4.9929E+01
                               -3.8547E-01  1.8602E+01 -4.6459E+01  2.5147E+03

           1    9.70003E+00     6.2987E-01  1.4669E-02 -3.6694E+00  3.7231E+00
ac ID =   33377                -1.4233E+00  5.0239E+01 -1.0482E-01  5.0259E+01
                               -3.8541E-01  1.8779E+01 -4.6364E+01  2.5147E+03

           1    9.80002E+00     6.4305E-01 -6.8527E-03 -3.6881E+00  3.7438E+00
ac ID =   33377                -1.0988E+00  5.1062E+01 -6.8176E-01  5.1079E+01
                               -3.8534E-01  1.8957E+01 -4.6265E+01  2.5147E+03

           1    9.90001E+00     6.4336E-01  3.1507E-02 -3.6335E+00  3.6901E+00
ac ID =   33377                -2.3143E+00  5.1142E+01 -6.6471E-01  5.1199E+01
                               -3.8528E-01  1.9135E+01 -4.6163E+01  2.5147E+03

           1    1.00005E+01     6.2650E-01  1.1777E-02 -3.6190E+00  3.6728E+00
ac ID =   33377                -1.7317E+00  5.1932E+01 -1.5149E-01  5.1961E+01
                               -3.8522E-01  1.9314E+01 -4.6057E+01  2.5147E+03

           1    1.01005E+01     6.4561E-01 -8.4761E-03 -3.6134E+00  3.6706E+00
ac ID =   33377                -6.5262E-01  5.2549E+01  3.0768E-01  5.2554E+01
                               -3.8517E-01  1.9492E+01 -4.5947E+01  2.5147E+03

           1    1.02005E+01     6.3821E-01  2.5595E-03 -3.5942E+00  3.6504E+00
ac ID =   33377                -1.1258E+00  5.2990E+01  4.6139E-01  5.3004E+01
                               -3.8502E-01  1.9669E+01 -4.5835E+01  2.5147E+03

           1    1.03005E+01     6.3739E-01  1.7722E-02 -3.5565E+00  3.6132E+00
ac ID =   33377                -1.3855E+00  5.4023E+01 -2.7174E-02  5.4040E+01
                               -3.8492E-01  1.9847E+01 -4.5719E+01  2.5147E+03

           1    1.04005E+01     6.3213E-01 -1.2126E-02 -3.4691E+00  3.5262E+00
ac ID =   33377                -6.3422E-01  5.4232E+01 -1.4360E-01  5.4236E+01
                               -3.8477E-01  2.0024E+01 -4.5599E+01  2.5147E+03

           1    1.05004E+01     6.6864E-01  9.8286E-04 -3.4296E+00  3.4942E+00
ac ID =   33377                -9.1117E-01  5.5573E+01  3.8613E-01  5.5582E+01
                               -3.8452E-01  2.0201E+01 -4.5477E+01  2.5147E+03

           1    1.06004E+01     6.2850E-01  1.3668E-02 -3.3759E+00  3.4340E+00
ac ID =   33377                -1.8653E+00  5.5251E+01 -7.9559E-02  5.5283E+01
                               -3.8430E-01  2.0378E+01 -4.5350E+01  2.5147E+03

           1    1.07004E+01     6.6199E-01  1.5804E-02 -3.3436E+00  3.4085E+00
ac ID =   33377                -1.5767E+00  5.6213E+01 -2.3134E-01  5.6235E+01
                               -3.8414E-01  2.0555E+01 -4.5221E+01  2.5147E+03

           1    1.08004E+01     6.5012E-01 -2.0650E-03 -3.2426E+00  3.3071E+00
ac ID =   33377                -1.3174E+00  5.6059E+01 -5.0792E-01  5.6076E+01
                               -3.8387E-01  2.0731E+01 -4.5089E+01  2.5147E+03

           1    1.09004E+01     6.2999E-01  2.2310E-02 -3.1901E+00  3.2518E+00
ac ID =   33377                -1.8016E+00  5.6359E+01  4.4690E-02  5.6388E+01
                               -3.8362E-01  2.0907E+01 -4.4953E+01  2.5147E+03

           1    1.10004E+01     6.4063E-01 -1.5561E-02 -3.1371E+00  3.2019E+00
ac ID =   33377                -7.2254E-01  5.6932E+01  3.1701E-01  5.6938E+01
                               -3.8343E-01  2.1083E+01 -4.4814E+01  2.5147E+03

           1    1.11004E+01     6.7017E-01  9.7107E-03 -3.0702E+00  3.1425E+00
ac ID =   33377                -9.1809E-01  5.7735E+01  5.9702E-02  5.7743E+01
                               -3.8328E-01  2.1258E+01 -4.4673E+01  2.5147E+03

           1    1.12004E+01     6.4440E-01  7.7396E-03 -2.9616E+00  3.0309E+00
ac ID =   33377                -1.1080E+00  5.7897E+01 -3.0544E-01  5.7909E+01
                               -3.8294E-01  2.1433E+01 -4.4528E+01  2.5147E+03

           1    1.13004E+01     6.4149E-01 -1.4935E-02 -2.8827E+00  2.9532E+00
ac ID =   33377                -4.1340E-01  5.7673E+01 -9.9537E-01  5.7683E+01
                               -3.8265E-01  2.1608E+01 -4.4381E+01  2.5147E+03

           1    1.14004E+01     6.4987E-01  1.7636E-02 -2.8099E+00  2.8841E+00
ac ID =   33377                -1.4037E+00  5.7933E+01  1.5075E-01  5.7951E+01
                               -3.8237E-01  2.1782E+01 -4.4231E+01  2.5147E+03

           1    1.15003E+01     6.3206E-01  1.3838E-02 -2.7266E+00  2.7989E+00
ac ID =   33377                -1.3667E+00  5.7503E+01  1.7200E-01  5.7520E+01
                               -3.8202E-01  2.1956E+01 -4.4079E+01  2.5147E+03

           1    1.16003E+01     6.2135E-01  2.3243E-02 -2.6578E+00  2.7296E+00
ac ID =   33377                -1.9094E+00  5.7512E+01  1.1768E-01  5.7543E+01
                               -3.8157E-01  2.2130E+01 -4.3924E+01  2.5147E+03

           1    1.17003E+01     6.3491E-01 -7.2602E-03 -2.6052E+00  2.6814E+00
ac ID =   33377                -9.9085E-01  5.8065E+01 -5.6362E-01  5.8076E+01
                               -3.8128E-01  2.2303E+01 -4.3767E+01  2.5147E+03

           1    1.18003E+01     6.2061E-01  1.1385E-02 -2.5091E+00  2.5847E+00
ac ID =   33377                -1.3963E+00  5.8252E+01 -4.3355E-01  5.8271E+01
                               -3.8097E-01  2.2476E+01 -4.3609E+01  2.5147E+03

           1    1.19003E+01     6.1306E-01  8.0089E-03 -2.4333E+00  2.5093E+00
ac ID =   33377                -1.2253E+00  5.7811E+01 -1.3984E-01  5.7824E+01
                               -3.8058E-01  2.2649E+01 -4.3447E+01  2.5147E+03

           1    1.20003E+01     6.2301E-01 -1.1598E-02 -2.3415E+00  2.4229E+00
ac ID =   33377                 1.5099E-02  5.7987E+01 -3.8962E-01  5.7988E+01
                               -3.8038E-01  2.2822E+01 -4.3285E+01  2.5147E+03

           1    1.21003E+01     6.2971E-01  6.2303E-03 -2.2634E+00  2.3493E+00
ac ID =   33377                -9.4288E-01  5.7474E+01 -3.9080E-01  5.7484E+01
                               -3.8002E-01  2.2995E+01 -4.3120E+01  2.5147E+03

           1    1.22003E+01     5.7260E-01  7.2329E-03 -2.1365E+00  2.2119E+00
ac ID =   33377                -1.0397E+00  5.6747E+01 -5.1362E-01  5.6758E+01
                               -3.7965E-01  2.3167E+01 -4.2954E+01  2.5147E+03

           1    1.23003E+01     6.1668E-01 -1.9351E-03 -2.0597E+00  2.1501E+00
ac ID =   33377                -7.9603E-01  5.6808E+01 -5.2502E-01  5.6816E+01
                               -3.7926E-01  2.3339E+01 -4.2787E+01  2.5147E+03

           1    1.24003E+01     5.8620E-01  1.6707E-02 -1.9658E+00  2.0514E+00
ac ID =   33377                -1.2001E+00  5.6219E+01 -5.3956E-01  5.6234E+01
                               -3.7893E-01  2.3512E+01 -4.2619E+01  2.5147E+03

           1    1.25002E+01     6.0505E-01  3.0310E-02 -1.8510E+00  1.9476E+00
ac ID =   33377                -2.3244E+00  5.5406E+01  2.3739E-01  5.5456E+01
                               -3.7847E-01  2.3684E+01 -4.2450E+01  2.5147E+03

           1    1.26002E+01     5.9838E-01 -2.9557E-03 -1.7601E+00  1.8590E+00
ac ID =   33377                -9.2267E-01  5.5302E+01 -4.4363E-01  5.5311E+01
                               -3.7812E-01  2.3856E+01 -4.2279E+01  2.5147E+03

           1    1.27002E+01     5.8252E-01 -1.8061E-02 -1.7021E+00  1.7991E+00
ac ID =   33377                -6.4994E-01  5.4720E+01 -4.3482E-01  5.4726E+01
                               -3.7770E-01  2.4029E+01 -4.2109E+01  2.5147E+03

           1    1.28002E+01     5.7074E-01  4.0020E-02 -1.6014E+00  1.7006E+00
ac ID =   33377                -1.5951E+00  5.3580E+01 -1.8985E-01  5.3604E+01
                               -3.7739E-01  2.4201E+01 -4.1937E+01  2.5147E+03

           1    1.29002E+01     5.5602E-01 -1.4575E-02 -1.5106E+00  1.6098E+00
ac ID =   33377                -3.8109E-01  5.3137E+01 -5.0446E-01  5.3141E+01
                               -3.7700E-01  2.4374E+01 -4.1766E+01  2.5147E+03

           1    1.30002E+01     5.7144E-01 -1.9515E-02 -1.3867E+00  1.5000E+00
ac ID =   33377                 1.3073E-01  5.2408E+01  3.8217E-02  5.2409E+01
                               -3.7659E-01  2.4547E+01 -4.1594E+01  2.5147E+03

           1    1.31002E+01     5.1351E-01  1.0300E-02 -1.3177E+00  1.4143E+00
ac ID =   33377                -1.5074E+00  5.1774E+01 -2.7201E-01  5.1797E+01
                               -3.7625E-01  2.4720E+01 -4.1423E+01  2.5147E+03

           1    1.32002E+01     5.6208E-01  3.2746E-02 -1.2334E+00  1.3559E+00
ac ID =   33377                -1.6473E+00  5.2711E+01 -2.7477E-01  5.2737E+01
                               -3.7596E-01  2.4894E+01 -4.1251E+01  2.5147E+03

           1    1.33002E+01     5.1195E-01 -2.6719E-02 -1.0900E+00  1.2045E+00
ac ID =   33377                -4.8502E-01  5.1802E+01 -5.8763E-01  5.1808E+01
                               -3.7554E-01  2.5068E+01 -4.1080E+01  2.5147E+03

           1    1.34002E+01     5.1004E-01  1.3085E-02 -1.0471E+00  1.1648E+00
ac ID =   33377                -1.8053E+00  5.1398E+01 -2.9442E-01  5.1430E+01
                               -3.7531E-01  2.5242E+01 -4.0908E+01  2.5147E+03

           1    1.35001E+01     5.3498E-01  2.3665E-02 -9.7835E-01  1.1153E+00
ac ID =   33377                -1.5682E+00  5.1932E+01  1.1414E-01  5.1956E+01
                               -3.7523E-01  2.5416E+01 -4.0737E+01  2.5147E+03

           1    1.36001E+01     4.8958E-01 -1.7308E-02 -8.5919E-01  9.8904E-01
ac ID =   33377                -4.3172E-01  4.9967E+01 -6.1944E-02  4.9969E+01
                               -3.7513E-01  2.5590E+01 -4.0567E+01  2.5147E+03

           1    1.37001E+01     4.9940E-01 -1.1347E-02 -7.8311E-01  9.2887E-01
ac ID =   33377                -5.8047E-01  4.9811E+01 -3.4390E-01  4.9815E+01
                               -3.7508E-01  2.5765E+01 -4.0398E+01  2.5147E+03

           1    1.38001E+01     5.0427E-01 -3.1581E-03 -6.8320E-01  8.4915E-01
ac ID =   33377                -4.8340E-01  4.9633E+01 -3.2747E-01  4.9637E+01
                               -3.7525E-01  2.5939E+01 -4.0229E+01  2.5147E+03

           1    1.39001E+01     4.9560E-01 -7.1170E-03 -6.1937E-01  7.9328E-01
ac ID =   33377                -2.2908E-01  4.8559E+01 -2.1040E-01  4.8560E+01
                               -3.7541E-01  2.6114E+01 -4.0061E+01  2.5147E+03

           1    1.40001E+01     4.9030E-01 -1.9716E-02 -5.2211E-01  7.1651E-01
ac ID =   33377                -7.4107E-01  4.8304E+01 -1.4808E-01  4.8310E+01
                               -3.7559E-01  2.6289E+01 -3.9894E+01  2.5147E+03

           1    1.41001E+01     4.8784E-01  1.6563E-02 -3.9626E-01  6.2872E-01
ac ID =   33377                -1.1715E+00  4.7569E+01 -2.6561E-01  4.7584E+01
                               -3.7596E-01  2.6464E+01 -3.9728E+01  2.5147E+03

           1    1.42001E+01     4.7612E-01 -5.7623E-03 -3.2770E-01  5.7803E-01
ac ID =   33377                -1.1484E+00  4.7109E+01 -7.4188E-01  4.7128E+01
                               -3.7636E-01  2.6639E+01 -3.9563E+01  2.5147E+03

           1    1.43001E+01     4.8925E-01 -4.4661E-03 -2.8337E-01  5.6541E-01
ac ID =   33377                -9.2945E-01  4.6952E+01 -5.4178E-01  4.6964E+01
                               -3.7691E-01  2.6815E+01 -3.9399E+01  2.5147E+03

           1    1.44001E+01     4.7512E-01  1.4213E-02 -1.9252E-01  5.1284E-01
ac ID =   33377                -1.3282E+00  4.6844E+01 -2.9939E-01  4.6864E+01
                               -3.7764E-01  2.6991E+01 -3.9238E+01  2.5147E+03

           1    1.45000E+01     4.7415E-01 -2.3354E-03 -8.5057E-02  4.8172E-01
ac ID =   33377                -5.4428E-01  4.6385E+01 -2.1257E-01  4.6388E+01
                               -3.7844E-01  2.7167E+01 -3.9077E+01  2.5147E+03

           1    1.46000E+01     4.7404E-01 -1.2910E-02  3.9897E-03  4.7423E-01
ac ID =   33377                -3.6366E-01  4.5572E+01 -4.0239E-01  4.5575E+01
                               -3.7928E-01  2.7343E+01 -3.8919E+01  2.5147E+03

           1    1.47000E+01     5.0930E-01  1.1675E-02  1.1664E-02  5.0957E-01
ac ID =   33377                -2.2705E-01  4.5856E+01 -6.6789E-01  4.5861E+01
                               -3.8033E-01  2.7520E+01 -3.8762E+01  2.5147E+03

           1    1.48005E+01     4.5765E-01 -3.2233E-02  8.8525E-02  4.6724E-01
ac ID =   33377                 9.9987E-02  4.5004E+01 -3.0578E-01  4.5005E+01
                               -3.8122E-01  2.7698E+01 -3.8606E+01  2.5147E+03

           1    1.49005E+01     4.6391E-01  4.6467E-03  1.4299E-01  4.8546E-01
ac ID =   33377                -3.5016E-01  4.5040E+01 -5.0791E-01  4.5044E+01
                               -3.8231E-01  2.7876E+01 -3.8453E+01  2.5147E+03

           1    1.50005E+01     4.7242E-01  9.9416E-03  2.2441E-01  5.2311E-01
ac ID =   33377                -6.9352E-01  4.5327E+01 -2.9337E-01  4.5333E+01
                               -3.8340E-01  2.8054E+01 -3.8302E+01  2.5147E+03

           1    1.51005E+01     4.7661E-01 -2.5701E-02  2.7203E-01  5.4938E-01
ac ID =   33377                -6.0959E-02  4.5375E+01  1.1262E-03  4.5375E+01
                               -3.8447E-01  2.8232E+01 -3.8153E+01  2.5147E+03

           1    1.52005E+01     4.2409E-01 -2.1822E-03  2.9304E-01  5.1549E-01
ac ID =   33377                -1.0588E+00  4.4613E+01 -8.9072E-02  4.4626E+01
                               -3.8572E-01  2.8411E+01 -3.8006E+01  2.5147E+03

           1    1.53005E+01     4.7751E-01  1.4507E-02  3.6387E-01  6.0052E-01
ac ID =   33377                -5.6052E-01  4.5078E+01 -3.7657E-01  4.5083E+01
                               -3.8710E-01  2.8590E+01 -3.7862E+01  2.5147E+03

           1    1.54005E+01     4.4846E-01 -1.2336E-02  5.0130E-01  6.7274E-01
ac ID =   33377                 3.8992E-01  4.4756E+01 -4.7384E-01  4.4760E+01
                               -3.8839E-01  2.8769E+01 -3.7720E+01  2.5147E+03

           1    1.55004E+01     4.3316E-01 -2.7887E-02  4.7011E-01  6.3985E-01
ac ID =   33377                 6.3277E-01  4.4522E+01 -6.2343E-01  4.4531E+01
                               -3.8975E-01  2.8949E+01 -3.7580E+01  2.5147E+03

           1    1.56004E+01     4.5258E-01  4.0536E-03  4.8857E-01  6.6599E-01
ac ID =   33377                 4.1394E-01  4.4791E+01 -3.3484E-01  4.4794E+01
                               -3.9126E-01  2.9128E+01 -3.7442E+01  2.5147E+03

           1    1.57004E+01     4.5998E-01 -1.9002E-02  5.7658E-01  7.3782E-01
ac ID =   33377                 7.3065E-01  4.3656E+01 -4.1184E-01  4.3664E+01
                               -3.9264E-01  2.9308E+01 -3.7307E+01  2.5147E+03

           1    1.58004E+01     3.9156E-01 -2.5688E-02  6.2728E-01  7.3991E-01
ac ID =   33377                 1.0208E+00  4.1735E+01 -2.0958E-01  4.1748E+01
                               -3.9401E-01  2.9488E+01 -3.7175E+01  2.5147E+03

           1    1.59004E+01     4.5707E-01  2.8413E-03  6.4750E-01  7.9257E-01
ac ID =   33377                -1.3584E-01  4.2373E+01  1.9133E-01  4.2374E+01
                               -3.9555E-01  2.9668E+01 -3.7045E+01  2.5147E+03

           1    1.60004E+01     4.1942E-01 -3.2406E-03  7.2858E-01  8.4069E-01
ac ID =   33377                 3.2493E-01  4.2261E+01  1.6523E-01  4.2262E+01
                               -3.9700E-01  2.9849E+01 -3.6918E+01  2.5147E+03

           1    1.61004E+01     4.3302E-01 -2.2903E-02  7.5608E-01  8.7160E-01
ac ID =   33377                 6.6808E-01  4.2088E+01  7.6501E-02  4.2093E+01
                               -3.9848E-01  3.0029E+01 -3.6793E+01  2.5147E+03

           1    1.62004E+01     4.3848E-01  2.9815E-02  7.9374E-01  9.0729E-01
ac ID =   33377                 8.9852E-02  4.0687E+01 -6.6870E-01  4.0692E+01
                               -4.0013E-01  3.0210E+01 -3.6671E+01  2.5147E+03

           1    1.63004E+01     4.1740E-01 -2.9840E-02  8.4860E-01  9.4617E-01
ac ID =   33377                 1.0798E+00  3.9284E+01 -1.0005E+00  3.9312E+01
                               -4.0168E-01  3.0391E+01 -3.6552E+01  2.5147E+03

           1    1.64004E+01     3.9890E-01 -4.8123E-02  8.2200E-01  9.1495E-01
ac ID =   33377                 1.3822E+00  3.8614E+01 -3.2258E-01  3.8641E+01
                               -4.0321E-01  3.0572E+01 -3.6436E+01  2.5147E+03

           1    1.65003E+01     3.9185E-01 -1.0892E-02  8.4518E-01  9.3166E-01
ac ID =   33377                 1.2514E+00  3.8430E+01  5.1449E-01  3.8454E+01
                               -4.0489E-01  3.0753E+01 -3.6323E+01  2.5147E+03

           1    1.66003E+01     4.3515E-01  8.6598E-03  8.9462E-01  9.9487E-01
ac ID =   33377                 9.2686E-01  3.9608E+01  1.9709E-01  3.9619E+01
                               -4.0656E-01  3.0935E+01 -3.6213E+01  2.5147E+03

           1    1.67003E+01     4.2120E-01 -2.5845E-02  8.6479E-01  9.6225E-01
ac ID =   33377                 1.4131E+00  4.0361E+01 -2.9139E-01  4.0386E+01
                               -4.0815E-01  3.1116E+01 -3.6105E+01  2.5147E+03

           1    1.68003E+01     4.3208E-01 -1.8387E-02  9.0274E-01  1.0010E+00
ac ID =   33377                 1.0247E+00  4.0157E+01 -7.4720E-01  4.0177E+01
                               -4.0977E-01  3.1298E+01 -3.6001E+01  2.5147E+03

           1    1.69003E+01     4.1021E-01  1.3578E-03  9.4706E-01  1.0321E+00
ac ID =   33377                 1.0211E+00  3.9386E+01 -1.1348E+00  3.9416E+01
                               -4.1155E-01  3.1479E+01 -3.5899E+01  2.5147E+03

           1    1.70003E+01     3.9472E-01 -1.3372E-02  9.2875E-01  1.0092E+00
ac ID =   33377                 9.0573E-01  3.8012E+01 -6.2762E-01  3.8028E+01
                               -4.1328E-01  3.1661E+01 -3.5800E+01  2.5147E+03

           1    1.71003E+01     3.9543E-01 -1.7138E-02  9.4292E-01  1.0226E+00
ac ID =   33377                 1.1494E+00  3.7032E+01 -4.8679E-01  3.7053E+01
                               -4.1504E-01  3.1842E+01 -3.5704E+01  2.5147E+03

           1    1.72003E+01     3.8158E-01 -2.5724E-02  9.6257E-01  1.0358E+00
ac ID =   33377                 1.5136E+00  3.6134E+01  4.5258E-02  3.6165E+01
                               -4.1687E-01  3.2023E+01 -3.5611E+01  2.5147E+03

           1    1.73003E+01     3.6008E-01 -2.3132E-02  9.9878E-01  1.0620E+00
ac ID =   33377                 1.6363E+00  3.4949E+01  4.3346E-01  3.4990E+01
                               -4.1864E-01  3.2204E+01 -3.5520E+01  2.5147E+03

           1    1.74003E+01     3.6798E-01 -9.3836E-03  1.0078E+00  1.0729E+00
ac ID =   33377                 1.8180E+00  3.4601E+01 -1.7273E-01  3.4649E+01
                               -4.2041E-01  3.2385E+01 -3.5433E+01  2.5147E+03

           1    1.75002E+01     3.7703E-01 -2.6388E-02  9.8833E-01  1.0581E+00
ac ID =   33377                 1.6891E+00  3.3163E+01 -7.6133E-01  3.3215E+01
                               -4.2218E-01  3.2566E+01 -3.5348E+01  2.5147E+03

           1    1.76002E+01     3.1843E-01 -1.2793E-02  1.0227E+00  1.0712E+00
ac ID =   33377                 1.3149E+00  3.2263E+01 -2.2107E-01  3.2291E+01
                               -4.2400E-01  3.2746E+01 -3.5266E+01  2.5147E+03

           1    1.77002E+01     3.6197E-01 -3.1655E-02  1.0216E+00  1.0843E+00
ac ID =   33377                 1.5611E+00  3.2004E+01  3.4494E-01  3.2044E+01
                               -4.2583E-01  3.2925E+01 -3.5186E+01  2.5147E+03

           1    1.78002E+01     3.5139E-01  5.7719E-03  1.0289E+00  1.0873E+00
ac ID =   33377                 1.5679E+00  3.0998E+01  3.0169E-02  3.1038E+01
                               -4.2774E-01  3.3105E+01 -3.5109E+01  2.5147E+03

           1    1.79002E+01     2.9188E-01 -8.0686E-03  1.0300E+00  1.0706E+00
ac ID =   33377                 1.4666E+00  2.8892E+01 -6.6009E-01  2.8937E+01
                               -4.2954E-01  3.3283E+01 -3.5035E+01  2.5147E+03

           1    1.80002E+01     3.1075E-01 -2.4860E-02  9.9063E-01  1.0385E+00
ac ID =   33377                 2.0099E+00  2.8577E+01 -7.1006E-01  2.8657E+01
                               -4.3149E-01  3.3462E+01 -3.4963E+01  2.5147E+03

           1    1.81002E+01     3.2920E-01 -2.3651E-02  1.0114E+00  1.0639E+00
ac ID =   33377                 2.1423E+00  2.8091E+01 -2.1482E-01  2.8174E+01
                               -4.3341E-01  3.3640E+01 -3.4894E+01  2.5147E+03

           1    1.82002E+01     2.9241E-01 -2.5101E-03  1.0011E+00  1.0429E+00
ac ID =   33377                 2.1244E+00  2.7235E+01 -3.5555E-01  2.7320E+01
                               -4.3530E-01  3.3817E+01 -3.4827E+01  2.5147E+03

           1    1.83002E+01     2.6964E-01 -3.7857E-02  9.8318E-01  1.0202E+00
ac ID =   33377                 2.8016E+00  2.6666E+01 -6.6160E-01  2.6821E+01
                               -4.3713E-01  3.3994E+01 -3.4763E+01  2.5147E+03

           1    1.84002E+01     3.3646E-01 -1.7586E-02  9.4017E-01  9.9872E-01
ac ID =   33377                 1.9656E+00  2.6827E+01 -4.0881E-01  2.6902E+01
                               -4.3900E-01  3.4171E+01 -3.4701E+01  2.5147E+03

           1    1.85001E+01     2.8330E-01 -2.8132E-02  9.3929E-01  9.8149E-01
ac ID =   33377                 2.2122E+00  2.5706E+01 -1.3831E-01  2.5801E+01
                               -4.4079E-01  3.4347E+01 -3.4642E+01  2.5147E+03

           1    1.86001E+01     2.7979E-01 -1.2776E-02  9.3999E-01  9.8083E-01
ac ID =   33377                 1.6112E+00  2.4642E+01 -2.2429E-01  2.4696E+01
                               -4.4259E-01  3.4523E+01 -3.4585E+01  2.5147E+03

           1    1.87001E+01     3.0314E-01 -2.4776E-03  9.4771E-01  9.9501E-01
ac ID =   33377                 1.8343E+00  2.4534E+01 -5.7677E-01  2.4610E+01
                               -4.4445E-01  3.4698E+01 -3.4530E+01  2.5147E+03

           1    1.88001E+01     2.8726E-01 -1.9426E-02  8.6614E-01  9.1274E-01
ac ID =   33377                 1.7285E+00  2.4128E+01 -3.3092E-01  2.4192E+01
                               -4.4625E-01  3.4873E+01 -3.4477E+01  2.5147E+03

           1    1.89001E+01     2.7320E-01 -8.0380E-03  8.3328E-01  8.7696E-01
ac ID =   33377                 1.8973E+00  2.3330E+01  2.2861E-01  2.3408E+01
                               -4.4817E-01  3.5047E+01 -3.4427E+01  2.5147E+03

           1    1.90001E+01     2.7356E-01 -6.7370E-03  8.6631E-01  9.0851E-01
ac ID =   33377                 2.1120E+00  2.2841E+01  6.2029E-01  2.2947E+01
                               -4.5007E-01  3.5221E+01 -3.4379E+01  2.5147E+03

           1    1.91001E+01     3.0036E-01 -1.6430E-02  8.2716E-01  8.8016E-01
ac ID =   33377                 2.7965E+00  2.2965E+01 -3.3301E-01  2.3137E+01
                               -4.5193E-01  3.5394E+01 -3.4333E+01  2.5147E+03

           1    1.92001E+01     2.8103E-01 -2.5308E-02  7.7714E-01  8.2678E-01
ac ID =   33377                 2.5594E+00  2.2149E+01 -6.4487E-01  2.2306E+01
                               -4.5381E-01  3.5566E+01 -3.4289E+01  2.5147E+03

           1    1.93001E+01     2.7910E-01 -1.6844E-02  7.2603E-01  7.7801E-01
ac ID =   33377                 2.5193E+00  2.1851E+01 -2.2798E-01  2.1997E+01
                               -4.5574E-01  3.5738E+01 -3.4247E+01  2.5147E+03

           1    1.94001E+01     2.8173E-01 -2.1701E-02  7.2709E-01  7.8006E-01
ac ID =   33377                 2.8102E+00  2.1735E+01 -1.6865E-01  2.1916E+01
                               -4.5763E-01  3.5909E+01 -3.4207E+01  2.5147E+03

           1    1.95000E+01     2.7711E-01 -1.3947E-02  7.2263E-01  7.7407E-01
ac ID =   33377                 2.6761E+00  2.0796E+01 -3.9247E-02  2.0967E+01
                               -4.5951E-01  3.6080E+01 -3.4169E+01  2.5147E+03

           1    1.96000E+01     2.5683E-01 -1.8354E-02  6.7655E-01  7.2389E-01
ac ID =   33377                 2.5397E+00  1.9848E+01 -5.0338E-01  2.0016E+01
                               -4.6136E-01  3.6249E+01 -3.4132E+01  2.5147E+03

           1    1.97005E+01     2.6181E-01 -2.3045E-02  6.1997E-01  6.7337E-01
ac ID =   33377                 2.7513E+00  1.8996E+01 -3.2991E-01  1.9197E+01
                               -4.6329E-01  3.6419E+01 -3.4097E+01  2.5147E+03

           1    1.98005E+01     2.5989E-01 -1.3502E-02  6.2089E-01  6.7322E-01
ac ID =   33377                 2.9356E+00  1.8377E+01  2.1242E-01  1.8611E+01
                               -4.6514E-01  3.6588E+01 -3.4065E+01  2.5147E+03

           1    1.99005E+01     2.6891E-01 -2.2862E-02  6.3390E-01  6.8896E-01
ac ID =   33377                 3.2205E+00  1.8561E+01  3.2286E-01  1.8841E+01
                               -4.6697E-01  3.6755E+01 -3.4034E+01  2.5147E+03

           1    2.00005E+01     2.6016E-01 -2.2482E-02  5.8124E-01  6.3721E-01
ac ID =   33377                 3.5271E+00  1.8213E+01  9.1194E-02  1.8552E+01
                               -4.6874E-01  3.6922E+01 -3.4004E+01  2.5147E+03

           1    2.01005E+01     2.5786E-01 -3.1991E-02  5.4513E-01  6.0389E-01
ac ID =   33377                 3.5021E+00  1.7340E+01 -2.2916E-01  1.7691E+01
                               -4.7047E-01  3.7088E+01 -3.3976E+01  2.5147E+03

           1    2.02005E+01     2.6725E-01 -2.2690E-02  5.0367E-01  5.7064E-01
ac ID =   33377                 3.6404E+00  1.6997E+01  8.4062E-03  1.7383E+01
                               -4.7213E-01  3.7253E+01 -3.3949E+01  2.5147E+03

           1    2.03005E+01     2.5296E-01 -1.8691E-02  4.9713E-01  5.5810E-01
ac ID =   33377                 3.1539E+00  1.6297E+01 -4.9441E-01  1.6607E+01
                               -4.7369E-01  3.7418E+01 -3.3924E+01  2.5147E+03

           1    2.04005E+01     2.4270E-01 -2.0821E-02  4.6762E-01  5.2726E-01
ac ID =   33377                 3.5592E+00  1.5526E+01 -8.2711E-01  1.5950E+01
                               -4.7515E-01  3.7582E+01 -3.3900E+01  2.5147E+03

           1    2.05004E+01     2.5448E-01 -2.7922E-02  3.9011E-01  4.6661E-01
ac ID =   33377                 3.3529E+00  1.5452E+01 -3.9639E-01  1.5817E+01
                               -4.7648E-01  3.7744E+01 -3.3878E+01  2.5147E+03

           1    2.06004E+01     2.5764E-01  4.2808E-05  3.5332E-01  4.3728E-01
ac ID =   33377                 2.8606E+00  1.5255E+01 -4.5359E-01  1.5528E+01
                               -4.7782E-01  3.7906E+01 -3.3857E+01  2.5147E+03

           1    2.07004E+01     2.4278E-01 -1.0408E-02  3.2881E-01  4.0886E-01
ac ID =   33377                 3.0961E+00  1.4163E+01  9.5503E-02  1.4498E+01
                               -4.7897E-01  3.8067E+01 -3.3836E+01  2.5147E+03

           1    2.08004E+01     2.4602E-01 -3.4671E-02  3.1250E-01  3.9923E-01
ac ID =   33377                 3.7079E+00  1.3332E+01  1.0181E-01  1.3838E+01
                               -4.7997E-01  3.8228E+01 -3.3817E+01  2.5147E+03

           1    2.09004E+01     2.5415E-01 -1.5627E-02  2.4440E-01  3.5294E-01
ac ID =   33377                 3.4026E+00  1.3214E+01 -2.4892E-01  1.3647E+01
                               -4.8089E-01  3.8387E+01 -3.3799E+01  2.5147E+03

           1    2.10004E+01     2.4767E-01 -3.2694E-03  1.9462E-01  3.1500E-01
ac ID =   33377                 3.3873E+00  1.3017E+01 -6.6089E-01  1.3466E+01
                               -4.8171E-01  3.8545E+01 -3.3782E+01  2.5147E+03

           1    2.11004E+01     2.3866E-01 -1.6453E-02  1.6457E-01  2.9037E-01
ac ID =   33377                 3.4627E+00  1.2180E+01 -5.0131E-01  1.2673E+01
                               -4.8231E-01  3.8703E+01 -3.3765E+01  2.5147E+03

           1    2.12004E+01     2.2351E-01 -2.9931E-02  1.4948E-01  2.7055E-01
ac ID =   33377                 3.6270E+00  1.1190E+01 -3.2609E-01  1.1768E+01
                               -4.8275E-01  3.8859E+01 -3.3749E+01  2.5147E+03

           1    2.13004E+01     2.4582E-01  3.8389E-03  1.2230E-01  2.7459E-01
ac ID =   33377                 2.7827E+00  1.0471E+01 -1.1007E-01  1.0835E+01
                               -4.8307E-01  3.9014E+01 -3.3733E+01  2.5147E+03

           1    2.14004E+01     2.1760E-01 -2.3142E-03  8.1309E-02  2.3230E-01
ac ID =   33377                 3.0659E+00  9.5366E+00 -3.6186E-02  1.0017E+01
                               -4.8320E-01  3.9169E+01 -3.3718E+01  2.5147E+03

           1    2.15003E+01     2.2332E-01 -1.9813E-02  1.1507E-02  2.2449E-01
ac ID =   33377                 3.2263E+00  9.1754E+00 -2.3021E-01  9.7289E+00
                               -4.8316E-01  3.9322E+01 -3.3703E+01  2.5147E+03

           1    2.16003E+01     2.4122E-01  9.8370E-04  2.0559E-02  2.4209E-01
ac ID =   33377                 2.7264E+00  9.2403E+00 -3.6007E-01  9.6408E+00
                               -4.8293E-01  3.9474E+01 -3.3689E+01  2.5147E+03

           1    2.17003E+01     2.3228E-01 -2.9577E-03  2.6892E-02  2.3385E-01
ac ID =   33377                 2.9334E+00  8.0975E+00 -1.8493E-01  8.6144E+00
                               -4.8254E-01  3.9626E+01 -3.3675E+01  2.5147E+03

           1    2.18003E+01     2.0864E-01 -8.7379E-03 -4.1500E-02  2.1290E-01
ac ID =   33377                 3.2754E+00  7.0896E+00 -1.1369E-01  7.8105E+00
                               -4.8196E-01  3.9776E+01 -3.3661E+01  2.5147E+03

           1    2.19003E+01     2.3053E-01 -7.8700E-03 -8.1837E-02  2.4475E-01
ac ID =   33377                 2.9169E+00  6.7079E+00 -1.7593E-01  7.3168E+00
                               -4.8111E-01  3.9925E+01 -3.3647E+01  2.5147E+03

           1    2.20003E+01     2.3295E-01  6.7701E-03 -9.3431E-02  2.5108E-01
ac ID =   33377                 2.6451E+00  6.1793E+00 -7.9561E-01  6.7685E+00
                               -4.8012E-01  4.0074E+01 -3.3633E+01  2.5147E+03

           1    2.21003E+01     2.1589E-01 -7.8752E-03 -1.1205E-01  2.4336E-01
ac ID =   33377                 2.8390E+00  5.5899E+00 -8.9132E-01  6.3326E+00
                               -4.7890E-01  4.0221E+01 -3.3619E+01  2.5147E+03

           1    2.22003E+01     2.2968E-01 -6.8486E-03 -1.4384E-01  2.7109E-01
ac ID =   33377                 2.7451E+00  5.4448E+00 -1.8143E-01  6.1003E+00
                               -4.7743E-01  4.0367E+01 -3.3605E+01  2.5147E+03

           1    2.23003E+01     2.3180E-01  9.6360E-03 -1.8718E-01  2.9810E-01
ac ID =   33377                 2.0689E+00  4.9366E+00  7.4710E-02  5.3531E+00
                               -4.7584E-01  4.0512E+01 -3.3591E+01  2.5147E+03

           1    2.24003E+01     2.2849E-01  4.9199E-03 -2.1762E-01  3.1558E-01
ac ID =   33377                 2.3186E+00  4.0089E+00 -4.5420E-02  4.6313E+00
                               -4.7404E-01  4.0656E+01 -3.3576E+01  2.5147E+03

           1    2.25002E+01     2.2651E-01 -9.0272E-03 -2.2075E-01  3.1641E-01
ac ID =   33377                 2.4228E+00  3.4337E+00 -3.2948E-01  4.2153E+00
                               -4.7202E-01  4.0800E+01 -3.3561E+01  2.5147E+03

           1    2.26002E+01     2.3007E-01 -1.3767E-03 -2.3868E-01  3.3151E-01
ac ID =   33377                 2.4845E+00  3.2003E+00 -3.4172E-01  4.0659E+00
                               -4.6983E-01  4.0942E+01 -3.3546E+01  2.5147E+03

           1    2.27002E+01     2.3243E-01  1.0619E-02 -2.9162E-01  3.7307E-01
ac ID =   33377                 2.1151E+00  2.7030E+00 -1.6350E-01  3.4361E+00
                               -4.6750E-01  4.1083E+01 -3.3531E+01  2.5147E+03

           1    2.28002E+01     2.2756E-01 -1.0046E-02 -3.1573E-01  3.8932E-01
ac ID =   33377                 2.5960E+00  2.0516E+00 -4.4810E-01  3.3391E+00
                               -4.6496E-01  4.1223E+01 -3.3514E+01  2.5147E+03

           1    2.29002E+01     2.1305E-01 -1.1054E-02 -3.2479E-01  3.8858E-01
ac ID =   33377                 2.5454E+00  1.0080E+00 -3.6952E-01  2.7626E+00
                               -4.6226E-01  4.1362E+01 -3.3498E+01  2.5147E+03

           1    2.30002E+01     2.2704E-01  1.8706E-04 -3.4250E-01  4.1092E-01
ac ID =   33377                 2.2023E+00  6.2378E-01 -1.5336E-01  2.2941E+00
                               -4.5940E-01  4.1500E+01 -3.3480E+01  2.5147E+03

           1    2.31002E+01     2.2131E-01  4.1282E-03 -3.7244E-01  4.3325E-01
ac ID =   33377                 2.0350E+00  3.7633E-02  8.3827E-02  2.0370E+00
                               -4.5644E-01  4.1637E+01 -3.3462E+01  2.5147E+03

           1    2.32002E+01     2.1793E-01 -7.7396E-03 -3.9357E-01  4.4994E-01
ac ID =   33377                 2.2081E+00 -1.4685E-01  1.7992E-02  2.2131E+00
                               -4.5336E-01  4.1774E+01 -3.3444E+01  2.5147E+03

           1    2.33002E+01     2.3602E-01 -2.5253E-03 -4.1553E-01  4.7788E-01
ac ID =   33377                 1.6981E+00 -5.9454E-01 -9.2003E-02  1.8015E+00
                               -4.5008E-01  4.1909E+01 -3.3424E+01  2.5147E+03

           1    2.34002E+01     2.2295E-01 -2.4279E-03 -4.3011E-01  4.8446E-01
ac ID =   33377                 1.5846E+00 -1.3227E+00 -3.8769E-01  2.1002E+00
                               -4.4680E-01  4.2044E+01 -3.3404E+01  2.5147E+03

           1    2.35001E+01     2.1535E-01 -3.5869E-03 -4.3907E-01  4.8905E-01
ac ID =   33377                 1.9686E+00 -2.1293E+00 -4.5460E-01  2.9353E+00
                               -4.4347E-01  4.2177E+01 -3.3383E+01  2.5147E+03

           1    2.36001E+01     2.1740E-01 -6.8531E-03 -4.5998E-01  5.0881E-01
ac ID =   33377                 1.6295E+00 -2.7293E+00 -6.1311E-01  3.2373E+00
                               -4.3996E-01  4.2310E+01 -3.3361E+01  2.5147E+03

           1    2.37001E+01     2.3347E-01 -8.3687E-03 -4.7771E-01  5.3177E-01
ac ID =   33377                 1.6763E+00 -2.8639E+00 -6.7092E-01  3.3855E+00
                               -4.3648E-01  4.2443E+01 -3.3338E+01  2.5147E+03

           1    2.38001E+01     2.2987E-01 -4.5176E-03 -4.8062E-01  5.3278E-01
ac ID =   33377                 1.7969E+00 -2.9896E+00 -4.8528E-01  3.5217E+00
                               -4.3296E-01  4.2574E+01 -3.3314E+01  2.5147E+03

           1    2.39001E+01     2.2214E-01 -5.3857E-03 -4.7997E-01  5.2892E-01
ac ID =   33377                 1.5626E+00 -3.5388E+00 -1.0974E-01  3.8700E+00
                               -4.2930E-01  4.2705E+01 -3.3289E+01  2.5147E+03

           1    2.40001E+01     2.3187E-01 -2.2748E-03 -4.7255E-01  5.2638E-01
ac ID =   33377                 1.3015E+00 -3.8548E+00  2.2187E-01  4.0746E+00
                               -4.2563E-01  4.2834E+01 -3.3264E+01  2.5147E+03

           1    2.41001E+01     2.3553E-01 -5.8816E-04 -4.8181E-01  5.3630E-01
ac ID =   33377                 1.2296E+00 -4.4262E+00  3.4451E-02  4.5939E+00
                               -4.2198E-01  4.2963E+01 -3.3237E+01  2.5147E+03

           1    2.42001E+01     2.2086E-01  6.1371E-03 -4.8980E-01  5.3733E-01
ac ID =   33377                 9.6571E-01 -5.0621E+00 -2.4434E-01  5.1592E+00
                               -4.1822E-01  4.3092E+01 -3.3209E+01  2.5147E+03

           1    2.43001E+01     2.2745E-01 -3.0251E-03 -4.6966E-01  5.2184E-01
ac ID =   33377                 8.7657E-01 -5.5317E+00 -2.5475E-01  5.6065E+00
                               -4.1446E-01  4.3219E+01 -3.3181E+01  2.5147E+03

           1    2.44001E+01     2.3001E-01 -2.2020E-03 -4.7396E-01  5.2683E-01
ac ID =   33377                 1.2223E+00 -5.8958E+00 -3.6459E-01  6.0322E+00
                               -4.1072E-01  4.3346E+01 -3.3151E+01  2.5147E+03

           1    2.45005E+01     2.2308E-01 -2.1784E-03 -4.7764E-01  5.2717E-01
ac ID =   33377                 8.4657E-01 -6.6220E+00 -5.0398E-01  6.6949E+00
                               -4.0693E-01  4.3472E+01 -3.3120E+01  2.5147E+03

           1    2.46005E+01     2.1383E-01 -1.5823E-03 -4.6524E-01  5.1203E-01
ac ID =   33377                 9.6969E-01 -7.3995E+00 -3.7412E-01  7.4721E+00
                               -4.0314E-01  4.3598E+01 -3.3089E+01  2.5147E+03

           1    2.47005E+01     2.2709E-01 -1.1032E-02 -4.6612E-01  5.1861E-01
ac ID =   33377                 1.2251E+00 -7.6761E+00 -1.5887E-01  7.7748E+00
                               -3.9931E-01  4.3722E+01 -3.3056E+01  2.5147E+03

           1    2.48005E+01     2.1548E-01 -7.5802E-03 -4.5306E-01  5.0174E-01
ac ID =   33377                 9.7059E-01 -8.3613E+00  1.3270E-01  8.4185E+00
                               -3.9544E-01  4.3846E+01 -3.3023E+01  2.5147E+03

           1    2.49005E+01     2.1534E-01 -5.5502E-03 -4.5405E-01  5.0256E-01
ac ID =   33377                 7.4954E-01 -8.7838E+00  2.3132E-01  8.8187E+00
                               -3.9157E-01  4.3969E+01 -3.2988E+01  2.5147E+03

