 LSTC 50th% Full_FE H-III Dummy (Beta Version, February 17, 2019)        
                    ls-dyna smp s R16 R16.0_619_d222963 date 03/18/2025

{BEGIN LEGEND}
 Entity #        Title
    22626                                                                                     
{END LEGEND}




 n o d a l   p r i n t   o u t   f o r   t i m e  s t e p       1                              ( at time 0.0000000E+00 )

 nodal point  x-disp     y-disp      z-disp      x-vel       y-vel       z-vel      x-accl      y-accl      z-accl      x-coor      y-coor      z-coor
    22626  0.00000E+00 0.00000E+00 0.00000E+00 0.00000E+00 0.00000E+00 0.00000E+00 0.00000E+00 0.00000E+00 0.00000E+00 4.65938E+00-2.81908E+01-4.49817E+01



 n o d a l   p r i n t   o u t   f o r   t i m e  s t e p       1                              ( at time 0.0000000E+00 )

 nodal point  x-rot      y-rot       z-rot       x-rot vel   y-rot vel   z-rot vel   x-rot acc   y-rot acc   z-rot acc
    22626  0.00000E+00 0.00000E+00 0.00000E+00 0.00000E+00 0.00000E+00 0.00000E+00 0.00000E+00 0.00000E+00 0.00000E+00



 n o d a l   p r i n t   o u t   f o r   t i m e  s t e p     201                              ( at time 9.9989993E-02 )

 nodal point  x-disp     y-disp      z-disp      x-vel       y-vel       z-vel      x-accl      y-accl      z-accl      x-coor      y-coor      z-coor
    22626  2.73585E-07 1.73664E-06-5.34276E-05 4.19764E-05 2.55585E-04-1.46815E-03 4.19806E-04 2.55610E-03-1.46830E-02 4.65938E+00-2.81908E+01-4.49818E+01



 n o d a l   p r i n t   o u t   f o r   t i m e  s t e p     201                              ( at time 9.9989993E-02 )

 nodal point  x-rot      y-rot       z-rot       x-rot vel   y-rot vel   z-rot vel   x-rot acc   y-rot acc   z-rot acc
    22626 -5.98899E-08-8.38532E-09-5.45973E-09-5.86836E-06-9.70030E-07-9.27185E-07-5.86894E-05-9.70127E-06-9.27278E-06



 n o d a l   p r i n t   o u t   f o r   t i m e  s t e p     401                              ( at time 1.9997999E-01 )

 nodal point  x-disp     y-disp      z-disp      x-vel       y-vel       z-vel      x-accl      y-accl      z-accl      x-coor      y-coor      z-coor
    22626  1.73067E-05 3.61744E-04-6.67589E-04 2.97592E-05 7.81145E-03-1.21557E-02-1.22184E-04 7.55662E-02-1.06886E-01 4.65939E+00-2.81905E+01-4.49824E+01



 n o d a l   p r i n t   o u t   f o r   t i m e  s t e p     401                              ( at time 1.9997999E-01 )

 nodal point  x-rot      y-rot       z-rot       x-rot vel   y-rot vel   z-rot vel   x-rot acc   y-rot acc   z-rot acc
    22626 -2.82011E-06-3.37063E-07-3.34461E-07-3.94839E-05-1.75180E-06-2.27859E-06-3.36189E-04-7.81846E-06-1.35154E-05



 n o d a l   p r i n t   o u t   f o r   t i m e  s t e p     601                              ( at time 2.9996998E-01 )

 nodal point  x-disp     y-disp      z-disp      x-vel       y-vel       z-vel      x-accl      y-accl      z-accl      x-coor      y-coor      z-coor
    22626  2.73740E-05 1.24008E-03-2.33843E-03 4.20821E-04 8.45223E-03-1.92586E-02 3.91101E-03 6.40845E-03-7.10363E-02 4.65940E+00-2.81896E+01-4.49841E+01



 n o d a l   p r i n t   o u t   f o r   t i m e  s t e p     601                              ( at time 2.9996998E-01 )

 nodal point  x-rot      y-rot       z-rot       x-rot vel   y-rot vel   z-rot vel   x-rot acc   y-rot acc   z-rot acc
    22626 -5.38420E-06-3.90587E-07-6.42302E-07-1.53935E-05-5.44566E-06-6.64276E-06 2.40927E-04-3.69424E-05-4.36461E-05



 n o d a l   p r i n t   o u t   f o r   t i m e  s t e p     801                              ( at time 3.9995997E-01 )

 nodal point  x-disp     y-disp      z-disp      x-vel       y-vel       z-vel      x-accl      y-accl      z-accl      x-coor      y-coor      z-coor
    22626  2.60549E-05 2.16243E-03-4.28285E-03-3.12978E-04 1.07391E-02-2.10851E-02-7.33872E-03 2.28715E-02-1.82674E-02 4.65940E+00-2.81887E+01-4.49860E+01



 n o d a l   p r i n t   o u t   f o r   t i m e  s t e p     801                              ( at time 3.9995997E-01 )

 nodal point  x-rot      y-rot       z-rot       x-rot vel   y-rot vel   z-rot vel   x-rot acc   y-rot acc   z-rot acc
    22626 -7.61608E-06-1.25027E-06-9.81421E-07-4.48184E-05-6.24844E-06-1.57512E-06-2.94278E-04-8.02853E-06 5.06815E-05



 n o d a l   p r i n t   o u t   f o r   t i m e  s t e p    1001                              ( at time 4.9994997E-01 )

 nodal point  x-disp     y-disp      z-disp      x-vel       y-vel       z-vel      x-accl      y-accl      z-accl      x-coor      y-coor      z-coor
    22626  3.68830E-06 3.43653E-03-6.74479E-03-2.40293E-04 1.41451E-02-2.87103E-02 7.26923E-04 3.40628E-02-7.62596E-02 4.65938E+00-2.81874E+01-4.49885E+01



 n o d a l   p r i n t   o u t   f o r   t i m e  s t e p    1001                              ( at time 4.9994997E-01 )

 nodal point  x-rot      y-rot       z-rot       x-rot vel   y-rot vel   z-rot vel   x-rot acc   y-rot acc   z-rot acc
    22626 -1.35613E-05-1.16504E-06-9.49748E-07-8.43434E-05 3.21238E-06 4.11827E-06-3.95289E-04 9.46177E-05 5.69396E-05



 n o d a l   p r i n t   o u t   f o r   t i m e  s t e p    1201                              ( at time 5.9993996E-01 )

 nodal point  x-disp     y-disp      z-disp      x-vel       y-vel       z-vel      x-accl      y-accl      z-accl      x-coor      y-coor      z-coor
    22626 -9.08133E-07 5.01222E-03-9.71616E-03 4.51620E-05 1.67003E-02-3.09909E-02 2.85484E-03 2.55547E-02-2.28083E-02 4.65937E+00-2.81858E+01-4.49914E+01



 n o d a l   p r i n t   o u t   f o r   t i m e  s t e p    1201                              ( at time 5.9993996E-01 )

 nodal point  x-rot      y-rot       z-rot       x-rot vel   y-rot vel   z-rot vel   x-rot acc   y-rot acc   z-rot acc
    22626 -2.02877E-05-8.86901E-07-9.57947E-07-5.90802E-05 3.89037E-06-2.01856E-06 2.52657E-04 6.78057E-06-6.13745E-05



 n o d a l   p r i n t   o u t   f o r   t i m e  s t e p    1401                              ( at time 6.9992995E-01 )

 nodal point  x-disp     y-disp      z-disp      x-vel       y-vel       z-vel      x-accl      y-accl      z-accl      x-coor      y-coor      z-coor
    22626 -5.09627E-05 6.85042E-03-1.31710E-02-4.85831E-04 1.96561E-02-3.89647E-02-5.31046E-03 2.95612E-02-7.97456E-02 4.65932E+00-2.81840E+01-4.49949E+01



 n o d a l   p r i n t   o u t   f o r   t i m e  s t e p    1401                              ( at time 6.9992995E-01 )

 nodal point  x-rot      y-rot       z-rot       x-rot vel   y-rot vel   z-rot vel   x-rot acc   y-rot acc   z-rot acc
    22626 -2.62085E-05-9.01064E-07-6.32793E-07-7.09440E-05 3.21970E-07 3.81425E-06-1.18649E-04-3.56876E-05 5.83340E-05



 n o d a l   p r i n t   o u t   f o r   t i m e  s t e p    1601                              ( at time 7.9991994E-01 )

 nodal point  x-disp     y-disp      z-disp      x-vel       y-vel       z-vel      x-accl      y-accl      z-accl      x-coor      y-coor      z-coor
    22626 -8.02758E-05 8.98679E-03-1.74643E-02-4.98971E-04 2.21585E-02-4.51234E-02-1.31420E-04 2.50258E-02-6.15929E-02 4.65929E+00-2.81818E+01-4.49992E+01



 n o d a l   p r i n t   o u t   f o r   t i m e  s t e p    1601                              ( at time 7.9991994E-01 )

 nodal point  x-rot      y-rot       z-rot       x-rot vel   y-rot vel   z-rot vel   x-rot acc   y-rot acc   z-rot acc
    22626 -3.43995E-05-8.78617E-07-5.15572E-07-9.21614E-05-4.84759E-06 1.55374E-06-2.12196E-04-5.17007E-05-2.26074E-05



 n o d a l   p r i n t   o u t   f o r   t i m e  s t e p    1801                              ( at time 8.9990994E-01 )

 nodal point  x-disp     y-disp      z-disp      x-vel       y-vel       z-vel      x-accl      y-accl      z-accl      x-coor      y-coor      z-coor
    22626 -1.16894E-04 1.12542E-02-2.19906E-02-2.92610E-04 2.40463E-02-4.55889E-02 2.06382E-03 1.88804E-02-4.65585E-03 4.65926E+00-2.81796E+01-4.50037E+01



 n o d a l   p r i n t   o u t   f o r   t i m e  s t e p    1801                              ( at time 8.9990994E-01 )

 nodal point  x-rot      y-rot       z-rot       x-rot vel   y-rot vel   z-rot vel   x-rot acc   y-rot acc   z-rot acc
    22626 -4.28187E-05-9.58452E-07-5.02653E-07-8.24343E-05 2.02730E-06-7.29950E-07 9.72810E-05 6.87558E-05-2.28392E-05



 n o d a l   p r i n t   o u t   f o r   t i m e  s t e p    2001                              ( at time 9.9989993E-01 )

 nodal point  x-disp     y-disp      z-disp      x-vel       y-vel       z-vel      x-accl      y-accl      z-accl      x-coor      y-coor      z-coor
    22626 -1.52015E-04 1.37913E-02-2.67304E-02-3.39237E-05 2.65042E-02-5.00341E-02 2.58712E-03 2.45814E-02-4.44566E-02 4.65922E+00-2.81770E+01-4.50084E+01



 n o d a l   p r i n t   o u t   f o r   t i m e  s t e p    2001                              ( at time 9.9989993E-01 )

 nodal point  x-rot      y-rot       z-rot       x-rot vel   y-rot vel   z-rot vel   x-rot acc   y-rot acc   z-rot acc
    22626 -5.18480E-05-9.08263E-07-4.37904E-07-1.05955E-04 1.20512E-06-3.06635E-06-2.35234E-04-8.22265E-06-2.33663E-05



 n o d a l   p r i n t   o u t   f o r   t i m e  s t e p    2201                              ( at time 1.0998899E+00 )

 nodal point  x-disp     y-disp      z-disp      x-vel       y-vel       z-vel      x-accl      y-accl      z-accl      x-coor      y-coor      z-coor
    22626 -1.59827E-04 1.65322E-02-3.20559E-02-3.44508E-04 2.88796E-02-5.60824E-02-3.10616E-03 2.37560E-02-6.04887E-02 4.65921E+00-2.81743E+01-4.50138E+01



 n o d a l   p r i n t   o u t   f o r   t i m e  s t e p    2201                              ( at time 1.0998899E+00 )

 nodal point  x-rot      y-rot       z-rot       x-rot vel   y-rot vel   z-rot vel   x-rot acc   y-rot acc   z-rot acc
    22626 -6.29458E-05-1.00435E-06-7.49800E-07-1.03817E-04-7.64054E-06-2.08209E-06 2.13857E-05-8.84655E-05 9.84364E-06



 n o d a l   p r i n t   o u t   f o r   t i m e  s t e p    2401                              ( at time 1.1998799E+00 )

 nodal point  x-disp     y-disp      z-disp      x-vel       y-vel       z-vel      x-accl      y-accl      z-accl      x-coor      y-coor      z-coor
    22626 -1.89802E-04 1.94753E-02-3.79327E-02-1.92503E-04 3.02281E-02-6.12087E-02 1.52020E-03 1.34865E-02-5.12681E-02 4.65919E+00-2.81714E+01-4.50197E+01



 n o d a l   p r i n t   o u t   f o r   t i m e  s t e p    2401                              ( at time 1.1998799E+00 )

 nodal point  x-rot      y-rot       z-rot       x-rot vel   y-rot vel   z-rot vel   x-rot acc   y-rot acc   z-rot acc
    22626 -7.29518E-05-1.61517E-06-9.90790E-07-1.01071E-04-7.19028E-06-3.06503E-06 2.74597E-05 4.50301E-06-9.83047E-06



 n o d a l   p r i n t   o u t   f o r   t i m e  s t e p    2601                              ( at time 1.2998699E+00 )

 nodal point  x-disp     y-disp      z-disp      x-vel       y-vel       z-vel      x-accl      y-accl      z-accl      x-coor      y-coor      z-coor
    22626 -2.23817E-04 2.26250E-02-4.42079E-02-2.45652E-04 3.26019E-02-6.40473E-02-5.31537E-04 2.37404E-02-2.83894E-02 4.65915E+00-2.81682E+01-4.50259E+01



 n o d a l   p r i n t   o u t   f o r   t i m e  s t e p    2601                              ( at time 1.2998699E+00 )

 nodal point  x-rot      y-rot       z-rot       x-rot vel   y-rot vel   z-rot vel   x-rot acc   y-rot acc   z-rot acc
    22626 -8.39926E-05-2.17092E-06-1.24676E-06-1.29299E-04-6.19702E-08-1.46783E-06-2.82308E-04 7.12903E-05 1.59737E-05



 n o d a l   p r i n t   o u t   f o r   t i m e  s t e p    2801                              ( at time 1.3998599E+00 )

 nodal point  x-disp     y-disp      z-disp      x-vel       y-vel       z-vel      x-accl      y-accl      z-accl      x-coor      y-coor      z-coor
    22626 -2.51477E-04 2.59924E-02-5.07121E-02-4.50840E-04 3.45081E-02-6.66728E-02-2.05209E-03 1.90641E-02-2.62571E-02 4.65912E+00-2.81648E+01-4.50324E+01



 n o d a l   p r i n t   o u t   f o r   t i m e  s t e p    2801                              ( at time 1.3998599E+00 )

 nodal point  x-rot      y-rot       z-rot       x-rot vel   y-rot vel   z-rot vel   x-rot acc   y-rot acc   z-rot acc
    22626 -9.73982E-05-2.01191E-06-1.34545E-06-1.37123E-04-2.32761E-07 1.73865E-06-7.82458E-05-1.70808E-06 3.20680E-05



 n o d a l   p r i n t   o u t   f o r   t i m e  s t e p    3001                              ( at time 1.4998499E+00 )

 nodal point  x-disp     y-disp      z-disp      x-vel       y-vel       z-vel      x-accl      y-accl      z-accl      x-coor      y-coor      z-coor
    22626 -2.96328E-04 2.95911E-02-5.77243E-02-4.47423E-04 3.72815E-02-7.39848E-02 3.41745E-05 2.77368E-02-7.31276E-02 4.65908E+00-2.81612E+01-4.50394E+01



 n o d a l   p r i n t   o u t   f o r   t i m e  s t e p    3001                              ( at time 1.4998499E+00 )

 nodal point  x-rot      y-rot       z-rot       x-rot vel   y-rot vel   z-rot vel   x-rot acc   y-rot acc   z-rot acc
    22626 -1.10708E-04-2.03144E-06-1.27129E-06-1.28500E-04-9.56601E-07-1.73132E-06 8.62347E-05-7.23912E-06-3.47032E-05



 n o d a l   p r i n t   o u t   f o r   t i m e  s t e p    3201                              ( at time 1.5998399E+00 )

 nodal point  x-disp     y-disp      z-disp      x-vel       y-vel       z-vel      x-accl      y-accl      z-accl      x-coor      y-coor      z-coor
    22626 -3.60068E-04 3.34891E-02-6.54465E-02-5.85937E-04 4.05420E-02-7.97085E-02-1.38528E-03 3.26081E-02-5.72430E-02 4.65901E+00-2.81573E+01-4.50472E+01



 n o d a l   p r i n t   o u t   f o r   t i m e  s t e p    3201                              ( at time 1.5998399E+00 )

 nodal point  x-rot      y-rot       z-rot       x-rot vel   y-rot vel   z-rot vel   x-rot acc   y-rot acc   z-rot acc
    22626 -1.23310E-04-2.14895E-06-1.09901E-06-1.34754E-04-3.02548E-06 3.16268E-06-6.25451E-05-2.06909E-05 4.89449E-05



 n o d a l   p r i n t   o u t   f o r   t i m e  s t e p    3401                              ( at time 1.6998299E+00 )

 nodal point  x-disp     y-disp      z-disp      x-vel       y-vel       z-vel      x-accl      y-accl      z-accl      x-coor      y-coor      z-coor
    22626 -4.21729E-04 3.76417E-02-7.35823E-02-7.28164E-04 4.22361E-02-8.25954E-02-1.42241E-03 1.69428E-02-2.88713E-02 4.65895E+00-2.81532E+01-4.50553E+01



 n o d a l   p r i n t   o u t   f o r   t i m e  s t e p    3401                              ( at time 1.6998299E+00 )

 nodal point  x-rot      y-rot       z-rot       x-rot vel   y-rot vel   z-rot vel   x-rot acc   y-rot acc   z-rot acc
    22626 -1.37611E-04-2.15307E-06-9.09928E-07-1.47727E-04 1.68588E-06 3.98236E-06-1.29742E-04 4.71183E-05 8.19764E-06



 n o d a l   p r i n t   o u t   f o r   t i m e  s t e p    3601                              ( at time 1.7998199E+00 )

 nodal point  x-disp     y-disp      z-disp      x-vel       y-vel       z-vel      x-accl      y-accl      z-accl      x-coor      y-coor      z-coor
    22626 -4.84833E-04 4.19002E-02-8.19598E-02-5.09348E-04 4.32857E-02-8.48674E-02 2.18839E-03 1.04975E-02-2.27225E-02 4.65889E+00-2.81489E+01-4.50637E+01



 n o d a l   p r i n t   o u t   f o r   t i m e  s t e p    3601                              ( at time 1.7998199E+00 )

 nodal point  x-rot      y-rot       z-rot       x-rot vel   y-rot vel   z-rot vel   x-rot acc   y-rot acc   z-rot acc
    22626 -1.52820E-04-2.06517E-06-7.78353E-07-1.49560E-04 1.43496E-06-1.48608E-06-1.83307E-05-2.50947E-06-5.46899E-05



 n o d a l   p r i n t   o u t   f o r   t i m e  s t e p    3801                              ( at time 1.8998099E+00 )

 nodal point  x-disp     y-disp      z-disp      x-vel       y-vel       z-vel      x-accl      y-accl      z-accl      x-coor      y-coor      z-coor
    22626 -5.44115E-04 4.63776E-02-9.06358E-02-5.20084E-04 4.60769E-02-8.88755E-02-1.07376E-04 2.79145E-02-4.00851E-02 4.65883E+00-2.81445E+01-4.50724E+01



 n o d a l   p r i n t   o u t   f o r   t i m e  s t e p    3801                              ( at time 1.8998099E+00 )

 nodal point  x-rot      y-rot       z-rot       x-rot vel   y-rot vel   z-rot vel   x-rot acc   y-rot acc   z-rot acc
    22626 -1.67674E-04-1.85488E-06-6.49484E-07-1.50005E-04-1.62774E-06-5.29835E-07-4.44809E-06-3.06301E-05 9.56337E-06



 n o d a l   p r i n t   o u t   f o r   t i m e  s t e p    4001                              ( at time 1.9997999E+00 )

 nodal point  x-disp     y-disp      z-disp      x-vel       y-vel       z-vel      x-accl      y-accl      z-accl      x-coor      y-coor      z-coor
    22626 -5.94940E-04 5.10273E-02-9.97453E-02-5.44934E-04 4.71667E-02-9.31111E-02-2.48529E-04 1.08994E-02-4.23601E-02 4.65878E+00-2.81398E+01-4.50815E+01



 n o d a l   p r i n t   o u t   f o r   t i m e  s t e p    4001                              ( at time 1.9997999E+00 )

 nodal point  x-rot      y-rot       z-rot       x-rot vel   y-rot vel   z-rot vel   x-rot acc   y-rot acc   z-rot acc
    22626 -1.82765E-04-2.09096E-06-6.99642E-07-1.56059E-04-4.69019E-06-2.70370E-07-6.05427E-05-3.06276E-05 2.59491E-06



 n o d a l   p r i n t   o u t   f o r   t i m e  s t e p    4201                              ( at time 2.0997899E+00 )

 nodal point  x-disp     y-disp      z-disp      x-vel       y-vel       z-vel      x-accl      y-accl      z-accl      x-coor      y-coor      z-coor
    22626 -6.49053E-04 5.57837E-02-1.09162E-01-5.60011E-04 4.81914E-02-9.53040E-02-1.50780E-04 1.02475E-02-2.19307E-02 4.65873E+00-2.81350E+01-4.50909E+01



 n o d a l   p r i n t   o u t   f o r   t i m e  s t e p    4201                              ( at time 2.0997899E+00 )

 nodal point  x-rot      y-rot       z-rot       x-rot vel   y-rot vel   z-rot vel   x-rot acc   y-rot acc   z-rot acc
    22626 -1.97946E-04-2.48106E-06-8.63052E-07-1.49925E-04-1.53055E-06 2.01635E-06 6.13430E-05 3.15996E-05 2.28694E-05



 n o d a l   p r i n t   o u t   f o r   t i m e  s t e p    4401                              ( at time 2.1997798E+00 )

 nodal point  x-disp     y-disp      z-disp      x-vel       y-vel       z-vel      x-accl      y-accl      z-accl      x-coor      y-coor      z-coor
    22626 -7.07764E-04 6.06674E-02-1.18761E-01-4.96494E-04 4.91631E-02-9.67383E-02 6.35230E-04 9.71822E-03-1.43449E-02 4.65867E+00-2.81302E+01-4.51005E+01



 n o d a l   p r i n t   o u t   f o r   t i m e  s t e p    4401                              ( at time 2.1997798E+00 )

 nodal point  x-rot      y-rot       z-rot       x-rot vel   y-rot vel   z-rot vel   x-rot acc   y-rot acc   z-rot acc
    22626 -2.13316E-04-2.58778E-06-8.60864E-07-1.59331E-04-1.55712E-06-9.68798E-07-9.40718E-05-2.65791E-07-2.98544E-05



 n o d a l   p r i n t   o u t   f o r   t i m e  s t e p    4601                              ( at time 2.2997698E+00 )

 nodal point  x-disp     y-disp      z-disp      x-vel       y-vel       z-vel      x-accl      y-accl      z-accl      x-coor      y-coor      z-coor
    22626 -7.62931E-04 6.56144E-02-1.28510E-01-6.45555E-04 5.01848E-02-9.87390E-02-1.49076E-03 1.02177E-02-2.00090E-02 4.65861E+00-2.81252E+01-4.51102E+01



 n o d a l   p r i n t   o u t   f o r   t i m e  s t e p    4601                              ( at time 2.2997698E+00 )

 nodal point  x-rot      y-rot       z-rot       x-rot vel   y-rot vel   z-rot vel   x-rot acc   y-rot acc   z-rot acc
    22626 -2.29836E-04-2.52130E-06-8.69082E-07-1.61389E-04 8.92766E-07-1.02444E-06-2.05796E-05 2.45013E-05-5.56449E-07



 n o d a l   p r i n t   o u t   f o r   t i m e  s t e p    4801                              ( at time 2.3997598E+00 )

 nodal point  x-disp     y-disp      z-disp      x-vel       y-vel       z-vel      x-accl      y-accl      z-accl      x-coor      y-coor      z-coor
    22626 -8.37399E-04 7.07392E-02-1.38609E-01-7.64406E-04 5.20316E-02-1.03265E-01-1.18863E-03 1.84701E-02-4.52658E-02 4.65854E+00-2.81201E+01-4.51203E+01



 n o d a l   p r i n t   o u t   f o r   t i m e  s t e p    4801                              ( at time 2.3997598E+00 )

 nodal point  x-rot      y-rot       z-rot       x-rot vel   y-rot vel   z-rot vel   x-rot acc   y-rot acc   z-rot acc
    22626 -2.45589E-04-2.51395E-06-5.97784E-07-1.55200E-04-4.45432E-08 4.23980E-06 6.18960E-05-9.37404E-06 5.26476E-05



 n o d a l   p r i n t   o u t   f o r   t i m e  s t e p    5001                              ( at time 2.4997498E+00 )

 nodal point  x-disp     y-disp      z-disp      x-vel       y-vel       z-vel      x-accl      y-accl      z-accl      x-coor      y-coor      z-coor
    22626 -9.18568E-04 7.60403E-02-1.49107E-01-9.26035E-04 5.34342E-02-1.05955E-01-1.61645E-03 1.40271E-02-2.68983E-02 4.65846E+00-2.81148E+01-4.51308E+01



 n o d a l   p r i n t   o u t   f o r   t i m e  s t e p    5001                              ( at time 2.4997498E+00 )

 nodal point  x-rot      y-rot       z-rot       x-rot vel   y-rot vel   z-rot vel   x-rot acc   y-rot acc   z-rot acc
    22626 -2.61159E-04-2.39302E-06-3.35289E-07-1.54933E-04 1.77299E-06 4.37420E-06 2.66763E-06 1.81772E-05 1.34414E-06



 n o d a l   p r i n t   o u t   f o r   t i m e  s t e p    5201                              ( at time 2.5997398E+00 )

 nodal point  x-disp     y-disp      z-disp      x-vel       y-vel       z-vel      x-accl      y-accl      z-accl      x-coor      y-coor      z-coor
    22626 -1.00935E-03 8.13923E-02-1.59710E-01-9.91747E-04 5.34918E-02-1.06028E-01-6.57186E-04 5.75988E-04-7.29709E-04 4.65837E+00-2.81094E+01-4.51414E+01



 n o d a l   p r i n t   o u t   f o r   t i m e  s t e p    5201                              ( at time 2.5997398E+00 )

 nodal point  x-rot      y-rot       z-rot       x-rot vel   y-rot vel   z-rot vel   x-rot acc   y-rot acc   z-rot acc
    22626 -2.76668E-04-2.06639E-06 5.62486E-08-1.51371E-04 5.06391E-06 4.87555E-06 3.56212E-05 3.29125E-05 5.01401E-06



 n o d a l   p r i n t   o u t   f o r   t i m e  s t e p    5401                              ( at time 2.6997298E+00 )

 nodal point  x-disp     y-disp      z-disp      x-vel       y-vel       z-vel      x-accl      y-accl      z-accl      x-coor      y-coor      z-coor
    22626 -1.10738E-03 8.67306E-02-1.70315E-01-8.09989E-04 5.36427E-02-1.06259E-01 1.81776E-03 1.50904E-03-2.30901E-03 4.65827E+00-2.81041E+01-4.51520E+01



 n o d a l   p r i n t   o u t   f o r   t i m e  s t e p    5401                              ( at time 2.6997298E+00 )

 nodal point  x-rot      y-rot       z-rot       x-rot vel   y-rot vel   z-rot vel   x-rot acc   y-rot acc   z-rot acc
    22626 -2.92379E-04-1.62897E-06 5.78034E-07-1.63386E-04 5.42020E-06 3.49441E-06-1.20154E-04 3.56322E-06-1.38128E-05



 n o d a l   p r i n t   o u t   f o r   t i m e  s t e p    5601                              ( at time 2.7997198E+00 )

 nodal point  x-disp     y-disp      z-disp      x-vel       y-vel       z-vel      x-accl      y-accl      z-accl      x-coor      y-coor      z-coor
    22626 -1.19373E-03 9.21374E-02-1.80987E-01-8.71300E-04 5.44773E-02-1.07528E-01-6.13173E-04 8.34687E-03-1.26912E-02 4.65818E+00-2.80987E+01-4.51627E+01



 n o d a l   p r i n t   o u t   f o r   t i m e  s t e p    5601                              ( at time 2.7997198E+00 )

 nodal point  x-rot      y-rot       z-rot       x-rot vel   y-rot vel   z-rot vel   x-rot acc   y-rot acc   z-rot acc
    22626 -3.07929E-04-1.11560E-06 9.93365E-07-1.46422E-04 3.14692E-06 4.53133E-06 1.69656E-04-2.27351E-05 1.03703E-05



 n o d a l   p r i n t   o u t   f o r   t i m e  s t e p    5801                              ( at time 2.8997098E+00 )

 nodal point  x-disp     y-disp      z-disp      x-vel       y-vel       z-vel      x-accl      y-accl      z-accl      x-coor      y-coor      z-coor
    22626 -1.27198E-03 9.75900E-02-1.91841E-01-6.87393E-04 5.46213E-02-1.09534E-01 1.83926E-03 1.44075E-03-2.00648E-02 4.65810E+00-2.80932E+01-4.51736E+01



 n o d a l   p r i n t   o u t   f o r   t i m e  s t e p    5801                              ( at time 2.8997098E+00 )

 nodal point  x-rot      y-rot       z-rot       x-rot vel   y-rot vel   z-rot vel   x-rot acc   y-rot acc   z-rot acc
    22626 -3.22077E-04-8.95192E-07 1.32740E-06-1.43022E-04 8.35149E-07 4.24998E-06 3.40006E-05-2.31200E-05-2.81378E-06



 n o d a l   p r i n t   o u t   f o r   t i m e  s t e p    6001                              ( at time 2.9996998E+00 )

 nodal point  x-disp     y-disp      z-disp      x-vel       y-vel       z-vel      x-accl      y-accl      z-accl      x-coor      y-coor      z-coor
    22626 -1.34928E-03 1.03054E-01-2.02817E-01-6.62179E-04 5.47487E-02-1.09565E-01 2.52164E-04 1.27343E-03-3.14744E-04 4.65803E+00-2.80878E+01-4.51845E+01



 n o d a l   p r i n t   o u t   f o r   t i m e  s t e p    6001                              ( at time 2.9996998E+00 )

 nodal point  x-rot      y-rot       z-rot       x-rot vel   y-rot vel   z-rot vel   x-rot acc   y-rot acc   z-rot acc
    22626 -3.37241E-04-8.13878E-07 1.55571E-06-1.57188E-04 7.32284E-07 2.70547E-06-1.41677E-04-1.02876E-06-1.54467E-05



 n o d a l   p r i n t   o u t   f o r   t i m e  s t e p    6201                              ( at time 3.0996898E+00 )

 nodal point  x-disp     y-disp      z-disp      x-vel       y-vel       z-vel      x-accl      y-accl      z-accl      x-coor      y-coor      z-coor
    22626 -1.41601E-03 1.08578E-01-2.13736E-01-7.49574E-04 5.59222E-02-1.09231E-01-8.74038E-04 1.17363E-02 3.34237E-03 4.65796E+00-2.80823E+01-4.51955E+01



 n o d a l   p r i n t   o u t   f o r   t i m e  s t e p    6201                              ( at time 3.0996898E+00 )

 nodal point  x-rot      y-rot       z-rot       x-rot vel   y-rot vel   z-rot vel   x-rot acc   y-rot acc   z-rot acc
    22626 -3.53281E-04-7.49919E-07 1.72863E-06-1.64427E-04-5.25357E-08 3.18891E-06-7.23922E-05-7.84899E-06 4.83487E-06



 n o d a l   p r i n t   o u t   f o r   t i m e  s t e p    6401                              ( at time 3.1996798E+00 )

 nodal point  x-disp     y-disp      z-disp      x-vel       y-vel       z-vel      x-accl      y-accl      z-accl      x-coor      y-coor      z-coor
    22626 -1.47934E-03 1.14273E-01-2.24755E-01-5.61420E-04 5.82887E-02-1.11414E-01 1.88173E-03 2.36678E-02-2.18341E-02 4.65790E+00-2.80766E+01-4.52065E+01



 n o d a l   p r i n t   o u t   f o r   t i m e  s t e p    6401                              ( at time 3.1996798E+00 )

 nodal point  x-rot      y-rot       z-rot       x-rot vel   y-rot vel   z-rot vel   x-rot acc   y-rot acc   z-rot acc
    22626 -3.70007E-04-5.89609E-07 1.83038E-06-1.68329E-04 3.31061E-06 2.07920E-06-3.90252E-05 3.36347E-05-1.10982E-05



 n o d a l   p r i n t   o u t   f o r   t i m e  s t e p    6601                              ( at time 3.2996698E+00 )

 nodal point  x-disp     y-disp      z-disp      x-vel       y-vel       z-vel      x-accl      y-accl      z-accl      x-coor      y-coor      z-coor
    22626 -1.54419E-03 1.20250E-01-2.36025E-01-7.41642E-04 6.13333E-02-1.13693E-01-1.80241E-03 3.04485E-02-2.27850E-02 4.65783E+00-2.80706E+01-4.52177E+01



 n o d a l   p r i n t   o u t   f o r   t i m e  s t e p    6601                              ( at time 3.2996698E+00 )

 nodal point  x-rot      y-rot       z-rot       x-rot vel   y-rot vel   z-rot vel   x-rot acc   y-rot acc   z-rot acc
    22626 -3.87432E-04-3.13722E-07 2.13567E-06-1.81576E-04 2.90163E-06 1.15772E-06-1.32487E-04-4.09020E-06-9.21572E-06



 n o d a l   p r i n t   o u t   f o r   t i m e  s t e p    6801                              ( at time 3.3996598E+00 )

 nodal point  x-disp     y-disp      z-disp      x-vel       y-vel       z-vel      x-accl      y-accl      z-accl      x-coor      y-coor      z-coor
    22626 -1.63875E-03 1.26537E-01-2.47422E-01-1.18536E-03 6.42856E-02-1.14119E-01-4.43766E-03 2.95262E-02-4.26178E-03 4.65774E+00-2.80643E+01-4.52291E+01



 n o d a l   p r i n t   o u t   f o r   t i m e  s t e p    6801                              ( at time 3.3996598E+00 )

 nodal point  x-rot      y-rot       z-rot       x-rot vel   y-rot vel   z-rot vel   x-rot acc   y-rot acc   z-rot acc
    22626 -4.06516E-04-3.42530E-07 2.06423E-06-2.03307E-04 4.84432E-08 9.75199E-07-2.17328E-04-2.85347E-05-1.82542E-06



 n o d a l   p r i n t   o u t   f o r   t i m e  s t e p    7001                              ( at time 3.4996498E+00 )

 nodal point  x-disp     y-disp      z-disp      x-vel       y-vel       z-vel      x-accl      y-accl      z-accl      x-coor      y-coor      z-coor
    22626 -1.75520E-03 1.33091E-01-2.58783E-01-1.12745E-03 6.72409E-02-1.13204E-01 5.79160E-04 2.95558E-02 9.14838E-03 4.65762E+00-2.80577E+01-4.52405E+01



 n o d a l   p r i n t   o u t   f o r   t i m e  s t e p    7001                              ( at time 3.4996498E+00 )

 nodal point  x-rot      y-rot       z-rot       x-rot vel   y-rot vel   z-rot vel   x-rot acc   y-rot acc   z-rot acc
    22626 -4.28292E-04-2.92513E-07 1.80314E-06-2.33613E-04 2.27085E-06-2.65835E-06-3.03092E-04 2.22263E-05-3.63392E-05



 n o d a l   p r i n t   o u t   f o r   t i m e  s t e p    7201                              ( at time 3.5996397E+00 )

 nodal point  x-disp     y-disp      z-disp      x-vel       y-vel       z-vel      x-accl      y-accl      z-accl      x-coor      y-coor      z-coor
    22626 -1.86387E-03 1.40019E-01-2.70043E-01-1.09942E-03 7.09230E-02-1.12476E-01 2.80339E-04 3.68253E-02 7.28405E-03 4.65751E+00-2.80508E+01-4.52518E+01



 n o d a l   p r i n t   o u t   f o r   t i m e  s t e p    7201                              ( at time 3.5996397E+00 )

 nodal point  x-rot      y-rot       z-rot       x-rot vel   y-rot vel   z-rot vel   x-rot acc   y-rot acc   z-rot acc
    22626 -4.53027E-04 1.27136E-07 1.54873E-06-2.66056E-04 2.61796E-06-5.23259E-06-3.24468E-04 3.47141E-06-2.57450E-05



 n o d a l   p r i n t   o u t   f o r   t i m e  s t e p    7401                              ( at time 3.6996297E+00 )

 nodal point  x-disp     y-disp      z-disp      x-vel       y-vel       z-vel      x-accl      y-accl      z-accl      x-coor      y-coor      z-coor
    22626 -1.96691E-03 1.47348E-01-2.81296E-01-1.01532E-03 7.57133E-02-1.12809E-01 8.41071E-04 4.79074E-02-3.33916E-03 4.65741E+00-2.80435E+01-4.52630E+01



 n o d a l   p r i n t   o u t   f o r   t i m e  s t e p    7401                              ( at time 3.6996297E+00 )

 nodal point  x-rot      y-rot       z-rot       x-rot vel   y-rot vel   z-rot vel   x-rot acc   y-rot acc   z-rot acc
    22626 -4.81248E-04 3.86051E-07 1.41227E-06-2.99381E-04-9.55423E-07-5.06130E-06-3.33277E-04-3.57373E-05 1.71308E-06



 n o d a l   p r i n t   o u t   f o r   t i m e  s t e p    7601                              ( at time 3.7996197E+00 )

 nodal point  x-disp     y-disp      z-disp      x-vel       y-vel       z-vel      x-accl      y-accl      z-accl      x-coor      y-coor      z-coor
    22626 -2.09212E-03 1.55188E-01-2.92585E-01-1.52198E-03 8.10780E-02-1.12572E-01-5.06709E-03 5.36526E-02 2.37638E-03 4.65728E+00-2.80356E+01-4.52743E+01



 n o d a l   p r i n t   o u t   f o r   t i m e  s t e p    7601                              ( at time 3.7996197E+00 )

 nodal point  x-rot      y-rot       z-rot       x-rot vel   y-rot vel   z-rot vel   x-rot acc   y-rot acc   z-rot acc
    22626 -5.13092E-04-1.99252E-07 2.74296E-07-3.46893E-04-8.74356E-06-1.99382E-05-4.75173E-04-7.78892E-05-1.48784E-04



 n o d a l   p r i n t   o u t   f o r   t i m e  s t e p    7801                              ( at time 3.8996097E+00 )

 nodal point  x-disp     y-disp      z-disp      x-vel       y-vel       z-vel      x-accl      y-accl      z-accl      x-coor      y-coor      z-coor
    22626 -2.24629E-03 1.63591E-01-3.03787E-01-1.37330E-03 8.71888E-02-1.11318E-01 1.48701E-03 6.11138E-02 1.25368E-02 4.65713E+00-2.80272E+01-4.52855E+01



 n o d a l   p r i n t   o u t   f o r   t i m e  s t e p    7801                              ( at time 3.8996097E+00 )

 nodal point  x-rot      y-rot       z-rot       x-rot vel   y-rot vel   z-rot vel   x-rot acc   y-rot acc   z-rot acc
    22626 -5.50512E-04-1.07267E-06-1.58923E-06-4.12265E-04-5.12977E-06-1.50947E-05-6.53779E-04 3.61415E-05 4.84391E-05



 n o d a l   p r i n t   o u t   f o r   t i m e  s t e p    8001                              ( at time 3.9995997E+00 )

 nodal point  x-disp     y-disp      z-disp      x-vel       y-vel       z-vel      x-accl      y-accl      z-accl      x-coor      y-coor      z-coor
    22626 -2.38472E-03 1.72626E-01-3.14815E-01-1.56606E-03 9.38895E-02-1.09535E-01-1.92780E-03 6.70136E-02 1.78315E-02 4.65699E+00-2.80182E+01-4.52965E+01



 n o d a l   p r i n t   o u t   f o r   t i m e  s t e p    8001                              ( at time 3.9995997E+00 )

 nodal point  x-rot      y-rot       z-rot       x-rot vel   y-rot vel   z-rot vel   x-rot acc   y-rot acc   z-rot acc
    22626 -5.94063E-04-2.42204E-06-4.25706E-06-4.65350E-04-1.82480E-05-3.29504E-05-5.30910E-04-1.31196E-04-1.78575E-04



 n o d a l   p r i n t   o u t   f o r   t i m e  s t e p    8201                              ( at time 4.0995897E+00 )

 nodal point  x-disp     y-disp      z-disp      x-vel       y-vel       z-vel      x-accl      y-accl      z-accl      x-coor      y-coor      z-coor
    22626 -2.59447E-03 1.82416E-01-3.25750E-01-2.43420E-03 1.01931E-01-1.09512E-01-8.68233E-03 8.04255E-02 2.31661E-04 4.65678E+00-2.80084E+01-4.53075E+01



 n o d a l   p r i n t   o u t   f o r   t i m e  s t e p    8201                              ( at time 4.0995897E+00 )

 nodal point  x-rot      y-rot       z-rot       x-rot vel   y-rot vel   z-rot vel   x-rot acc   y-rot acc   z-rot acc
    22626 -6.42687E-04-4.44974E-06-8.21905E-06-5.20471E-04-2.25098E-05-4.26720E-05-5.51263E-04-4.26221E-05-9.72260E-05



 n o d a l   p r i n t   o u t   f o r   t i m e  s t e p    8401                              ( at time 4.1995797E+00 )

 nodal point  x-disp     y-disp      z-disp      x-vel       y-vel       z-vel      x-accl      y-accl      z-accl      x-coor      y-coor      z-coor
    22626 -2.83943E-03 1.93054E-01-3.36695E-01-2.61874E-03 1.11056E-01-1.08974E-01-1.84559E-03 9.12527E-02 5.37934E-03 4.65654E+00-2.79978E+01-4.53184E+01



 n o d a l   p r i n t   o u t   f o r   t i m e  s t e p    8401                              ( at time 4.1995797E+00 )

 nodal point  x-rot      y-rot       z-rot       x-rot vel   y-rot vel   z-rot vel   x-rot acc   y-rot acc   z-rot acc
    22626 -6.97949E-04-6.89403E-06-1.28780E-05-5.91661E-04-2.81352E-05-5.32900E-05-7.11969E-04-5.62595E-05-1.06191E-04



 n o d a l   p r i n t   o u t   f o r   t i m e  s t e p    8601                              ( at time 4.2995697E+00 )

 nodal point  x-disp     y-disp      z-disp      x-vel       y-vel       z-vel      x-accl      y-accl      z-accl      x-coor      y-coor      z-coor
    22626 -3.12291E-03 2.04648E-01-3.47542E-01-3.15422E-03 1.20849E-01-1.07663E-01-5.35533E-03 9.79431E-02 1.31098E-02 4.65625E+00-2.79862E+01-4.53293E+01



 n o d a l   p r i n t   o u t   f o r   t i m e  s t e p    8601                              ( at time 4.2995697E+00 )

 nodal point  x-rot      y-rot       z-rot       x-rot vel   y-rot vel   z-rot vel   x-rot acc   y-rot acc   z-rot acc
    22626 -7.60663E-04-9.50956E-06-1.82366E-05-6.68898E-04-2.56013E-05-5.77380E-05-7.72447E-04 2.53417E-05-4.44837E-05



 n o d a l   p r i n t   o u t   f o r   t i m e  s t e p    8801                              ( at time 4.3995597E+00 )

 nodal point  x-disp     y-disp      z-disp      x-vel       y-vel       z-vel      x-accl      y-accl      z-accl      x-coor      y-coor      z-coor
    22626 -3.45064E-03 2.17189E-01-3.58186E-01-3.07072E-03 1.30419E-01-1.05417E-01 8.35101E-04 9.57155E-02 2.24702E-02 4.65592E+00-2.79736E+01-4.53399E+01



 n o d a l   p r i n t   o u t   f o r   t i m e  s t e p    8801                              ( at time 4.3995597E+00 )

 nodal point  x-rot      y-rot       z-rot       x-rot vel   y-rot vel   z-rot vel   x-rot acc   y-rot acc   z-rot acc
    22626 -8.31325E-04-1.23091E-05-2.38478E-05-7.53102E-04-3.18029E-05-5.84975E-05-8.42127E-04-6.20229E-05-7.59621E-06



 n o d a l   p r i n t   o u t   f o r   t i m e  s t e p    9001                              ( at time 4.4995497E+00 )

 nodal point  x-disp     y-disp      z-disp      x-vel       y-vel       z-vel      x-accl      y-accl      z-accl      x-coor      y-coor      z-coor
    22626 -3.79679E-03 2.30835E-01-3.68668E-01-3.73125E-03 1.42576E-01-1.04662E-01-6.60589E-03 1.21580E-01 7.54496E-03 4.65558E+00-2.79600E+01-4.53504E+01



 n o d a l   p r i n t   o u t   f o r   t i m e  s t e p    9001                              ( at time 4.4995497E+00 )

 nodal point  x-rot      y-rot       z-rot       x-rot vel   y-rot vel   z-rot vel   x-rot acc   y-rot acc   z-rot acc
    22626 -9.11279E-04-1.53400E-05-2.99854E-05-8.47815E-04-2.96090E-05-6.45107E-05-9.47224E-04 2.19416E-05-6.01376E-05



 n o d a l   p r i n t   o u t   f o r   t i m e  s t e p    9201                              ( at time 4.5995397E+00 )

 nodal point  x-disp     y-disp      z-disp      x-vel       y-vel       z-vel      x-accl      y-accl      z-accl      x-coor      y-coor      z-coor
    22626 -4.16271E-03 2.45714E-01-3.79123E-01-3.68935E-03 1.55228E-01-1.04331E-01 4.18982E-04 1.26533E-01 3.31078E-03 4.65521E+00-2.79451E+01-4.53608E+01



 n o d a l   p r i n t   o u t   f o r   t i m e  s t e p    9201                              ( at time 4.5995397E+00 )

 nodal point  x-rot      y-rot       z-rot       x-rot vel   y-rot vel   z-rot vel   x-rot acc   y-rot acc   z-rot acc
    22626 -1.00033E-03-1.83361E-05-3.68033E-05-9.37851E-04-3.64799E-05-6.89692E-05-9.00451E-04-6.87164E-05-4.45898E-05



 n o d a l   p r i n t   o u t   f o r   t i m e  s t e p    9401                              ( at time 4.6995297E+00 )

 nodal point  x-disp     y-disp      z-disp      x-vel       y-vel       z-vel      x-accl      y-accl      z-accl      x-coor      y-coor      z-coor
    22626 -4.55582E-03 2.61892E-01-3.89504E-01-4.27073E-03 1.68504E-01-1.03015E-01-5.81435E-03 1.32770E-01 1.31588E-02 4.65482E+00-2.79289E+01-4.53712E+01



 n o d a l   p r i n t   o u t   f o r   t i m e  s t e p    9401                              ( at time 4.6995297E+00 )

 nodal point  x-rot      y-rot       z-rot       x-rot vel   y-rot vel   z-rot vel   x-rot acc   y-rot acc   z-rot acc
    22626 -1.09962E-03-2.24541E-05-4.42044E-05-1.05272E-03-4.29124E-05-7.78038E-05-1.14881E-03-6.43315E-05-8.83545E-05



 n o d a l   p r i n t   o u t   f o r   t i m e  s t e p    9601                              ( at time 4.7995197E+00 )

 nodal point  x-disp     y-disp      z-disp      x-vel       y-vel       z-vel      x-accl      y-accl      z-accl      x-coor      y-coor      z-coor
    22626 -4.97547E-03 2.79419E-01-3.99709E-01-3.91758E-03 1.82308E-01-1.00966E-01 3.53184E-03 1.38056E-01 2.04945E-02 4.65440E+00-2.79114E+01-4.53814E+01



 n o d a l   p r i n t   o u t   f o r   t i m e  s t e p    9601                              ( at time 4.7995197E+00 )

 nodal point  x-rot      y-rot       z-rot       x-rot vel   y-rot vel   z-rot vel   x-rot acc   y-rot acc   z-rot acc
    22626 -1.21045E-03-2.70423E-05-5.26468E-05-1.16118E-03-4.08963E-05-8.47055E-05-1.08467E-03 2.01634E-05-6.90247E-05



 n o d a l   p r i n t   o u t   f o r   t i m e  s t e p    9801                              ( at time 4.8995097E+00 )

 nodal point  x-disp     y-disp      z-disp      x-vel       y-vel       z-vel      x-accl      y-accl      z-accl      x-coor      y-coor      z-coor
    22626 -5.41197E-03 2.98402E-01-4.09729E-01-4.89955E-03 1.97412E-01-9.93502E-02-9.82066E-03 1.51057E-01 1.61618E-02 4.65396E+00-2.78924E+01-4.53914E+01



 n o d a l   p r i n t   o u t   f o r   t i m e  s t e p    9801                              ( at time 4.8995097E+00 )

 nodal point  x-rot      y-rot       z-rot       x-rot vel   y-rot vel   z-rot vel   x-rot acc   y-rot acc   z-rot acc
    22626 -1.33199E-03-3.16921E-05-6.15352E-05-1.26753E-03-5.33299E-05-9.39600E-05-1.06359E-03-1.24348E-04-9.25538E-05



 n o d a l   p r i n t   o u t   f o r   t i m e  s t e p   10001                              ( at time 4.9994997E+00 )

 nodal point  x-disp     y-disp      z-disp      x-vel       y-vel       z-vel      x-accl      y-accl      z-accl      x-coor      y-coor      z-coor
    22626 -5.92275E-03 3.18860E-01-4.19592E-01-5.33119E-03 2.12285E-01-9.81645E-02-4.31686E-03 1.48739E-01 1.18581E-02 4.65345E+00-2.78720E+01-4.54013E+01



 n o d a l   p r i n t   o u t   f o r   t i m e  s t e p   10001                              ( at time 4.9994997E+00 )

 nodal point  x-rot      y-rot       z-rot       x-rot vel   y-rot vel   z-rot vel   x-rot acc   y-rot acc   z-rot acc
    22626 -1.46475E-03-3.75641E-05-7.19193E-05-1.38818E-03-6.22368E-05-1.06841E-04-1.20664E-03-8.90783E-05-1.28822E-04



 n o d a l   p r i n t   o u t   f o r   t i m e  s t e p   10202                              ( at time 5.0999896E+00 )

 nodal point  x-disp     y-disp      z-disp      x-vel       y-vel       z-vel      x-accl      y-accl      z-accl      x-coor      y-coor      z-coor
    22626 -6.48302E-03 3.40997E-01-4.29456E-01-6.04264E-03 2.28137E-01-9.76833E-02-7.07987E-03 1.57751E-01 4.78873E-03 4.65289E+00-2.78498E+01-4.54112E+01



 n o d a l   p r i n t   o u t   f o r   t i m e  s t e p   10202                              ( at time 5.0999896E+00 )

 nodal point  x-rot      y-rot       z-rot       x-rot vel   y-rot vel   z-rot vel   x-rot acc   y-rot acc   z-rot acc
    22626 -1.61028E-03-4.33769E-05-8.28462E-05-1.50816E-03-6.03295E-05-1.10606E-04-1.19398E-03 1.89801E-05-3.74661E-05



 n o d a l   p r i n t   o u t   f o r   t i m e  s t e p   10402                              ( at time 5.1999796E+00 )

 nodal point  x-disp     y-disp      z-disp      x-vel       y-vel       z-vel      x-accl      y-accl      z-accl      x-coor      y-coor      z-coor
    22626 -7.16263E-03 3.64550E-01-4.39054E-01-7.32877E-03 2.43002E-01-9.41660E-02-1.28624E-02 1.48660E-01 3.51759E-02 4.65221E+00-2.78263E+01-4.54208E+01



 n o d a l   p r i n t   o u t   f o r   t i m e  s t e p   10402                              ( at time 5.1999796E+00 )

 nodal point  x-rot      y-rot       z-rot       x-rot vel   y-rot vel   z-rot vel   x-rot acc   y-rot acc   z-rot acc
    22626 -1.76715E-03-5.05953E-05-9.49518E-05-1.62985E-03-7.65288E-05-1.32474E-04-1.21703E-03-1.62008E-04-2.18706E-04



 n o d a l   p r i n t   o u t   f o r   t i m e  s t e p   10602                              ( at time 5.2999696E+00 )

 nodal point  x-disp     y-disp      z-disp      x-vel       y-vel       z-vel      x-accl      y-accl      z-accl      x-coor      y-coor      z-coor
    22626 -7.91378E-03 3.89641E-01-4.48399E-01-7.48185E-03 2.58905E-01-9.27189E-02-1.53099E-03 1.59054E-01 1.44724E-02 4.65146E+00-2.78012E+01-4.54301E+01



 n o d a l   p r i n t   o u t   f o r   t i m e  s t e p   10602                              ( at time 5.2999696E+00 )

 nodal point  x-rot      y-rot       z-rot       x-rot vel   y-rot vel   z-rot vel   x-rot acc   y-rot acc   z-rot acc
    22626 -1.93627E-03-5.78893E-05-1.08197E-04-1.74614E-03-6.64740E-05-1.30602E-04-1.16301E-03 1.00557E-04 1.87216E-05



 n o d a l   p r i n t   o u t   f o r   t i m e  s t e p   10802                              ( at time 5.3999596E+00 )

 nodal point  x-disp     y-disp      z-disp      x-vel       y-vel       z-vel      x-accl      y-accl      z-accl      x-coor      y-coor      z-coor
    22626 -8.68447E-03 4.16358E-01-4.57532E-01-8.28728E-03 2.75282E-01-8.99244E-02-8.05508E-03 1.63787E-01 2.79482E-02 4.65069E+00-2.77745E+01-4.54393E+01



 n o d a l   p r i n t   o u t   f o r   t i m e  s t e p   10802                              ( at time 5.3999596E+00 )

 nodal point  x-rot      y-rot       z-rot       x-rot vel   y-rot vel   z-rot vel   x-rot acc   y-rot acc   z-rot acc
    22626 -2.11747E-03-6.50779E-05-1.20960E-04-1.87479E-03-8.01487E-05-1.30829E-04-1.28657E-03-1.36761E-04-2.26553E-06



 n o d a l   p r i n t   o u t   f o r   t i m e  s t e p   11002                              ( at time 5.4999496E+00 )

 nodal point  x-disp     y-disp      z-disp      x-vel       y-vel       z-vel      x-accl      y-accl      z-accl      x-coor      y-coor      z-coor
    22626 -9.54914E-03 4.44653E-01-4.66400E-01-8.82483E-03 2.90727E-01-8.74893E-02-5.37612E-03 1.54462E-01 2.43533E-02 4.64983E+00-2.77462E+01-4.54481E+01



 n o d a l   p r i n t   o u t   f o r   t i m e  s t e p   11002                              ( at time 5.4999496E+00 )

 nodal point  x-rot      y-rot       z-rot       x-rot vel   y-rot vel   z-rot vel   x-rot acc   y-rot acc   z-rot acc
    22626 -2.31131E-03-7.34492E-05-1.35063E-04-1.99837E-03-9.19088E-05-1.51640E-04-1.23594E-03-1.17613E-04-2.08129E-04



 n o d a l   p r i n t   o u t   f o r   t i m e  s t e p   11202                              ( at time 5.5999396E+00 )

 nodal point  x-disp     y-disp      z-disp      x-vel       y-vel       z-vel      x-accl      y-accl      z-accl      x-coor      y-coor      z-coor
    22626 -1.04608E-02 4.74576E-01-4.74966E-01-9.69863E-03 3.07819E-01-8.34065E-02-8.73887E-03 1.70933E-01 4.08320E-02 4.64891E+00-2.77163E+01-4.54567E+01



 n o d a l   p r i n t   o u t   f o r   t i m e  s t e p   11202                              ( at time 5.5999396E+00 )

 nodal point  x-rot      y-rot       z-rot       x-rot vel   y-rot vel   z-rot vel   x-rot acc   y-rot acc   z-rot acc
    22626 -2.51783E-03-8.26894E-05-1.50075E-04-2.13009E-03-9.32782E-05-1.49151E-04-1.31734E-03-1.36945E-05 2.48885E-05



 n o d a l   p r i n t   o u t   f o r   t i m e  s t e p   11402                              ( at time 5.6999296E+00 )

 nodal point  x-disp     y-disp      z-disp      x-vel       y-vel       z-vel      x-accl      y-accl      z-accl      x-coor      y-coor      z-coor
    22626 -1.14403E-02 5.06127E-01-4.83054E-01-9.38917E-03 3.23148E-01-7.83744E-02 3.09494E-03 1.53304E-01 5.03257E-02 4.64793E+00-2.76847E+01-4.54648E+01



 n o d a l   p r i n t   o u t   f o r   t i m e  s t e p   11402                              ( at time 5.6999296E+00 )

 nodal point  x-rot      y-rot       z-rot       x-rot vel   y-rot vel   z-rot vel   x-rot acc   y-rot acc   z-rot acc
    22626 -2.73758E-03-9.21339E-05-1.65856E-04-2.25722E-03-9.37977E-05-1.55931E-04-1.27147E-03-5.19575E-06-6.78013E-05



 n o d a l   p r i n t   o u t   f o r   t i m e  s t e p   11602                              ( at time 5.7999195E+00 )

 nodal point  x-disp     y-disp      z-disp      x-vel       y-vel       z-vel      x-accl      y-accl      z-accl      x-coor      y-coor      z-coor
    22626 -1.23912E-02 5.39278E-01-4.90627E-01-9.51573E-03 3.39822E-01-7.33223E-02-1.26573E-03 1.66764E-01 5.05262E-02 4.64698E+00-2.76516E+01-4.54723E+01



 n o d a l   p r i n t   o u t   f o r   t i m e  s t e p   11602                              ( at time 5.7999195E+00 )

 nodal point  x-rot      y-rot       z-rot       x-rot vel   y-rot vel   z-rot vel   x-rot acc   y-rot acc   z-rot acc
    22626 -2.96951E-03-1.01354E-04-1.80665E-04-2.38038E-03-9.08360E-05-1.47950E-04-1.23171E-03 2.96199E-05 7.98130E-05



 n o d a l   p r i n t   o u t   f o r   t i m e  s t e p   11802                              ( at time 5.8999095E+00 )

 nodal point  x-disp     y-disp      z-disp      x-vel       y-vel       z-vel      x-accl      y-accl      z-accl      x-coor      y-coor      z-coor
    22626 -1.34137E-02 5.74133E-01-4.97789E-01-1.11767E-02 3.57072E-01-6.97423E-02-1.66110E-02 1.72520E-01 3.58042E-02 4.64596E+00-2.76167E+01-4.54795E+01



 n o d a l   p r i n t   o u t   f o r   t i m e  s t e p   11802                              ( at time 5.8999095E+00 )

 nodal point  x-rot      y-rot       z-rot       x-rot vel   y-rot vel   z-rot vel   x-rot acc   y-rot acc   z-rot acc
    22626 -3.21508E-03-1.11627E-04-1.96456E-04-2.52772E-03-1.14846E-04-1.74000E-04-1.47355E-03-2.40129E-04-2.60523E-04



 n o d a l   p r i n t   o u t   f o r   t i m e  s t e p   12002                              ( at time 5.9998995E+00 )

 nodal point  x-disp     y-disp      z-disp      x-vel       y-vel       z-vel      x-accl      y-accl      z-accl      x-coor      y-coor      z-coor
    22626 -1.45555E-02 6.10636E-01-5.04507E-01-1.16575E-02 3.73269E-01-6.42511E-02-4.80880E-03 1.61985E-01 5.49173E-02 4.64482E+00-2.75802E+01-4.54862E+01



 n o d a l   p r i n t   o u t   f o r   t i m e  s t e p   12002                              ( at time 5.9998995E+00 )

 nodal point  x-rot      y-rot       z-rot       x-rot vel   y-rot vel   z-rot vel   x-rot acc   y-rot acc   z-rot acc
    22626 -3.47424E-03-1.22326E-04-2.13578E-04-2.65733E-03-9.72869E-05-1.60046E-04-1.29616E-03 1.75614E-04 1.39547E-04



 n o d a l   p r i n t   o u t   f o r   t i m e  s t e p   12202                              ( at time 6.0998895E+00 )

 nodal point  x-disp     y-disp      z-disp      x-vel       y-vel       z-vel      x-accl      y-accl      z-accl      x-coor      y-coor      z-coor
    22626 -1.56680E-02 6.48831E-01-5.10621E-01-1.06473E-02 3.90623E-01-5.84140E-02 1.01028E-02 1.73555E-01 5.83767E-02 4.64371E+00-2.75420E+01-4.54923E+01



 n o d a l   p r i n t   o u t   f o r   t i m e  s t e p   12202                              ( at time 6.0998895E+00 )

 nodal point  x-rot      y-rot       z-rot       x-rot vel   y-rot vel   z-rot vel   x-rot acc   y-rot acc   z-rot acc
    22626 -3.74683E-03-1.31845E-04-2.28637E-04-2.79910E-03-9.99464E-05-1.50509E-04-1.41787E-03-2.65985E-05 9.53824E-05



 n o d a l   p r i n t   o u t   f o r   t i m e  s t e p   12402                              ( at time 6.1998795E+00 )

 nodal point  x-disp     y-disp      z-disp      x-vel       y-vel       z-vel      x-accl      y-accl      z-accl      x-coor      y-coor      z-coor
    22626 -1.68113E-02 6.88748E-01-5.16200E-01-1.24767E-02 4.07555E-01-5.32538E-02-1.82954E-02 1.69332E-01 5.16074E-02 4.64256E+00-2.75021E+01-4.54979E+01



 n o d a l   p r i n t   o u t   f o r   t i m e  s t e p   12402                              ( at time 6.1998795E+00 )

 nodal point  x-rot      y-rot       z-rot       x-rot vel   y-rot vel   z-rot vel   x-rot acc   y-rot acc   z-rot acc
    22626 -4.03335E-03-1.42460E-04-2.44579E-04-2.93244E-03-1.13396E-04-1.69870E-04-1.33358E-03-1.34509E-04-1.93628E-04



 n o d a l   p r i n t   o u t   f o r   t i m e  s t e p   12602                              ( at time 6.2998695E+00 )

 nodal point  x-disp     y-disp      z-disp      x-vel       y-vel       z-vel      x-accl      y-accl      z-accl      x-coor      y-coor      z-coor
    22626 -1.81301E-02 7.30431E-01-5.21251E-01-1.31711E-02 4.25960E-01-4.76584E-02-6.94486E-03 1.84073E-01 5.59592E-02 4.64124E+00-2.74604E+01-4.55030E+01



 n o d a l   p r i n t   o u t   f o r   t i m e  s t e p   12602                              ( at time 6.2998695E+00 )

 nodal point  x-rot      y-rot       z-rot       x-rot vel   y-rot vel   z-rot vel   x-rot acc   y-rot acc   z-rot acc
    22626 -4.33328E-03-1.53717E-04-2.61931E-04-3.06517E-03-1.08733E-04-1.67461E-04-1.32737E-03 4.66296E-05 2.40885E-05



 n o d a l   p r i n t   o u t   f o r   t i m e  s t e p   12802                              ( at time 6.3998595E+00 )

 nodal point  x-disp     y-disp      z-disp      x-vel       y-vel       z-vel      x-accl      y-accl      z-accl      x-coor      y-coor      z-coor
    22626 -1.93593E-02 7.73857E-01-5.25689E-01-1.16333E-02 4.42295E-01-4.09702E-02 1.53794E-02 1.63370E-01 6.68891E-02 4.64002E+00-2.74170E+01-4.55074E+01



 n o d a l   p r i n t   o u t   f o r   t i m e  s t e p   12802                              ( at time 6.3998595E+00 )

 nodal point  x-rot      y-rot       z-rot       x-rot vel   y-rot vel   z-rot vel   x-rot acc   y-rot acc   z-rot acc
    22626 -4.64702E-03-1.63524E-04-2.77388E-04-3.20357E-03-8.93002E-05-1.41827E-04-1.38421E-03 1.94353E-04 2.56367E-04



 n o d a l   p r i n t   o u t   f o r   t i m e  s t e p   13002                              ( at time 6.4998495E+00 )

 nodal point  x-disp     y-disp      z-disp      x-vel       y-vel       z-vel      x-accl      y-accl      z-accl      x-coor      y-coor      z-coor
    22626 -2.05682E-02 8.18970E-01-5.29425E-01-1.30748E-02 4.59860E-01-3.33421E-02-1.44162E-02 1.75659E-01 7.62882E-02 4.63881E+00-2.73719E+01-4.55111E+01



 n o d a l   p r i n t   o u t   f o r   t i m e  s t e p   13002                              ( at time 6.4998495E+00 )

 nodal point  x-rot      y-rot       z-rot       x-rot vel   y-rot vel   z-rot vel   x-rot acc   y-rot acc   z-rot acc
    22626 -4.97507E-03-1.73359E-04-2.92031E-04-3.35274E-03-1.15238E-04-1.61086E-04-1.49181E-03-2.59402E-04-1.92607E-04



 n o d a l   p r i n t   o u t   f o r   t i m e  s t e p   13202                              ( at time 6.5998395E+00 )

 nodal point  x-disp     y-disp      z-disp      x-vel       y-vel       z-vel      x-accl      y-accl      z-accl      x-coor      y-coor      z-coor
    22626 -2.19234E-02 8.65778E-01-5.32299E-01-1.37799E-02 4.76209E-01-2.47381E-02-7.05155E-03 1.63504E-01 8.60482E-02 4.63745E+00-2.73251E+01-4.55140E+01



 n o d a l   p r i n t   o u t   f o r   t i m e  s t e p   13202                              ( at time 6.5998395E+00 )

 nodal point  x-rot      y-rot       z-rot       x-rot vel   y-rot vel   z-rot vel   x-rot acc   y-rot acc   z-rot acc
    22626 -5.31721E-03-1.85836E-04-3.09484E-04-3.49488E-03-1.17518E-04-1.70758E-04-1.42151E-03-2.28036E-05-9.67333E-05



 n o d a l   p r i n t   o u t   f o r   t i m e  s t e p   13402                              ( at time 6.6998295E+00 )

 nodal point  x-disp     y-disp      z-disp      x-vel       y-vel       z-vel      x-accl      y-accl      z-accl      x-coor      y-coor      z-coor
    22626 -2.32661E-02 9.14261E-01-5.34368E-01-1.28602E-02 4.93216E-01-1.68323E-02 9.19782E-03 1.70091E-01 7.90664E-02 4.63611E+00-2.72766E+01-4.55161E+01



 n o d a l   p r i n t   o u t   f o r   t i m e  s t e p   13402                              ( at time 6.6998295E+00 )

 nodal point  x-rot      y-rot       z-rot       x-rot vel   y-rot vel   z-rot vel   x-rot acc   y-rot acc   z-rot acc
    22626 -5.67272E-03-1.95609E-04-3.25423E-04-3.62530E-03-8.65504E-05-1.52414E-04-1.30437E-03 3.09706E-04 1.83465E-04



 n o d a l   p r i n t   o u t   f o r   t i m e  s t e p   13602                              ( at time 6.7998195E+00 )

 nodal point  x-disp     y-disp      z-disp      x-vel       y-vel       z-vel      x-accl      y-accl      z-accl      x-coor      y-coor      z-coor
    22626 -2.45569E-02 9.64425E-01-5.35585E-01-1.34692E-02 5.09686E-01-7.71427E-03-6.09096E-03 1.64714E-01 9.11895E-02 4.63482E+00-2.72264E+01-4.55173E+01



 n o d a l   p r i n t   o u t   f o r   t i m e  s t e p   13602                              ( at time 6.7998195E+00 )

 nodal point  x-rot      y-rot       z-rot       x-rot vel   y-rot vel   z-rot vel   x-rot acc   y-rot acc   z-rot acc
    22626 -6.04285E-03-2.06425E-04-3.41391E-04-3.78145E-03-1.30815E-04-1.64884E-04-1.56161E-03-4.42694E-04-1.24720E-04



 n o d a l   p r i n t   o u t   f o r   t i m e  s t e p   13802                              ( at time 6.8998095E+00 )

 nodal point  x-disp     y-disp      z-disp      x-vel       y-vel       z-vel      x-accl      y-accl      z-accl      x-coor      y-coor      z-coor
    22626 -2.59537E-02 1.01624E+00-5.35925E-01-1.41180E-02 5.26894E-01 1.16947E-03-6.48863E-03 1.72097E-01 8.88464E-02 4.63342E+00-2.71746E+01-4.55176E+01



 n o d a l   p r i n t   o u t   f o r   t i m e  s t e p   13802                              ( at time 6.8998095E+00 )

 nodal point  x-rot      y-rot       z-rot       x-rot vel   y-rot vel   z-rot vel   x-rot acc   y-rot acc   z-rot acc
    22626 -6.42798E-03-2.18560E-04-3.57816E-04-3.91761E-03-1.05956E-04-1.57959E-04-1.36177E-03 2.48617E-04 6.92610E-05



 n o d a l   p r i n t   o u t   f o r   t i m e  s t e p   14002                              ( at time 6.9997995E+00 )

 nodal point  x-disp     y-disp      z-disp      x-vel       y-vel       z-vel      x-accl      y-accl      z-accl      x-coor      y-coor      z-coor
    22626 -2.73771E-02 1.06979E+00-5.35274E-01-1.43208E-02 5.43616E-01 1.16512E-02-2.02782E-03 1.67242E-01 1.04828E-01 4.63200E+00-2.71210E+01-4.55170E+01



 n o d a l   p r i n t   o u t   f o r   t i m e  s t e p   14002                              ( at time 6.9997995E+00 )

 nodal point  x-rot      y-rot       z-rot       x-rot vel   y-rot vel   z-rot vel   x-rot acc   y-rot acc   z-rot acc
    22626 -6.82685E-03-2.29056E-04-3.74316E-04-4.06087E-03-1.10602E-04-1.70804E-04-1.43272E-03-4.64623E-05-1.28463E-04



 n o d a l   p r i n t   o u t   f o r   t i m e  s t e p   14202                              ( at time 7.0997895E+00 )

 nodal point  x-disp     y-disp      z-disp      x-vel       y-vel       z-vel      x-accl      y-accl      z-accl      x-coor      y-coor      z-coor
    22626 -2.88544E-02 1.12500E+00-5.33613E-01-1.48319E-02 5.60686E-01 2.13193E-02-5.11241E-03 1.70717E-01 9.66898E-02 4.63052E+00-2.70658E+01-4.55153E+01



 n o d a l   p r i n t   o u t   f o r   t i m e  s t e p   14202                              ( at time 7.0997895E+00 )

 nodal point  x-rot      y-rot       z-rot       x-rot vel   y-rot vel   z-rot vel   x-rot acc   y-rot acc   z-rot acc
    22626 -7.24022E-03-2.40456E-04-3.91026E-04-4.20721E-03-1.18161E-04-1.66781E-04-1.46357E-03-7.55966E-05 4.02345E-05



 n o d a l   p r i n t   o u t   f o r   t i m e  s t e p   14402                              ( at time 7.1997794E+00 )

 nodal point  x-disp     y-disp      z-disp      x-vel       y-vel       z-vel      x-accl      y-accl      z-accl      x-coor      y-coor      z-coor
    22626 -3.03424E-02 1.18191E+00-5.30911E-01-1.54356E-02 5.77582E-01 3.25809E-02-6.03732E-03 1.68979E-01 1.12627E-01 4.62903E+00-2.70089E+01-4.55126E+01



 n o d a l   p r i n t   o u t   f o r   t i m e  s t e p   14402                              ( at time 7.1997794E+00 )

 nodal point  x-rot      y-rot       z-rot       x-rot vel   y-rot vel   z-rot vel   x-rot acc   y-rot acc   z-rot acc
    22626 -7.66813E-03-2.52435E-04-4.08152E-04-4.34937E-03-1.24214E-04-1.77820E-04-1.42179E-03-6.05344E-05-1.10398E-04



 n o d a l   p r i n t   o u t   f o r   t i m e  s t e p   14602                              ( at time 7.2997694E+00 )

 nodal point  x-disp     y-disp      z-disp      x-vel       y-vel       z-vel      x-accl      y-accl      z-accl      x-coor      y-coor      z-coor
    22626 -3.19379E-02 1.24047E+00-5.27044E-01-1.60153E-02 5.93298E-01 4.50681E-02-5.79722E-03 1.57169E-01 1.24884E-01 4.62744E+00-2.69504E+01-4.55088E+01



 n o d a l   p r i n t   o u t   f o r   t i m e  s t e p   14602                              ( at time 7.2997694E+00 )

 nodal point  x-rot      y-rot       z-rot       x-rot vel   y-rot vel   z-rot vel   x-rot acc   y-rot acc   z-rot acc
    22626 -8.11064E-03-2.64694E-04-4.25909E-04-4.49483E-03-1.19750E-04-1.79699E-04-1.45471E-03 4.46438E-05-1.88002E-05



 n o d a l   p r i n t   o u t   f o r   t i m e  s t e p   14802                              ( at time 7.3997594E+00 )

 nodal point  x-disp     y-disp      z-disp      x-vel       y-vel       z-vel      x-accl      y-accl      z-accl      x-coor      y-coor      z-coor
    22626 -3.35544E-02 1.30050E+00-5.21793E-01-1.64334E-02 6.07541E-01 5.97043E-02-4.18117E-03 1.42447E-01 1.46377E-01 4.62582E+00-2.68903E+01-4.55035E+01



 n o d a l   p r i n t   o u t   f o r   t i m e  s t e p   14802                              ( at time 7.3997594E+00 )

 nodal point  x-rot      y-rot       z-rot       x-rot vel   y-rot vel   z-rot vel   x-rot acc   y-rot acc   z-rot acc
    22626 -8.56765E-03-2.76913E-04-4.43651E-04-4.63804E-03-1.25498E-04-1.83381E-04-1.43223E-03-5.74926E-05-3.68169E-05



 n o d a l   p r i n t   o u t   f o r   t i m e  s t e p   15002                              ( at time 7.4997494E+00 )

 nodal point  x-disp     y-disp      z-disp      x-vel       y-vel       z-vel      x-accl      y-accl      z-accl      x-coor      y-coor      z-coor
    22626 -3.51658E-02 1.36209E+00-5.15196E-01-1.61941E-02 6.23584E-01 7.24384E-02 2.39237E-03 1.60441E-01 1.27353E-01 4.62421E+00-2.68287E+01-4.54969E+01



 n o d a l   p r i n t   o u t   f o r   t i m e  s t e p   15002                              ( at time 7.4997494E+00 )

 nodal point  x-rot      y-rot       z-rot       x-rot vel   y-rot vel   z-rot vel   x-rot acc   y-rot acc   z-rot acc
    22626 -9.03902E-03-2.89994E-04-4.62352E-04-4.78637E-03-1.35723E-04-1.85966E-04-1.48344E-03-1.02258E-04-2.58532E-05



 n o d a l   p r i n t   o u t   f o r   t i m e  s t e p   15202                              ( at time 7.5997394E+00 )

 nodal point  x-disp     y-disp      z-disp      x-vel       y-vel       z-vel      x-accl      y-accl      z-accl      x-coor      y-coor      z-coor
    22626 -3.68519E-02 1.42515E+00-5.07187E-01-1.75570E-02 6.38012E-01 8.79328E-02-1.36304E-02 1.44294E-01 1.54959E-01 4.62252E+00-2.67657E+01-4.54889E+01



 n o d a l   p r i n t   o u t   f o r   t i m e  s t e p   15202                              ( at time 7.5997394E+00 )

 nodal point  x-rot      y-rot       z-rot       x-rot vel   y-rot vel   z-rot vel   x-rot acc   y-rot acc   z-rot acc
    22626 -9.52491E-03-3.03953E-04-4.81146E-04-4.93384E-03-1.44678E-04-2.00140E-04-1.47490E-03-8.95527E-05-1.41754E-04



 n o d a l   p r i n t   o u t   f o r   t i m e  s t e p   15402                              ( at time 7.6997294E+00 )

 nodal point  x-disp     y-disp      z-disp      x-vel       y-vel       z-vel      x-accl      y-accl      z-accl      x-coor      y-coor      z-coor
    22626 -3.86314E-02 1.48974E+00-4.97688E-01-1.79874E-02 6.53668E-01 1.02157E-01-4.30372E-03 1.56580E-01 1.42260E-01 4.62074E+00-2.67011E+01-4.54794E+01



 n o d a l   p r i n t   o u t   f o r   t i m e  s t e p   15402                              ( at time 7.6997294E+00 )

 nodal point  x-rot      y-rot       z-rot       x-rot vel   y-rot vel   z-rot vel   x-rot acc   y-rot acc   z-rot acc
    22626 -1.00265E-02-3.18840E-04-5.02006E-04-5.09634E-03-1.50707E-04-2.12386E-04-1.62510E-03-6.03008E-05-1.22471E-04



 n o d a l   p r i n t   o u t   f o r   t i m e  s t e p   15602                              ( at time 7.7997194E+00 )

 nodal point  x-disp     y-disp      z-disp      x-vel       y-vel       z-vel      x-accl      y-accl      z-accl      x-coor      y-coor      z-coor
    22626 -4.04167E-02 1.55581E+00-4.86705E-01-1.82148E-02 6.68223E-01 1.17974E-01-2.27405E-03 1.45567E-01 1.58179E-01 4.61896E+00-2.66350E+01-4.54684E+01



 n o d a l   p r i n t   o u t   f o r   t i m e  s t e p   15602                              ( at time 7.7997194E+00 )

 nodal point  x-rot      y-rot       z-rot       x-rot vel   y-rot vel   z-rot vel   x-rot acc   y-rot acc   z-rot acc
    22626 -1.05435E-02-3.33909E-04-5.23066E-04-5.24029E-03-1.51234E-04-2.06896E-04-1.43968E-03-5.27327E-06 5.48987E-05



 n o d a l   p r i n t   o u t   f o r   t i m e  s t e p   15802                              ( at time 7.8997094E+00 )

 nodal point  x-disp     y-disp      z-disp      x-vel       y-vel       z-vel      x-accl      y-accl      z-accl      x-coor      y-coor      z-coor
    22626 -4.22760E-02 1.62338E+00-4.74112E-01-1.90280E-02 6.83163E-01 1.33823E-01-8.13332E-03 1.49411E-01 1.58507E-01 4.61710E+00-2.65674E+01-4.54558E+01



 n o d a l   p r i n t   o u t   f o r   t i m e  s t e p   15802                              ( at time 7.8997094E+00 )

 nodal point  x-rot      y-rot       z-rot       x-rot vel   y-rot vel   z-rot vel   x-rot acc   y-rot acc   z-rot acc
    22626 -1.10745E-02-3.50049E-04-5.44612E-04-5.38416E-03-1.68352E-04-2.30640E-04-1.43881E-03-1.71194E-04-2.37460E-04



 n o d a l   p r i n t   o u t   f o r   t i m e  s t e p   16002                              ( at time 7.9996994E+00 )

 nodal point  x-disp     y-disp      z-disp      x-vel       y-vel       z-vel      x-accl      y-accl      z-accl      x-coor      y-coor      z-coor
    22626 -4.42419E-02 1.69243E+00-4.59919E-01-2.04133E-02 6.97340E-01 1.50408E-01-1.38543E-02 1.41787E-01 1.65867E-01 4.61513E+00-2.64984E+01-4.54416E+01



 n o d a l   p r i n t   o u t   f o r   t i m e  s t e p   16002                              ( at time 7.9996994E+00 )

 nodal point  x-rot      y-rot       z-rot       x-rot vel   y-rot vel   z-rot vel   x-rot acc   y-rot acc   z-rot acc
    22626 -1.16213E-02-3.67171E-04-5.68059E-04-5.53815E-03-1.75468E-04-2.35997E-04-1.54003E-03-7.11656E-05-5.35801E-05



 n o d a l   p r i n t   o u t   f o r   t i m e  s t e p   16202                              ( at time 8.0996894E+00 )

 nodal point  x-disp     y-disp      z-disp      x-vel       y-vel       z-vel      x-accl      y-accl      z-accl      x-coor      y-coor      z-coor
    22626 -4.62840E-02 1.76284E+00-4.44123E-01-2.04396E-02 7.11664E-01 1.65162E-01-2.62734E-04 1.43253E-01 1.47551E-01 4.61309E+00-2.64280E+01-4.54258E+01



 n o d a l   p r i n t   o u t   f o r   t i m e  s t e p   16202                              ( at time 8.0996894E+00 )

 nodal point  x-rot      y-rot       z-rot       x-rot vel   y-rot vel   z-rot vel   x-rot acc   y-rot acc   z-rot acc
    22626 -1.21809E-02-3.84452E-04-5.92091E-04-5.66847E-03-1.74582E-04-2.49928E-04-1.30337E-03 8.85806E-06-1.39321E-04



 n o d a l   p r i n t   o u t   f o r   t i m e  s t e p   16402                              ( at time 8.1996794E+00 )

 nodal point  x-disp     y-disp      z-disp      x-vel       y-vel       z-vel      x-accl      y-accl      z-accl      x-coor      y-coor      z-coor
    22626 -4.83664E-02 1.83465E+00-4.26673E-01-2.09502E-02 7.24144E-01 1.84386E-01-5.10685E-03 1.24809E-01 1.92267E-01 4.61101E+00-2.63562E+01-4.54084E+01



 n o d a l   p r i n t   o u t   f o r   t i m e  s t e p   16402                              ( at time 8.1996794E+00 )

 nodal point  x-rot      y-rot       z-rot       x-rot vel   y-rot vel   z-rot vel   x-rot acc   y-rot acc   z-rot acc
    22626 -1.27546E-02-4.02700E-04-6.17131E-04-5.82385E-03-1.89417E-04-2.54779E-04-1.55395E-03-1.48367E-04-4.85143E-05



 n o d a l   p r i n t   o u t   f o r   t i m e  s t e p   16602                              ( at time 8.2996694E+00 )

 nodal point  x-disp     y-disp      z-disp      x-vel       y-vel       z-vel      x-accl      y-accl      z-accl      x-coor      y-coor      z-coor
    22626 -5.05087E-02 1.90765E+00-4.07202E-01-2.19807E-02 7.36412E-01 2.03951E-01-1.03061E-02 1.22700E-01 1.95668E-01 4.60887E+00-2.62832E+01-4.53889E+01



 n o d a l   p r i n t   o u t   f o r   t i m e  s t e p   16602                              ( at time 8.2996694E+00 )

 nodal point  x-rot      y-rot       z-rot       x-rot vel   y-rot vel   z-rot vel   x-rot acc   y-rot acc   z-rot acc
    22626 -1.33436E-02-4.21835E-04-6.42385E-04-5.95468E-03-2.00876E-04-2.66941E-04-1.30839E-03-1.14597E-04-1.21629E-04



 n o d a l   p r i n t   o u t   f o r   t i m e  s t e p   16802                              ( at time 8.3996594E+00 )

 nodal point  x-disp     y-disp      z-disp      x-vel       y-vel       z-vel      x-accl      y-accl      z-accl      x-coor      y-coor      z-coor
    22626 -5.27240E-02 1.98199E+00-3.85953E-01-2.25189E-02 7.50198E-01 2.21889E-01-5.38253E-03 1.37875E-01 1.79398E-01 4.60665E+00-2.62088E+01-4.53677E+01



 n o d a l   p r i n t   o u t   f o r   t i m e  s t e p   16802                              ( at time 8.3996594E+00 )

 nodal point  x-rot      y-rot       z-rot       x-rot vel   y-rot vel   z-rot vel   x-rot acc   y-rot acc   z-rot acc
    22626 -1.39458E-02-4.42314E-04-6.70190E-04-6.08664E-03-2.13539E-04-2.88471E-04-1.31980E-03-1.26646E-04-2.15321E-04



 n o d a l   p r i n t   o u t   f o r   t i m e  s t e p   17002                              ( at time 8.4996494E+00 )

 nodal point  x-disp     y-disp      z-disp      x-vel       y-vel       z-vel      x-accl      y-accl      z-accl      x-coor      y-coor      z-coor
    22626 -5.50079E-02 2.05759E+00-3.62811E-01-2.23744E-02 7.62285E-01 2.42233E-01 1.44534E-03 1.20876E-01 2.03458E-01 4.60437E+00-2.61332E+01-4.53445E+01



 n o d a l   p r i n t   o u t   f o r   t i m e  s t e p   17002                              ( at time 8.4996494E+00 )

 nodal point  x-rot      y-rot       z-rot       x-rot vel   y-rot vel   z-rot vel   x-rot acc   y-rot acc   z-rot acc
    22626 -1.45629E-02-4.62776E-04-6.97824E-04-6.23708E-03-1.96199E-04-2.74160E-04-1.50448E-03 1.73417E-04 1.43125E-04



 n o d a l   p r i n t   o u t   f o r   t i m e  s t e p   17202                              ( at time 8.5996394E+00 )

 nodal point  x-disp     y-disp      z-disp      x-vel       y-vel       z-vel      x-accl      y-accl      z-accl      x-coor      y-coor      z-coor
    22626 -5.72142E-02 2.13444E+00-3.37642E-01-2.27059E-02 7.75148E-01 2.61808E-01-3.31504E-03 1.28650E-01 1.95770E-01 4.60216E+00-2.60564E+01-4.53194E+01



 n o d a l   p r i n t   o u t   f o r   t i m e  s t e p   17202                              ( at time 8.5996394E+00 )

 nodal point  x-rot      y-rot       z-rot       x-rot vel   y-rot vel   z-rot vel   x-rot acc   y-rot acc   z-rot acc
    22626 -1.51955E-02-4.83561E-04-7.25344E-04-6.40471E-03-2.21451E-04-2.78858E-04-1.67651E-03-2.52545E-04-4.69908E-05



 n o d a l   p r i n t   o u t   f o r   t i m e  s t e p   17402                              ( at time 8.6996293E+00 )

 nodal point  x-disp     y-disp      z-disp      x-vel       y-vel       z-vel      x-accl      y-accl      z-accl      x-coor      y-coor      z-coor
    22626 -5.95553E-02 2.21258E+00-3.10389E-01-2.37892E-02 7.87014E-01 2.82280E-01-1.08340E-02 1.18662E-01 2.04743E-01 4.59982E+00-2.59782E+01-4.52921E+01



 n o d a l   p r i n t   o u t   f o r   t i m e  s t e p   17402                              ( at time 8.6996293E+00 )

 nodal point  x-rot      y-rot       z-rot       x-rot vel   y-rot vel   z-rot vel   x-rot acc   y-rot acc   z-rot acc
    22626 -1.58428E-02-5.05413E-04-7.53224E-04-6.54352E-03-2.07372E-04-2.80115E-04-1.38822E-03 1.40806E-04-1.25682E-05



 n o d a l   p r i n t   o u t   f o r   t i m e  s t e p   17602                              ( at time 8.7996193E+00 )

 nodal point  x-disp     y-disp      z-disp      x-vel       y-vel       z-vel      x-accl      y-accl      z-accl      x-coor      y-coor      z-coor
    22626 -6.18477E-02 2.29190E+00-2.81082E-01-2.20296E-02 7.99119E-01 3.03045E-01 1.75975E-02 1.21066E-01 2.07672E-01 4.59753E+00-2.58989E+01-4.52628E+01



 n o d a l   p r i n t   o u t   f o r   t i m e  s t e p   17602                              ( at time 8.7996193E+00 )

 nodal point  x-rot      y-rot       z-rot       x-rot vel   y-rot vel   z-rot vel   x-rot acc   y-rot acc   z-rot acc
    22626 -1.65023E-02-5.25469E-04-7.80388E-04-6.67580E-03-1.96937E-04-2.61900E-04-1.32299E-03 1.04362E-04 1.82169E-04



 n o d a l   p r i n t   o u t   f o r   t i m e  s t e p   17802                              ( at time 8.8996093E+00 )

 nodal point  x-disp     y-disp      z-disp      x-vel       y-vel       z-vel      x-accl      y-accl      z-accl      x-coor      y-coor      z-coor
    22626 -6.40782E-02 2.37250E+00-2.49668E-01-2.28466E-02 8.12972E-01 3.25003E-01-8.17057E-03 1.38541E-01 2.19598E-01 4.59530E+00-2.58183E+01-4.52314E+01



 n o d a l   p r i n t   o u t   f o r   t i m e  s t e p   17802                              ( at time 8.8996093E+00 )

 nodal point  x-rot      y-rot       z-rot       x-rot vel   y-rot vel   z-rot vel   x-rot acc   y-rot acc   z-rot acc
    22626 -1.71771E-02-5.45389E-04-8.05559E-04-6.84413E-03-2.01061E-04-2.44777E-04-1.68342E-03-4.12490E-05 1.71247E-04



 n o d a l   p r i n t   o u t   f o r   t i m e  s t e p   18002                              ( at time 8.9995993E+00 )

 nodal point  x-disp     y-disp      z-disp      x-vel       y-vel       z-vel      x-accl      y-accl      z-accl      x-coor      y-coor      z-coor
    22626 -6.63795E-02 2.45436E+00-2.16054E-01-2.32613E-02 8.24758E-01 3.47266E-01-4.14745E-03 1.17877E-01 2.22657E-01 4.59300E+00-2.57365E+01-4.51978E+01



 n o d a l   p r i n t   o u t   f o r   t i m e  s t e p   18002                              ( at time 8.9995993E+00 )

 nodal point  x-rot      y-rot       z-rot       x-rot vel   y-rot vel   z-rot vel   x-rot acc   y-rot acc   z-rot acc
    22626 -1.78678E-02-5.66133E-04-8.31346E-04-6.97751E-03-2.02500E-04-2.58853E-04-1.33397E-03-1.43857E-05-1.40774E-04



 n o d a l   p r i n t   o u t   f o r   t i m e  s t e p   18202                              ( at time 9.0995893E+00 )

 nodal point  x-disp     y-disp      z-disp      x-vel       y-vel       z-vel      x-accl      y-accl      z-accl      x-coor      y-coor      z-coor
    22626 -6.87101E-02 2.53744E+00-1.80183E-01-2.30604E-02 8.36954E-01 3.70492E-01 2.00916E-03 1.21976E-01 2.32284E-01 4.59066E+00-2.56534E+01-4.51619E+01



 n o d a l   p r i n t   o u t   f o r   t i m e  s t e p   18202                              ( at time 9.0995893E+00 )

 nodal point  x-rot      y-rot       z-rot       x-rot vel   y-rot vel   z-rot vel   x-rot acc   y-rot acc   z-rot acc
    22626 -1.85729E-02-5.85836E-04-8.56494E-04-7.12061E-03-1.86810E-04-2.35783E-04-1.43109E-03 1.56908E-04 2.30720E-04



 n o d a l   p r i n t   o u t   f o r   t i m e  s t e p   18402                              ( at time 9.1995793E+00 )

 nodal point  x-disp     y-disp      z-disp      x-vel       y-vel       z-vel      x-accl      y-accl      z-accl      x-coor      y-coor      z-coor
    22626 -7.09193E-02 2.62178E+00-1.42110E-01-2.19488E-02 8.50228E-01 3.91499E-01 1.11167E-02 1.32751E-01 2.10088E-01 4.58846E+00-2.55691E+01-4.51238E+01



 n o d a l   p r i n t   o u t   f o r   t i m e  s t e p   18402                              ( at time 9.1995793E+00 )

 nodal point  x-rot      y-rot       z-rot       x-rot vel   y-rot vel   z-rot vel   x-rot acc   y-rot acc   z-rot acc
    22626 -1.92931E-02-6.04200E-04-8.79463E-04-7.27291E-03-1.86249E-04-2.34352E-04-1.52323E-03 5.61601E-06 1.43149E-05



 n o d a l   p r i n t   o u t   f o r   t i m e  s t e p   18602                              ( at time 9.2995693E+00 )

 nodal point  x-disp     y-disp      z-disp      x-vel       y-vel       z-vel      x-accl      y-accl      z-accl      x-coor      y-coor      z-coor
    22626 -7.31416E-02 2.70736E+00-1.01762E-01-2.21646E-02 8.62443E-01 4.16293E-01-2.15781E-03 1.22161E-01 2.47969E-01 4.58623E+00-2.54835E+01-4.50835E+01



 n o d a l   p r i n t   o u t   f o r   t i m e  s t e p   18602                              ( at time 9.2995693E+00 )

 nodal point  x-rot      y-rot       z-rot       x-rot vel   y-rot vel   z-rot vel   x-rot acc   y-rot acc   z-rot acc
    22626 -2.00284E-02-6.23359E-04-9.02980E-04-7.43984E-03-1.96553E-04-2.27339E-04-1.66944E-03-1.03054E-04 7.01312E-05



 n o d a l   p r i n t   o u t   f o r   t i m e  s t e p   18802                              ( at time 9.3995593E+00 )

 nodal point  x-disp     y-disp      z-disp      x-vel       y-vel       z-vel      x-accl      y-accl      z-accl      x-coor      y-coor      z-coor
    22626 -7.53409E-02 2.79429E+00-5.90100E-02-2.16045E-02 8.75943E-01 4.37738E-01 5.60147E-03 1.35010E-01 2.14471E-01 4.58403E+00-2.53965E+01-4.50407E+01



 n o d a l   p r i n t   o u t   f o r   t i m e  s t e p   18802                              ( at time 9.3995593E+00 )

 nodal point  x-rot      y-rot       z-rot       x-rot vel   y-rot vel   z-rot vel   x-rot acc   y-rot acc   z-rot acc
    22626 -2.07803E-02-6.42404E-04-9.24652E-04-7.60112E-03-1.73556E-04-2.03728E-04-1.61296E-03 2.29993E-04 2.36137E-04



 n o d a l   p r i n t   o u t   f o r   t i m e  s t e p   19002                              ( at time 9.4995493E+00 )

 nodal point  x-disp     y-disp      z-disp      x-vel       y-vel       z-vel      x-accl      y-accl      z-accl      x-coor      y-coor      z-coor
    22626 -7.74557E-02 2.88248E+00-1.40205E-02-2.07221E-02 8.87761E-01 4.62209E-01 8.82432E-03 1.18197E-01 2.44733E-01 4.58192E+00-2.53083E+01-4.49957E+01



 n o d a l   p r i n t   o u t   f o r   t i m e  s t e p   19002                              ( at time 9.4995493E+00 )

 nodal point  x-rot      y-rot       z-rot       x-rot vel   y-rot vel   z-rot vel   x-rot acc   y-rot acc   z-rot acc
    22626 -2.15466E-02-6.59324E-04-9.45777E-04-7.74680E-03-1.73089E-04-2.05930E-04-1.45695E-03 4.67178E-06-2.20231E-05



 n o d a l   p r i n t   o u t   f o r   t i m e  s t e p   19202                              ( at time 9.5995393E+00 )

 nodal point  x-disp     y-disp      z-disp      x-vel       y-vel       z-vel      x-accl      y-accl      z-accl      x-coor      y-coor      z-coor
    22626 -7.95344E-02 2.97196E+00 3.35078E-02-2.09412E-02 9.01627E-01 4.87022E-01-2.19099E-03 1.38669E-01 2.48152E-01 4.57984E+00-2.52189E+01-4.49482E+01



 n o d a l   p r i n t   o u t   f o r   t i m e  s t e p   19202                              ( at time 9.5995393E+00 )

 nodal point  x-rot      y-rot       z-rot       x-rot vel   y-rot vel   z-rot vel   x-rot acc   y-rot acc   z-rot acc
    22626 -2.23293E-02-6.76350E-04-9.65360E-04-7.92005E-03-1.62926E-04-1.86708E-04-1.73260E-03 1.01638E-04 1.92237E-04



 n o d a l   p r i n t   o u t   f o r   t i m e  s t e p   19402                              ( at time 9.6995293E+00 )

 nodal point  x-disp     y-disp      z-disp      x-vel       y-vel       z-vel      x-accl      y-accl      z-accl      x-coor      y-coor      z-coor
    22626 -8.16537E-02 3.06269E+00 8.33881E-02-2.12488E-02 9.13856E-01 5.10794E-01-3.07641E-03 1.22300E-01 2.37745E-01 4.57772E+00-2.51281E+01-4.48983E+01



 n o d a l   p r i n t   o u t   f o r   t i m e  s t e p   19402                              ( at time 9.6995293E+00 )

 nodal point  x-rot      y-rot       z-rot       x-rot vel   y-rot vel   z-rot vel   x-rot acc   y-rot acc   z-rot acc
    22626 -2.31287E-02-6.91872E-04-9.84237E-04-8.07024E-03-1.53994E-04-1.93605E-04-1.50213E-03 8.93271E-05-6.89784E-05



 n o d a l   p r i n t   o u t   f o r   t i m e  s t e p   19602                              ( at time 9.7995193E+00 )

 nodal point  x-disp     y-disp      z-disp      x-vel       y-vel       z-vel      x-accl      y-accl      z-accl      x-coor      y-coor      z-coor
    22626 -8.37673E-02 3.15475E+00 1.35666E-01-2.03794E-02 9.26944E-01 5.35082E-01 8.69489E-03 1.30898E-01 2.42903E-01 4.57561E+00-2.50361E+01-4.48461E+01



 n o d a l   p r i n t   o u t   f o r   t i m e  s t e p   19602                              ( at time 9.7995193E+00 )

 nodal point  x-rot      y-rot       z-rot       x-rot vel   y-rot vel   z-rot vel   x-rot acc   y-rot acc   z-rot acc
    22626 -2.39439E-02-7.06883E-04-1.00219E-03-8.23951E-03-1.35955E-04-1.68827E-04-1.69281E-03 1.80408E-04 2.47805E-04



 n o d a l   p r i n t   o u t   f o r   t i m e  s t e p   19802                              ( at time 9.8995093E+00 )

 nodal point  x-disp     y-disp      z-disp      x-vel       y-vel       z-vel      x-accl      y-accl      z-accl      x-coor      y-coor      z-coor
    22626 -8.57499E-02 3.24794E+00 1.90473E-01-1.96064E-02 9.38037E-01 5.60878E-01 7.73124E-03 1.10942E-01 2.57980E-01 4.57363E+00-2.49429E+01-4.47912E+01



 n o d a l   p r i n t   o u t   f o r   t i m e  s t e p   19802                              ( at time 9.8995093E+00 )

 nodal point  x-rot      y-rot       z-rot       x-rot vel   y-rot vel   z-rot vel   x-rot acc   y-rot acc   z-rot acc
    22626 -2.47755E-02-7.20249E-04-1.01768E-03-8.39048E-03-1.30104E-04-1.51611E-04-1.50986E-03 5.85247E-05 1.72183E-04



 n o d a l   p r i n t   o u t   f o r   t i m e  s t e p   20003                              ( at time 9.9999992E+00 )

 nodal point  x-disp     y-disp      z-disp      x-vel       y-vel       z-vel      x-accl      y-accl      z-accl      x-coor      y-coor      z-coor
[...]
    22626 -1.94561E-01-6.57136E-04-6.85866E-04-1.59697E-02-6.76972E-05-7.45860E-06-1.99321E-06-3.16947E-05-1.04248E-04



 n o d a l   p r i n t   o u t   f o r   t i m e  s t e p   45205                              ( at time 2.2599738E+01 )

 nodal point  x-disp     y-disp      z-disp      x-vel       y-vel       z-vel      x-accl      y-accl      z-accl      x-coor      y-coor      z-coor
    22626 -1.77651E-01 1.94017E+01 1.67770E+01-7.64961E-03 1.56116E+00 8.18970E-01-4.32453E-03 2.19496E-02-8.54332E-02 4.48172E+00-8.78917E+00-2.82047E+01



 n o d a l   p r i n t   o u t   f o r   t i m e  s t e p   45205                              ( at time 2.2599738E+01 )

 nodal point  x-rot      y-rot       z-rot       x-rot vel   y-rot vel   z-rot vel   x-rot acc   y-rot acc   z-rot acc
    22626 -1.96158E-01-6.64899E-04-6.85999E-04-1.59478E-02-8.08407E-05 9.98531E-06 2.18397E-04-1.31448E-04 1.74455E-04



 n o d a l   p r i n t   o u t   f o r   t i m e  s t e p   45405                              ( at time 2.2699728E+01 )

 nodal point  x-disp     y-disp      z-disp      x-vel       y-vel       z-vel      x-accl      y-accl      z-accl      x-coor      y-coor      z-coor
    22626 -1.78347E-01 1.95579E+01 1.68585E+01-6.25096E-03 1.56362E+00 8.10323E-01 1.39881E-02 2.45586E-02-8.64822E-02 4.48103E+00-8.63294E+00-2.81233E+01



 n o d a l   p r i n t   o u t   f o r   t i m e  s t e p   45405                              ( at time 2.2699728E+01 )

 nodal point  x-rot      y-rot       z-rot       x-rot vel   y-rot vel   z-rot vel   x-rot acc   y-rot acc   z-rot acc
    22626 -1.97752E-01-6.73301E-04-6.86289E-04-1.59484E-02-8.11428E-05-7.65922E-06-5.73758E-06-3.02138E-06-1.76465E-04



 n o d a l   p r i n t   o u t   f o r   t i m e  s t e p   45605                              ( at time 2.2799718E+01 )

 nodal point  x-disp     y-disp      z-disp      x-vel       y-vel       z-vel      x-accl      y-accl      z-accl      x-coor      y-coor      z-coor
    22626 -1.79016E-01 1.97144E+01 1.69390E+01-6.42233E-03 1.56541E+00 8.01498E-01-1.71384E-03 1.79343E-02-8.82516E-02 4.48036E+00-8.47646E+00-2.80427E+01



 n o d a l   p r i n t   o u t   f o r   t i m e  s t e p   45605                              ( at time 2.2799718E+01 )

 nodal point  x-rot      y-rot       z-rot       x-rot vel   y-rot vel   z-rot vel   x-rot acc   y-rot acc   z-rot acc
    22626 -1.99346E-01-6.80569E-04-6.86575E-04-1.59284E-02-7.16886E-05-7.78299E-06 1.99955E-04 9.45508E-05-1.23787E-06



 n o d a l   p r i n t   o u t   f o r   t i m e  s t e p   45805                              ( at time 2.2899708E+01 )

 nodal point  x-disp     y-disp      z-disp      x-vel       y-vel       z-vel      x-accl      y-accl      z-accl      x-coor      y-coor      z-coor
    22626 -1.79726E-01 1.98710E+01 1.70189E+01-8.37452E-03 1.56690E+00 7.95064E-01-1.95240E-02 1.48468E-02-6.43515E-02 4.47965E+00-8.31985E+00-2.79629E+01



 n o d a l   p r i n t   o u t   f o r   t i m e  s t e p   45805                              ( at time 2.2899708E+01 )

 nodal point  x-rot      y-rot       z-rot       x-rot vel   y-rot vel   z-rot vel   x-rot acc   y-rot acc   z-rot acc
    22626 -2.00938E-01-6.88761E-04-6.86617E-04-1.59051E-02-9.31365E-05 7.57979E-06 2.32838E-04-2.14502E-04 1.53645E-04



 n o d a l   p r i n t   o u t   f o r   t i m e  s t e p   46005                              ( at time 2.2999698E+01 )

 nodal point  x-disp     y-disp      z-disp      x-vel       y-vel       z-vel      x-accl      y-accl      z-accl      x-coor      y-coor      z-coor
    22626 -1.80457E-01 2.00278E+01 1.70980E+01-7.13786E-03 1.56908E+00 7.87788E-01 1.23677E-02 2.18209E-02-7.27714E-02 4.47892E+00-8.16302E+00-2.78837E+01



 n o d a l   p r i n t   o u t   f o r   t i m e  s t e p   46005                              ( at time 2.2999698E+01 )

 nodal point  x-rot      y-rot       z-rot       x-rot vel   y-rot vel   z-rot vel   x-rot acc   y-rot acc   z-rot acc
    22626 -2.02527E-01-6.97630E-04-6.87448E-04-1.58848E-02-8.30865E-05-5.62476E-06 2.03718E-04 1.00509E-04-1.32058E-04



 n o d a l   p r i n t   o u t   f o r   t i m e  s t e p   46205                              ( at time 2.3099688E+01 )

 nodal point  x-disp     y-disp      z-disp      x-vel       y-vel       z-vel      x-accl      y-accl      z-accl      x-coor      y-coor      z-coor
    22626 -1.81130E-01 2.01848E+01 1.71765E+01-5.37181E-03 1.56972E+00 7.82593E-01 1.76625E-02 6.44040E-03-5.19476E-02 4.47824E+00-8.00606E+00-2.78052E+01



 n o d a l   p r i n t   o u t   f o r   t i m e  s t e p   46205                              ( at time 2.3099688E+01 )

 nodal point  x-rot      y-rot       z-rot       x-rot vel   y-rot vel   z-rot vel   x-rot acc   y-rot acc   z-rot acc
    22626 -2.04115E-01-7.05591E-04-6.87565E-04-1.58709E-02-6.97028E-05-7.28662E-06 1.38447E-04 1.33852E-04-1.66204E-05



 n o d a l   p r i n t   o u t   f o r   t i m e  s t e p   46405                              ( at time 2.3199678E+01 )

 nodal point  x-disp     y-disp      z-disp      x-vel       y-vel       z-vel      x-accl      y-accl      z-accl      x-coor      y-coor      z-coor
    22626 -1.81792E-01 2.03418E+01 1.72545E+01-7.27977E-03 1.57109E+00 7.78328E-01-1.90814E-02 1.36686E-02-4.26546E-02 4.47758E+00-7.84906E+00-2.77272E+01



 n o d a l   p r i n t   o u t   f o r   t i m e  s t e p   46405                              ( at time 2.3199678E+01 )

 nodal point  x-rot      y-rot       z-rot       x-rot vel   y-rot vel   z-rot vel   x-rot acc   y-rot acc   z-rot acc
    22626 -2.05700E-01-7.13983E-04-6.87930E-04-1.58348E-02-9.28129E-05-5.64903E-06 3.60995E-04-2.31122E-04 1.63774E-05



 n o d a l   p r i n t   o u t   f o r   t i m e  s t e p   46605                              ( at time 2.3299668E+01 )

 nodal point  x-disp     y-disp      z-disp      x-vel       y-vel       z-vel      x-accl      y-accl      z-accl      x-coor      y-coor      z-coor
    22626 -1.82488E-01 2.04989E+01 1.73321E+01-7.50310E-03 1.57200E+00 7.72775E-01-2.23352E-03 9.12648E-03-5.55356E-02 4.47689E+00-7.69196E+00-2.76497E+01



 n o d a l   p r i n t   o u t   f o r   t i m e  s t e p   46605                              ( at time 2.3299668E+01 )

 nodal point  x-rot      y-rot       z-rot       x-rot vel   y-rot vel   z-rot vel   x-rot acc   y-rot acc   z-rot acc
    22626 -2.07282E-01-7.23769E-04-6.89312E-04-1.58061E-02-9.89757E-05-1.04361E-05 2.87308E-04-6.16347E-05-4.78759E-05



 n o d a l   p r i n t   o u t   f o r   t i m e  s t e p   46805                              ( at time 2.3399658E+01 )

 nodal point  x-disp     y-disp      z-disp      x-vel       y-vel       z-vel      x-accl      y-accl      z-accl      x-coor      y-coor      z-coor
    22626 -1.83169E-01 2.06560E+01 1.74092E+01-6.21167E-03 1.57097E+00 7.69283E-01 1.29154E-02-1.03209E-02-3.49285E-02 4.47621E+00-7.53483E+00-2.75726E+01



 n o d a l   p r i n t   o u t   f o r   t i m e  s t e p   46805                              ( at time 2.3399658E+01 )

 nodal point  x-rot      y-rot       z-rot       x-rot vel   y-rot vel   z-rot vel   x-rot acc   y-rot acc   z-rot acc
    22626 -2.08862E-01-7.33082E-04-6.90613E-04-1.57814E-02-8.20387E-05-1.63299E-05 2.46730E-04 1.69385E-04-5.89432E-05



 n o d a l   p r i n t   o u t   f o r   t i m e  s t e p   47005                              ( at time 2.3499648E+01 )

 nodal point  x-disp     y-disp      z-disp      x-vel       y-vel       z-vel      x-accl      y-accl      z-accl      x-coor      y-coor      z-coor
    22626 -1.83821E-01 2.08131E+01 1.74860E+01-6.72147E-03 1.57133E+00 7.67310E-01-5.09849E-03 3.58972E-03-1.97339E-02 4.47555E+00-7.37773E+00-2.74958E+01



 n o d a l   p r i n t   o u t   f o r   t i m e  s t e p   47005                              ( at time 2.3499648E+01 )

 nodal point  x-rot      y-rot       z-rot       x-rot vel   y-rot vel   z-rot vel   x-rot acc   y-rot acc   z-rot acc
    22626 -2.10438E-01-7.41644E-04-6.91310E-04-1.57469E-02-9.31146E-05-7.71084E-06 3.44826E-04-1.10769E-04 8.61982E-05



 n o d a l   p r i n t   o u t   f o r   t i m e  s t e p   47205                              ( at time 2.3599638E+01 )

 nodal point  x-disp     y-disp      z-disp      x-vel       y-vel       z-vel      x-accl      y-accl      z-accl      x-coor      y-coor      z-coor
    22626 -1.84470E-01 2.09702E+01 1.75625E+01-7.52390E-03 1.57115E+00 7.64421E-01-8.02519E-03-1.74661E-03-2.88894E-02 4.47491E+00-7.22059E+00-2.74192E+01



 n o d a l   p r i n t   o u t   f o r   t i m e  s t e p   47205                              ( at time 2.3599638E+01 )

 nodal point  x-rot      y-rot       z-rot       x-rot vel   y-rot vel   z-rot vel   x-rot acc   y-rot acc   z-rot acc
    22626 -2.12011E-01-7.51526E-04-6.92869E-04-1.57184E-02-9.64247E-05-1.67391E-05 2.85109E-04-3.31052E-05-9.02927E-05



 n o d a l   p r i n t   o u t   f o r   t i m e  s t e p   47405                              ( at time 2.3699628E+01 )

 nodal point  x-disp     y-disp      z-disp      x-vel       y-vel       z-vel      x-accl      y-accl      z-accl      x-coor      y-coor      z-coor
    22626 -1.85165E-01 2.11273E+01 1.76389E+01-5.56379E-03 1.57011E+00 7.62747E-01 1.96029E-02-1.04187E-02-1.67385E-02 4.47421E+00-7.06352E+00-2.73428E+01



 n o d a l   p r i n t   o u t   f o r   t i m e  s t e p   47405                              ( at time 2.3699628E+01 )

 nodal point  x-rot      y-rot       z-rot       x-rot vel   y-rot vel   z-rot vel   x-rot acc   y-rot acc   z-rot acc
    22626 -2.13580E-01-7.61729E-04-6.94535E-04-1.56752E-02-9.30427E-05-1.67655E-05 4.32658E-04 3.38235E-05-2.64251E-07



 n o d a l   p r i n t   o u t   f o r   t i m e  s t e p   47605                              ( at time 2.3799618E+01 )

 nodal point  x-disp     y-disp      z-disp      x-vel       y-vel       z-vel      x-accl      y-accl      z-accl      x-coor      y-coor      z-coor
    22626 -1.85771E-01 2.12842E+01 1.77151E+01-6.40327E-03 1.56834E+00 7.63204E-01-8.39571E-03-1.77677E-02 4.56741E-03 4.47360E+00-6.90662E+00-2.72666E+01



 n o d a l   p r i n t   o u t   f o r   t i m e  s t e p   47605                              ( at time 2.3799618E+01 )

 nodal point  x-rot      y-rot       z-rot       x-rot vel   y-rot vel   z-rot vel   x-rot acc   y-rot acc   z-rot acc
    22626 -2.15146E-01-7.71756E-04-6.95355E-04-1.56454E-02-1.00050E-04-5.28820E-06 2.98168E-04-7.00802E-05 1.14786E-04



 n o d a l   p r i n t   o u t   f o r   t i m e  s t e p   47805                              ( at time 2.3899608E+01 )

 nodal point  x-disp     y-disp      z-disp      x-vel       y-vel       z-vel      x-accl      y-accl      z-accl      x-coor      y-coor      z-coor
    22626 -1.86359E-01 2.14410E+01 1.77914E+01-6.42923E-03 1.56798E+00 7.61843E-01-2.59621E-04-3.59568E-03-1.36096E-02 4.47302E+00-6.74978E+00-2.71903E+01



 n o d a l   p r i n t   o u t   f o r   t i m e  s t e p   47805                              ( at time 2.3899608E+01 )

 nodal point  x-rot      y-rot       z-rot       x-rot vel   y-rot vel   z-rot vel   x-rot acc   y-rot acc   z-rot acc
    22626 -2.16709E-01-7.81521E-04-6.96461E-04-1.56117E-02-1.06502E-04-7.84600E-06 3.36881E-04-6.45274E-05-2.55803E-05



 n o d a l   p r i n t   o u t   f o r   t i m e  s t e p   48005                              ( at time 2.3999598E+01 )

 nodal point  x-disp     y-disp      z-disp      x-vel       y-vel       z-vel      x-accl      y-accl      z-accl      x-coor      y-coor      z-coor
    22626 -1.86971E-01 2.15977E+01 1.78677E+01-5.51711E-03 1.56485E+00 7.63632E-01 9.12217E-03-3.12947E-02 1.78917E-02 4.47240E+00-6.59318E+00-2.71140E+01



 n o d a l   p r i n t   o u t   f o r   t i m e  s t e p   48005                              ( at time 2.3999598E+01 )

 nodal point  x-rot      y-rot       z-rot       x-rot vel   y-rot vel   z-rot vel   x-rot acc   y-rot acc   z-rot acc
    22626 -2.18267E-01-7.92627E-04-6.98223E-04-1.55794E-02-1.14899E-04-1.78240E-05 3.22860E-04-8.39806E-05-9.97908E-05



 n o d a l   p r i n t   o u t   f o r   t i m e  s t e p   48205                              ( at time 2.4099588E+01 )

 nodal point  x-disp     y-disp      z-disp      x-vel       y-vel       z-vel      x-accl      y-accl      z-accl      x-coor      y-coor      z-coor
    22626 -1.87565E-01 2.17541E+01 1.79441E+01-5.33121E-03 1.56345E+00 7.64692E-01 1.85925E-03-1.39285E-02 1.06040E-02 4.47181E+00-6.43678E+00-2.70377E+01



 n o d a l   p r i n t   o u t   f o r   t i m e  s t e p   48205                              ( at time 2.4099588E+01 )

 nodal point  x-rot      y-rot       z-rot       x-rot vel   y-rot vel   z-rot vel   x-rot acc   y-rot acc   z-rot acc
    22626 -2.19823E-01-8.03981E-04-6.98853E-04-1.55315E-02-1.05538E-04-9.10852E-06 4.79330E-04 9.36163E-05 8.71624E-05



 n o d a l   p r i n t   o u t   f o r   t i m e  s t e p   48405                              ( at time 2.4199578E+01 )

 nodal point  x-disp     y-disp      z-disp      x-vel       y-vel       z-vel      x-accl      y-accl      z-accl      x-coor      y-coor      z-coor
    22626 -1.88060E-01 2.19102E+01 1.80206E+01-6.16181E-03 1.56073E+00 7.66672E-01-8.30695E-03-2.72435E-02 1.98017E-02 4.47132E+00-6.28060E+00-2.69611E+01



 n o d a l   p r i n t   o u t   f o r   t i m e  s t e p   48405                              ( at time 2.4199578E+01 )

 nodal point  x-rot      y-rot       z-rot       x-rot vel   y-rot vel   z-rot vel   x-rot acc   y-rot acc   z-rot acc
    22626 -2.21374E-01-8.14279E-04-7.00067E-04-1.54937E-02-1.11939E-04-1.37330E-05 3.77712E-04-6.40172E-05-4.62495E-05



 n o d a l   p r i n t   o u t   f o r   t i m e  s t e p   48605                              ( at time 2.4299568E+01 )

 nodal point  x-disp     y-disp      z-disp      x-vel       y-vel       z-vel      x-accl      y-accl      z-accl      x-coor      y-coor      z-coor
    22626 -1.88640E-01 2.20662E+01 1.80974E+01-5.47934E-03 1.55801E+00 7.69611E-01 6.82533E-03-2.71894E-02 2.93860E-02 4.47073E+00-6.12467E+00-2.68843E+01



 n o d a l   p r i n t   o u t   f o r   t i m e  s t e p   48605                              ( at time 2.4299568E+01 )

 nodal point  x-rot      y-rot       z-rot       x-rot vel   y-rot vel   z-rot vel   x-rot acc   y-rot acc   z-rot acc
    22626 -2.22921E-01-8.26191E-04-7.01666E-04-1.54475E-02-1.22978E-04-1.86597E-05 4.62174E-04-1.10398E-04-4.92715E-05



 n o d a l   p r i n t   o u t   f o r   t i m e  s t e p   48805                              ( at time 2.4399558E+01 )

 nodal point  x-disp     y-disp      z-disp      x-vel       y-vel       z-vel      x-accl      y-accl      z-accl      x-coor      y-coor      z-coor
    22626 -1.89189E-01 2.22218E+01 1.81745E+01-5.25319E-03 1.55528E+00 7.72791E-01 2.26169E-03-2.72967E-02 3.18103E-02 4.47019E+00-5.96906E+00-2.68072E+01



 n o d a l   p r i n t   o u t   f o r   t i m e  s t e p   48805                              ( at time 2.4399558E+01 )

 nodal point  x-rot      y-rot       z-rot       x-rot vel   y-rot vel   z-rot vel   x-rot acc   y-rot acc   z-rot acc
    22626 -2.24464E-01-8.38169E-04-7.03123E-04-1.54191E-02-1.09337E-04-7.26822E-06 2.83548E-04 1.36430E-04 1.13925E-04



 n o d a l   p r i n t   o u t   f o r   t i m e  s t e p   49006                              ( at time 2.4500048E+01 )

 nodal point  x-disp     y-disp      z-disp      x-vel       y-vel       z-vel      x-accl      y-accl      z-accl      x-coor      y-coor      z-coor
    22626 -1.89711E-01 2.23779E+01 1.82523E+01-5.17369E-03 1.55163E+00 7.76262E-01 7.91116E-04-3.63932E-02 3.45408E-02 4.46966E+00-5.81295E+00-2.67294E+01



 n o d a l   p r i n t   o u t   f o r   t i m e  s t e p   49006                              ( at time 2.4500048E+01 )

 nodal point  x-rot      y-rot       z-rot       x-rot vel   y-rot vel   z-rot vel   x-rot acc   y-rot acc   z-rot acc
    22626 -2.26011E-01-8.49108E-04-7.04059E-04-1.53850E-02-1.15547E-04-1.34229E-05 3.39624E-04-6.17979E-05-6.12477E-05



 n o d a l   p r i n t   o u t   f o r   t i m e  s t e p   49206                              ( at time 2.4600038E+01 )

 nodal point  x-disp     y-disp      z-disp      x-vel       y-vel       z-vel      x-accl      y-accl      z-accl      x-coor      y-coor      z-coor
    22626 -1.90230E-01 2.25328E+01 1.83303E+01-5.39898E-03 1.54709E+00 7.81746E-01-2.25304E-03-4.53383E-02 5.48383E-02 4.46914E+00-5.65802E+00-2.66515E+01



 n o d a l   p r i n t   o u t   f o r   t i m e  s t e p   49206                              ( at time 2.4600038E+01 )

 nodal point  x-rot      y-rot       z-rot       x-rot vel   y-rot vel   z-rot vel   x-rot acc   y-rot acc   z-rot acc
    22626 -2.27546E-01-8.61329E-04-7.05962E-04-1.53240E-02-1.23786E-04-1.98508E-05 6.10426E-04-8.24015E-05-6.42842E-05



 n o d a l   p r i n t   o u t   f o r   t i m e  s t e p   49406                              ( at time 2.4700028E+01 )

 nodal point  x-disp     y-disp      z-disp      x-vel       y-vel       z-vel      x-accl      y-accl      z-accl      x-coor      y-coor      z-coor
    22626 -1.90741E-01 2.26874E+01 1.84087E+01-4.55828E-03 1.54338E+00 7.86503E-01 8.40791E-03-3.70913E-02 4.75817E-02 4.46863E+00-5.50345E+00-2.65731E+01



 n o d a l   p r i n t   o u t   f o r   t i m e  s t e p   49406                              ( at time 2.4700028E+01 )

 nodal point  x-rot      y-rot       z-rot       x-rot vel   y-rot vel   z-rot vel   x-rot acc   y-rot acc   z-rot acc
    22626 -2.29076E-01-8.73573E-04-7.07388E-04-1.52918E-02-1.19900E-04-1.43638E-05 3.22059E-04 3.88666E-05 5.48752E-05



 n o d a l   p r i n t   o u t   f o r   t i m e  s t e p   49606                              ( at time 2.4800018E+01 )

 nodal point  x-disp     y-disp      z-disp      x-vel       y-vel       z-vel      x-accl      y-accl      z-accl      x-coor      y-coor      z-coor
    22626 -1.91245E-01 2.28415E+01 1.84876E+01-5.10216E-03 1.53965E+00 7.93039E-01-5.43931E-03-3.73147E-02 6.53649E-02 4.46813E+00-5.34931E+00-2.64941E+01



 n o d a l   p r i n t   o u t   f o r   t i m e  s t e p   49606                              ( at time 2.4800018E+01 )

 nodal point  x-rot      y-rot       z-rot       x-rot vel   y-rot vel   z-rot vel   x-rot acc   y-rot acc   z-rot acc
    22626 -2.30603E-01-8.85478E-04-7.08878E-04-1.52356E-02-1.08976E-04-9.97856E-06 5.61518E-04 1.09245E-04 4.38569E-05



 n o d a l   p r i n t   o u t   f o r   t i m e  s t e p   49806                              ( at time 2.4900008E+01 )

 nodal point  x-disp     y-disp      z-disp      x-vel       y-vel       z-vel      x-accl      y-accl      z-accl      x-coor      y-coor      z-coor
    22626 -1.91730E-01 2.29952E+01 1.85672E+01-4.70820E-03 1.53491E+00 7.99417E-01 3.94003E-03-4.74279E-02 6.37846E-02 4.46765E+00-5.19559E+00-2.64145E+01



 n o d a l   p r i n t   o u t   f o r   t i m e  s t e p   49806                              ( at time 2.4900008E+01 )

 nodal point  x-rot      y-rot       z-rot       x-rot vel   y-rot vel   z-rot vel   x-rot acc   y-rot acc   z-rot acc
    22626 -2.32125E-01-8.97584E-04-7.10182E-04-1.51992E-02-1.24525E-04-1.06962E-05 3.64132E-04-1.55508E-04-7.17763E-06



 n o d a l   p r i n t   o u t   f o r   t i m e  s t e p   50006                              ( at time 2.4999998E+01 )

 nodal point  x-disp     y-disp      z-disp      x-vel       y-vel       z-vel      x-accl      y-accl      z-accl      x-coor      y-coor      z-coor
    22626 -1.92223E-01 2.31485E+01 1.86474E+01-5.25769E-03 1.53115E+00 8.05233E-01-5.49539E-03-3.75818E-02 5.81646E-02 4.46715E+00-5.04234E+00-2.63343E+01



 n o d a l   p r i n t   o u t   f o r   t i m e  s t e p   50006                              ( at time 2.4999998E+01 )

 nodal point  x-rot      y-rot       z-rot       x-rot vel   y-rot vel   z-rot vel   x-rot acc   y-rot acc   z-rot acc
    22626 -2.33643E-01-9.09781E-04-7.12122E-04-1.51636E-02-1.25290E-04-2.29659E-05 3.56375E-04-7.65108E-06-1.22707E-04
