 LSTC 50th% Full_FE H-III Dummy (Beta Version, February 17, 2019)        
                    ls-dyna smp s R16 R16.0_619_d222963 date 03/18/2025

{BEGIN LEGEND}
 Entity #        Title
        1     Upper_Neck_Force_INJURY                                              
{END LEGEND}



 line#1  section#     time        x-force     y-force     z-force    magnitude
 line#2  resultant  moments       x-moment    y-moment    z-moment   magnitude
 line#3  centroids                x           y           z            area  
           1    0.00000E+00     0.0000E+00  0.0000E+00  0.0000E+00  0.0000E+00
ac ID =   33377                 0.0000E+00  0.0000E+00  0.0000E+00  0.0000E+00
                               -3.7437E-01  1.0501E+01 -4.6940E+01  0.0000E+00

           1    1.00490E-01     1.3639E-04 -4.9877E-03  2.5982E-01  2.5987E-01
ac ID =   33377                 4.2550E-01 -1.2521E+00 -2.7103E-02  1.3227E+00
                               -3.7387E-01  1.0590E+01 -4.6886E+01  2.5147E+03

           1    2.00480E-01    -4.4294E-02  5.8166E-04  4.4123E-01  4.4344E-01
ac ID =   33377                 3.0616E-01 -1.5978E+00  2.0338E-02  1.6270E+00
                               -3.7386E-01  1.0591E+01 -4.6888E+01  2.5147E+03

           1    3.00470E-01     1.4693E-02 -3.4523E-03  2.1751E-01  2.1804E-01
ac ID =   33377                 2.5404E-02 -3.3648E-01  6.6073E-02  3.4384E-01
                               -3.7382E-01  1.0591E+01 -4.6889E+01  2.5147E+03

           1    4.00460E-01     2.8494E-03  1.0409E-02  8.7723E-02  8.8384E-02
ac ID =   33377                -4.9368E-01 -9.4568E-01  2.0932E-04  1.0668E+00
                               -3.7383E-01  1.0592E+01 -4.6890E+01  2.5147E+03

           1    5.00450E-01    -4.0842E-02  4.3100E-03  1.6155E-01  1.6669E-01
ac ID =   33377                -3.9943E-01 -1.5024E+00 -1.1117E-01  1.5586E+00
                               -3.7385E-01  1.0594E+01 -4.6893E+01  2.5147E+03

           1    6.00440E-01    -1.0710E-02  4.1029E-03  3.4353E-01  3.4372E-01
ac ID =   33377                 9.5322E-02 -1.3260E+00 -3.2030E-02  1.3298E+00
                               -3.7385E-01  1.0595E+01 -4.6897E+01  2.5147E+03

           1    7.00430E-01     2.8646E-03 -5.5646E-03  2.9447E-01  2.9454E-01
ac ID =   33377                 1.3849E-01 -5.0534E-01  8.3155E-02  5.3053E-01
                               -3.7389E-01  1.0597E+01 -4.6901E+01  2.5147E+03

           1    8.00420E-01    -3.0860E-02 -1.2226E-03  1.0077E-01  1.0539E-01
ac ID =   33377                 7.9720E-02 -1.0540E+00  4.7262E-02  1.0581E+00
                               -3.7394E-01  1.0599E+01 -4.6905E+01  2.5147E+03

           1    9.00410E-01    -3.9311E-02  8.0827E-04  6.2505E-02  7.3844E-02
ac ID =   33377                 8.9655E-02 -1.0716E+00 -3.7213E-03  1.0753E+00
                               -3.7399E-01  1.0601E+01 -4.6909E+01  2.5147E+03

           1    1.00040E+00     1.4792E-02 -3.8098E-03  2.2043E-01  2.2096E-01
ac ID =   33377                 3.6897E-01 -2.8864E-01 -5.3852E-02  4.7154E-01
                               -3.7400E-01  1.0604E+01 -4.6915E+01  2.5147E+03

           1    1.10039E+00    -6.2235E-05 -2.9830E-03  2.7075E-01  2.7076E-01
ac ID =   33377                 3.4262E-01 -8.7967E-01 -6.1628E-02  9.4605E-01
                               -3.7401E-01  1.0607E+01 -4.6921E+01  2.5147E+03

           1    1.20038E+00    -3.2180E-02 -1.9446E-04  1.2924E-01  1.3319E-01
ac ID =   33377                -1.5379E-01 -1.1797E+00  1.2003E-02  1.1898E+00
                               -3.7403E-01  1.0610E+01 -4.6927E+01  2.5147E+03

           1    1.30037E+00    -1.0285E-02  4.4962E-03  7.4662E-02  7.5501E-02
ac ID =   33377                -2.9931E-01 -8.8491E-01  1.7113E-02  9.3432E-01
                               -3.7407E-01  1.0612E+01 -4.6933E+01  2.5147E+03

           1    1.40036E+00     8.1041E-03  3.5006E-03  1.7362E-01  1.7384E-01
ac ID =   33377                -2.9583E-01 -8.3880E-01  2.8110E-02  8.8989E-01
                               -3.7409E-01  1.0616E+01 -4.6941E+01  2.5147E+03

           1    1.50035E+00    -2.7026E-02  1.1590E-03  3.2861E-01  3.2972E-01
ac ID =   33377                -1.6077E-02 -1.5806E+00 -4.2732E-02  1.5813E+00
                               -3.7413E-01  1.0620E+01 -4.6949E+01  2.5147E+03

           1    1.60034E+00    -1.9341E-02 -2.3422E-03  2.2104E-01  2.2189E-01
ac ID =   33377                -1.8318E-02 -1.3674E+00 -1.7052E-02  1.3676E+00
                               -3.7420E-01  1.0624E+01 -4.6957E+01  2.5147E+03

           1    1.70033E+00    -2.7367E-03 -5.6414E-04  5.8606E-02  5.8673E-02
ac ID =   33377                -4.2567E-02 -6.7451E-01  9.7050E-02  6.8278E-01
                               -3.7427E-01  1.0627E+01 -4.6965E+01  2.5147E+03

           1    1.80032E+00    -2.0366E-02  7.9378E-04  7.7418E-02  8.0055E-02
ac ID =   33377                 8.2258E-02 -1.1129E+00  1.2168E-01  1.1225E+00
                               -3.7434E-01  1.0632E+01 -4.6974E+01  2.5147E+03

           1    1.90031E+00    -7.9653E-03 -2.6872E-03  1.9166E-01  1.9184E-01
ac ID =   33377                 2.7418E-01 -8.2363E-01 -6.7390E-02  8.7068E-01
                               -3.7439E-01  1.0636E+01 -4.6984E+01  2.5147E+03

           1    2.00030E+00    -1.9944E-03 -4.6085E-03  1.5655E-01  1.5663E-01
ac ID =   33377                 2.0188E-01 -4.4710E-01 -1.3739E-01  5.0944E-01
                               -3.7444E-01  1.0641E+01 -4.6993E+01  2.5147E+03

           1    2.10029E+00    -2.5553E-02  2.5940E-03  2.6796E-03  2.5824E-02
ac ID =   33377                -7.0417E-02 -6.9476E-01  3.7881E-02  6.9935E-01
                               -3.7450E-01  1.0645E+01 -4.7003E+01  2.5147E+03

           1    2.20028E+00    -1.3220E-02  4.8273E-03  3.6994E-03  1.4552E-02
ac ID =   33377                -2.4024E-01 -6.6085E-01  2.8474E-02  7.0374E-01
                               -3.7456E-01  1.0650E+01 -4.7013E+01  2.5147E+03

           1    2.30027E+00     1.0366E-03  4.7636E-03  1.4869E-01  1.4877E-01
ac ID =   33377                -1.4957E-01 -8.1150E-01 -6.6256E-02  8.2782E-01
                               -3.7461E-01  1.0655E+01 -4.7024E+01  2.5147E+03

           1    2.40026E+00    -1.7562E-02 -1.5611E-03  1.8890E-01  1.8972E-01
ac ID =   33377                -1.4657E-01 -1.1868E+00  7.6116E-02  1.1983E+00
                               -3.7469E-01  1.0661E+01 -4.7035E+01  2.5147E+03

           1    2.50025E+00    -1.8594E-02  1.1857E-03  2.6129E-04  1.8634E-02
ac ID =   33377                -2.0103E-01 -8.8756E-01  1.3013E-01  9.1930E-01
                               -3.7479E-01  1.0665E+01 -4.7045E+01  2.5147E+03

           1    2.60024E+00    -6.6506E-03  5.9032E-03 -7.6423E-02  7.6939E-02
ac ID =   33377                -2.0829E-01 -1.8639E-01  4.1102E-02  2.8251E-01
                               -3.7490E-01  1.0671E+01 -4.7056E+01  2.5147E+03

           1    2.70023E+00    -1.1482E-02 -1.6860E-03  9.7824E-03  1.5178E-02
ac ID =   33377                 3.1372E-02 -2.0923E-01  3.2353E-02  2.1403E-01
                               -3.7501E-01  1.0676E+01 -4.7068E+01  2.5147E+03

           1    2.80022E+00    -4.5772E-03 -4.7449E-03  6.1900E-02  6.2250E-02
ac ID =   33377                 3.6766E-01 -1.1157E-01 -1.6685E-02  3.8458E-01
                               -3.7510E-01  1.0682E+01 -4.7079E+01  2.5147E+03

           1    2.90021E+00     6.5599E-03 -2.6573E-03 -1.1870E-02  1.3820E-02
ac ID =   33377                 1.4901E-01  3.3338E-01 -8.1072E-02  3.7406E-01
                               -3.7520E-01  1.0687E+01 -4.7090E+01  2.5147E+03

           1    3.00020E+00    -4.1932E-03  2.2797E-03 -9.2349E-02  9.2472E-02
ac ID =   33377                -4.2021E-02  9.9288E-02 -5.8568E-02  1.2270E-01
                               -3.7529E-01  1.0692E+01 -4.7101E+01  2.5147E+03

           1    3.10019E+00     4.9735E-03  7.8548E-04 -1.8732E-02  1.9397E-02
ac ID =   33377                 1.8887E-02 -1.4373E-01 -3.8638E-02  1.5003E-01
                               -3.7537E-01  1.0698E+01 -4.7113E+01  2.5147E+03

           1    3.20018E+00     1.1902E-02  1.6471E-03  5.6223E-02  5.7492E-02
ac ID =   33377                -1.4510E-02 -2.3622E-01  3.3106E-02  2.3897E-01
                               -3.7544E-01  1.0704E+01 -4.7125E+01  2.5147E+03

           1    3.30017E+00     1.3046E-02  1.6132E-03 -8.5969E-03  1.5707E-02
ac ID =   33377                -2.4101E-01 -1.4910E-01  1.1900E-01  3.0737E-01
                               -3.7552E-01  1.0709E+01 -4.7137E+01  2.5147E+03

           1    3.40016E+00     1.3058E-02  4.3547E-03 -1.3096E-01  1.3168E-01
ac ID =   33377                -3.5171E-01  2.8904E-01  1.2067E-01  4.7096E-01
                               -3.7561E-01  1.0715E+01 -4.7149E+01  2.5147E+03

           1    3.50015E+00     9.9935E-03  3.6720E-03 -1.6555E-01  1.6589E-01
ac ID =   33377                -1.7336E-01  5.9050E-01  2.7275E-02  6.1603E-01
                               -3.7572E-01  1.0722E+01 -4.7161E+01  2.5147E+03

           1    3.60014E+00     2.8295E-02 -2.4786E-03 -9.9253E-02  1.0324E-01
ac ID =   33377                 6.3225E-02  1.2149E+00 -1.5380E-01  1.2263E+00
                               -3.7581E-01  1.0729E+01 -4.7173E+01  2.5147E+03

           1    3.70013E+00     3.3478E-02 -5.6417E-03 -9.7642E-02  1.0338E-01
ac ID =   33377                 2.8244E-01  1.3135E+00 -2.4350E-01  1.3654E+00
                               -3.7589E-01  1.0736E+01 -4.7186E+01  2.5147E+03

           1    3.80012E+00     3.7738E-02  1.4556E-03 -1.9505E-01  1.9867E-01
ac ID =   33377                 1.4641E-01  1.6167E+00  5.1168E-02  1.6241E+00
                               -3.7599E-01  1.0744E+01 -4.7198E+01  2.5147E+03

           1    3.90011E+00     4.0459E-02 -3.1356E-04 -2.6724E-01  2.7028E-01
ac ID =   33377                 1.6157E-01  1.7834E+00  1.4606E-01  1.7967E+00
                               -3.7606E-01  1.0752E+01 -4.7210E+01  2.5147E+03

           1    4.00010E+00     4.0100E-02  1.2455E-03 -2.2189E-01  2.2549E-01
ac ID =   33377                -1.4943E-01  1.4465E+00 -6.5028E-02  1.4557E+00
                               -3.7611E-01  1.0761E+01 -4.7223E+01  2.5147E+03

           1    4.10009E+00     4.6304E-02  1.6773E-03 -1.9871E-01  2.0404E-01
ac ID =   33377                -2.6819E-01  1.4166E+00 -2.6843E-01  1.4665E+00
                               -3.7616E-01  1.0771E+01 -4.7236E+01  2.5147E+03

           1    4.20008E+00     4.4371E-02  2.6581E-03 -2.6525E-01  2.6895E-01
ac ID =   33377                -3.4842E-01  1.4757E+00 -1.1432E-01  1.5206E+00
                               -3.7623E-01  1.0781E+01 -4.7249E+01  2.5147E+03

           1    4.30007E+00     5.4357E-02  9.1049E-03 -3.7539E-01  3.7941E-01
ac ID =   33377                -5.2729E-01  2.0485E+00  2.2819E-01  2.1275E+00
                               -3.7631E-01  1.0792E+01 -4.7262E+01  2.5147E+03

           1    4.40006E+00     6.2011E-02  6.3449E-03 -3.5321E-01  3.5867E-01
ac ID =   33377                -2.7848E-01  2.3293E+00  3.1091E-01  2.3664E+00
                               -3.7639E-01  1.0805E+01 -4.7275E+01  2.5147E+03

           1    4.50005E+00     6.9126E-02  1.4517E-03 -2.9223E-01  3.0030E-01
ac ID =   33377                 9.3204E-02  2.2826E+00  2.3863E-02  2.2847E+00
                               -3.7650E-01  1.0818E+01 -4.7289E+01  2.5147E+03

           1    4.60004E+00     7.2824E-02 -3.9957E-03 -3.5091E-01  3.5841E-01
ac ID =   33377                 1.1490E-01  2.4818E+00 -2.1668E-01  2.4939E+00
                               -3.7658E-01  1.0833E+01 -4.7303E+01  2.5147E+03

           1    4.70003E+00     8.0174E-02  6.2765E-04 -4.4365E-01  4.5083E-01
ac ID =   33377                 1.2858E-01  2.5333E+00 -2.8891E-01  2.5530E+00
                               -3.7668E-01  1.0849E+01 -4.7317E+01  2.5147E+03

           1    4.80002E+00     7.5891E-02  6.3188E-03 -4.7675E-01  4.8280E-01
ac ID =   33377                -1.0570E-01  2.6181E+00  6.2117E-02  2.6210E+00
                               -3.7678E-01  1.0866E+01 -4.7331E+01  2.5147E+03

           1    4.90001E+00     8.6559E-02 -6.5971E-04 -4.3635E-01  4.4485E-01
ac ID =   33377                -1.5305E-01  2.7295E+00  1.3658E-01  2.7372E+00
                               -3.7685E-01  1.0885E+01 -4.7346E+01  2.5147E+03

           1    5.00000E+00     8.0725E-02  4.3230E-03 -4.3918E-01  4.4656E-01
ac ID =   33377                -5.0950E-01  2.8095E+00 -3.3503E-02  2.8555E+00
                               -3.7696E-01  1.0905E+01 -4.7361E+01  2.5147E+03

           1    5.10049E+00     8.7862E-02  7.5480E-03 -5.3274E-01  5.3999E-01
ac ID =   33377                -6.0734E-01  2.9662E+00 -1.7659E-01  3.0329E+00
                               -3.7710E-01  1.0927E+01 -4.7376E+01  2.5147E+03

           1    5.20048E+00     9.0856E-02  9.7570E-03 -5.7247E-01  5.7972E-01
ac ID =   33377                -6.3906E-01  3.3385E+00 -1.6035E-01  3.4028E+00
                               -3.7729E-01  1.0950E+01 -4.7392E+01  2.5147E+03

           1    5.30047E+00     9.3335E-02  1.6413E-03 -5.6087E-01  5.6859E-01
ac ID =   33377                -5.1203E-01  3.3592E+00 -4.6991E-02  3.3984E+00
                               -3.7750E-01  1.0975E+01 -4.7408E+01  2.5147E+03

           1    5.40046E+00     1.0615E-01 -1.5714E-04 -5.7410E-01  5.8383E-01
ac ID =   33377                -1.1300E-01  3.5659E+00 -4.4641E-02  3.5680E+00
                               -3.7777E-01  1.1002E+01 -4.7424E+01  2.5147E+03

           1    5.50045E+00     9.8026E-02  4.8044E-04 -6.6086E-01  6.6809E-01
ac ID =   33377                -1.7433E-01  3.6790E+00 -6.3164E-02  3.6836E+00
                               -3.7805E-01  1.1029E+01 -4.7440E+01  2.5147E+03

           1    5.60044E+00     1.0417E-01  3.7806E-03 -7.4677E-01  7.5401E-01
ac ID =   33377                -2.0875E-01  3.7959E+00 -1.1730E-01  3.8034E+00
                               -3.7838E-01  1.1059E+01 -4.7457E+01  2.5147E+03

           1    5.70043E+00     1.0729E-01 -5.6806E-03 -7.7458E-01  7.8200E-01
ac ID =   33377                 3.6646E-02  4.0423E+00 -1.1030E-01  4.0440E+00
                               -3.7873E-01  1.1090E+01 -4.7473E+01  2.5147E+03

           1    5.80042E+00     1.1631E-01  4.4084E-04 -7.4244E-01  7.5149E-01
ac ID =   33377                -4.5801E-01  3.9446E+00 -5.5741E-02  3.9715E+00
                               -3.7906E-01  1.1123E+01 -4.7490E+01  2.5147E+03

           1    5.90041E+00     1.1488E-01  6.7205E-03 -7.8471E-01  7.9310E-01
ac ID =   33377                -5.9997E-01  4.2436E+00 -5.3849E-02  4.2862E+00
                               -3.7949E-01  1.1157E+01 -4.7507E+01  2.5147E+03

           1    6.00040E+00     1.1920E-01  3.5646E-03 -8.5895E-01  8.6719E-01
ac ID =   33377                -6.3267E-01  4.2949E+00  1.7201E-01  4.3447E+00
                               -3.7994E-01  1.1193E+01 -4.7523E+01  2.5147E+03

           1    6.10039E+00     1.2359E-01  4.0299E-03 -8.6190E-01  8.7073E-01
ac ID =   33377                -5.0351E-01  4.3487E+00  1.4550E-02  4.3778E+00
                               -3.8044E-01  1.1231E+01 -4.7540E+01  2.5147E+03

           1    6.20038E+00     1.2002E-01  9.2736E-03 -8.6103E-01  8.6940E-01
ac ID =   33377                -8.3449E-01  4.2054E+00 -2.6700E-01  4.2957E+00
                               -3.8096E-01  1.1270E+01 -4.7557E+01  2.5147E+03

           1    6.30037E+00     1.2808E-01 -2.9850E-03 -9.0822E-01  9.1722E-01
ac ID =   33377                -2.7492E-01  4.2852E+00 -2.6016E-01  4.3019E+00
                               -3.8156E-01  1.1311E+01 -4.7573E+01  2.5147E+03

           1    6.40036E+00     1.2550E-01 -2.2399E-03 -1.0054E+00  1.0132E+00
ac ID =   33377                -1.8110E-01  4.8369E+00  1.1155E-01  4.8415E+00
                               -3.8217E-01  1.1354E+01 -4.7590E+01  2.5147E+03

           1    6.50035E+00     1.3440E-01 -4.0231E-03 -1.0554E+00  1.0639E+00
ac ID =   33377                -2.8029E-01  5.1247E+00  1.4785E-01  5.1345E+00
                               -3.8277E-01  1.1398E+01 -4.7606E+01  2.5147E+03

           1    6.60034E+00     1.4208E-01  1.4178E-02 -1.0605E+00  1.0701E+00
ac ID =   33377                -5.0873E-01  5.4167E+00  8.8222E-02  5.4413E+00
                               -3.8349E-01  1.1445E+01 -4.7622E+01  2.5147E+03

           1    6.70033E+00     1.4346E-01 -1.3267E-02 -1.0736E+00  1.0833E+00
ac ID =   33377                -1.0547E-01  5.4083E+00 -1.6024E-01  5.4117E+00
                               -3.8412E-01  1.1492E+01 -4.7638E+01  2.5147E+03

           1    6.80032E+00     1.4675E-01  2.8059E-03 -1.1249E+00  1.1345E+00
ac ID =   33377                -6.5625E-01  5.6903E+00 -2.0952E-01  5.7318E+00
                               -3.8480E-01  1.1542E+01 -4.7654E+01  2.5147E+03

           1    6.90031E+00     1.4553E-01  1.4758E-02 -1.1895E+00  1.1985E+00
ac ID =   33377                -8.7979E-01  5.6998E+00 -5.9619E-02  5.7676E+00
                               -3.8557E-01  1.1593E+01 -4.7669E+01  2.5147E+03

           1    7.00030E+00     1.5957E-01  3.7666E-03 -1.2143E+00  1.2248E+00
ac ID =   33377                -7.8539E-01  6.0359E+00  6.9031E-03  6.0868E+00
                               -3.8631E-01  1.1645E+01 -4.7684E+01  2.5147E+03

           1    7.10029E+00     1.5173E-01 -3.5161E-03 -1.2427E+00  1.2519E+00
ac ID =   33377                -4.7038E-01  5.8567E+00 -1.7542E-01  5.8782E+00
                               -3.8709E-01  1.1700E+01 -4.7698E+01  2.5147E+03

           1    7.20028E+00     1.5377E-01  7.2479E-03 -1.3188E+00  1.3277E+00
ac ID =   33377                -8.5090E-01  6.1594E+00 -2.0406E-01  6.2212E+00
                               -3.8792E-01  1.1756E+01 -4.7712E+01  2.5147E+03

           1    7.30027E+00     1.7095E-01  9.7910E-03 -1.4052E+00  1.4156E+00
ac ID =   33377                -5.5427E-01  6.8827E+00 -1.0894E-01  6.9059E+00
                               -3.8881E-01  1.1813E+01 -4.7725E+01  2.5147E+03

           1    7.40026E+00     1.5763E-01 -9.6452E-03 -1.4301E+00  1.4388E+00
ac ID =   33377                -1.7189E-01  7.0040E+00  5.2879E-02  7.0063E+00
                               -3.8964E-01  1.1872E+01 -4.7737E+01  2.5147E+03

           1    7.50025E+00     1.8571E-01  2.0943E-03 -1.4383E+00  1.4503E+00
ac ID =   33377                -3.7389E-01  7.4751E+00 -3.0123E-02  7.4845E+00
                               -3.9056E-01  1.1933E+01 -4.7749E+01  2.5147E+03

           1    7.60024E+00     1.8415E-01  4.8815E-03 -1.4742E+00  1.4856E+00
ac ID =   33377                -6.6867E-01  7.5828E+00 -2.4441E-01  7.6161E+00
                               -3.9148E-01  1.1995E+01 -4.7760E+01  2.5147E+03

           1    7.70023E+00     1.7946E-01 -3.3611E-03 -1.5119E+00  1.5225E+00
ac ID =   33377                -5.0425E-01  7.4074E+00 -1.3555E-01  7.4258E+00
                               -3.9239E-01  1.2058E+01 -4.7770E+01  2.5147E+03

           1    7.80022E+00     1.7241E-01 -4.6403E-06 -1.5482E+00  1.5578E+00
ac ID =   33377                -7.7147E-01  7.1811E+00  1.4186E-02  7.2225E+00
                               -3.9335E-01  1.2123E+01 -4.7779E+01  2.5147E+03

           1    7.90021E+00     1.9338E-01  1.2158E-02 -1.5571E+00  1.5691E+00
ac ID =   33377                -1.0813E+00  7.4596E+00 -1.4088E-02  7.5375E+00
                               -3.9435E-01  1.2190E+01 -4.7787E+01  2.5147E+03

           1    8.00020E+00     1.9397E-01  4.7741E-03 -1.6099E+00  1.6215E+00
ac ID =   33377                -1.0063E+00  7.6929E+00 -6.0888E-02  7.7586E+00
                               -3.9535E-01  1.2258E+01 -4.7794E+01  2.5147E+03

           1    8.10019E+00     1.9122E-01 -1.2183E-03 -1.6861E+00  1.6970E+00
ac ID =   33377                -6.9085E-01  8.0499E+00 -9.1109E-02  8.0800E+00
                               -3.9643E-01  1.2327E+01 -4.7800E+01  2.5147E+03

           1    8.20018E+00     2.1594E-01  6.1098E-03 -1.7340E+00  1.7474E+00
ac ID =   33377                -8.8733E-01  8.7449E+00  1.2883E-02  8.7898E+00
                               -3.9749E-01  1.2397E+01 -4.7805E+01  2.5147E+03

           1    8.30017E+00     1.9546E-01  1.0958E-03 -1.7306E+00  1.7416E+00
ac ID =   33377                -6.3330E-01  8.5933E+00 -7.0278E-02  8.6169E+00
                               -3.9859E-01  1.2469E+01 -4.7808E+01  2.5147E+03

           1    8.40016E+00     2.3139E-01  3.7904E-03 -1.7614E+00  1.7765E+00
ac ID =   33377                -5.5425E-01  8.8929E+00 -9.0361E-02  8.9106E+00
                               -3.9973E-01  1.2542E+01 -4.7810E+01  2.5147E+03

           1    8.50015E+00     2.1271E-01 -1.0927E-02 -1.8312E+00  1.8436E+00
ac ID =   33377                -5.6100E-01  9.3058E+00 -9.4029E-02  9.3232E+00
                               -4.0082E-01  1.2616E+01 -4.7811E+01  2.5147E+03

           1    8.60014E+00     2.0437E-01  7.5830E-03 -1.8668E+00  1.8780E+00
ac ID =   33377                -1.0529E+00  8.9504E+00 -2.3008E-01  9.0151E+00
                               -4.0196E-01  1.2691E+01 -4.7810E+01  2.5147E+03

           1    8.70013E+00     2.1660E-01  7.5671E-03 -1.8856E+00  1.8980E+00
ac ID =   33377                -1.0068E+00  9.2806E+00 -1.4590E-01  9.3362E+00
                               -4.0317E-01  1.2768E+01 -4.7808E+01  2.5147E+03

           1    8.80012E+00     2.2920E-01 -1.8750E-03 -1.9158E+00  1.9295E+00
ac ID =   33377                -1.0177E+00  9.1889E+00  7.5769E-02  9.2454E+00
                               -4.0434E-01  1.2846E+01 -4.7804E+01  2.5147E+03

           1    8.90011E+00     2.3935E-01  4.8124E-03 -1.9715E+00  1.9860E+00
ac ID =   33377                -1.1984E+00  9.8495E+00  9.9346E-02  9.9226E+00
                               -4.0554E-01  1.2924E+01 -4.7799E+01  2.5147E+03

           1    9.00010E+00     2.2901E-01  8.5861E-03 -2.0304E+00  2.0433E+00
ac ID =   33377                -1.1307E+00  9.9329E+00  1.6890E-01  9.9985E+00
                               -4.0682E-01  1.3005E+01 -4.7792E+01  2.5147E+03

           1    9.10009E+00     2.5507E-01  3.2762E-04 -2.0368E+00  2.0527E+00
ac ID =   33377                -8.4178E-01  1.0294E+01  1.1986E-01  1.0329E+01
                               -4.0811E-01  1.3086E+01 -4.7784E+01  2.5147E+03

           1    9.20008E+00     2.4275E-01 -7.3894E-03 -2.0473E+00  2.0616E+00
ac ID =   33377                -5.9496E-01  1.0253E+01 -1.7200E-01  1.0272E+01
                               -4.0934E-01  1.3169E+01 -4.7773E+01  2.5147E+03

           1    9.30007E+00     2.4074E-01  4.6377E-03 -2.0918E+00  2.1056E+00
ac ID =   33377                -9.6604E-01  9.7818E+00 -4.1365E-02  9.8294E+00
                               -4.1064E-01  1.3252E+01 -4.7762E+01  2.5147E+03

           1    9.40006E+00     2.4470E-01  5.4305E-03 -2.1332E+00  2.1472E+00
ac ID =   33377                -7.8569E-01  1.0182E+01  8.2870E-02  1.0212E+01
                               -4.1196E-01  1.3337E+01 -4.7748E+01  2.5147E+03

           1    9.50005E+00     2.5315E-01 -1.5816E-03 -2.1571E+00  2.1719E+00
ac ID =   33377                -1.0293E+00  1.0162E+01  1.8004E-01  1.0216E+01
                               -4.1319E-01  1.3423E+01 -4.7733E+01  2.5147E+03

           1    9.60004E+00     2.6203E-01  2.3105E-03 -2.1491E+00  2.1650E+00
ac ID =   33377                -1.2544E+00  1.0439E+01 -2.3912E-01  1.0517E+01
                               -4.1448E-01  1.3511E+01 -4.7716E+01  2.5147E+03

           1    9.70003E+00     2.5873E-01 -3.8595E-03 -2.1504E+00  2.1659E+00
ac ID =   33377                -9.8801E-01  1.0353E+01 -4.4615E-01  1.0410E+01
                               -4.1583E-01  1.3599E+01 -4.7697E+01  2.5147E+03

           1    9.80002E+00     2.7380E-01  7.1763E-03 -2.2151E+00  2.2319E+00
ac ID =   33377                -1.1864E+00  1.0722E+01 -1.4619E-01  1.0789E+01
                               -4.1718E-01  1.3689E+01 -4.7676E+01  2.5147E+03

           1    9.90001E+00     2.5236E-01  1.0765E-03 -2.2110E+00  2.2254E+00
ac ID =   33377                -1.1035E+00  1.0382E+01  1.4000E-01  1.0441E+01
                               -4.1853E-01  1.3780E+01 -4.7653E+01  2.5147E+03

           1    1.00005E+01     2.8261E-01  8.5927E-03 -2.2179E+00  2.2358E+00
ac ID =   33377                -8.9507E-01  1.0733E+01 -7.2226E-02  1.0770E+01
                               -4.1991E-01  1.3872E+01 -4.7629E+01  2.5147E+03

           1    1.01005E+01     2.5792E-01 -1.0170E-03 -2.2450E+00  2.2598E+00
ac ID =   33377                -7.6137E-01  1.0713E+01 -3.5219E-01  1.0746E+01
                               -4.2124E-01  1.3966E+01 -4.7602E+01  2.5147E+03

           1    1.02005E+01     2.7714E-01 -7.6204E-03 -2.2663E+00  2.2832E+00
ac ID =   33377                -7.5196E-01  1.0743E+01 -3.3303E-01  1.0774E+01
                               -4.2254E-01  1.4060E+01 -4.7574E+01  2.5147E+03

           1    1.03005E+01     2.7317E-01  1.8760E-02 -2.3107E+00  2.3269E+00
ac ID =   33377                -1.1996E+00  1.1152E+01 -9.8638E-02  1.1217E+01
                               -4.2388E-01  1.4155E+01 -4.7543E+01  2.5147E+03

           1    1.04005E+01     2.8353E-01 -5.9963E-03 -2.3040E+00  2.3214E+00
ac ID =   33377                -7.7568E-01  1.1067E+01  2.4991E-01  1.1097E+01
                               -4.2510E-01  1.4250E+01 -4.7510E+01  2.5147E+03

           1    1.05004E+01     2.8142E-01  4.0072E-03 -2.2888E+00  2.3060E+00
ac ID =   33377                -1.1098E+00  1.0991E+01  4.0421E-01  1.1055E+01
                               -4.2630E-01  1.4347E+01 -4.7476E+01  2.5147E+03

           1    1.06004E+01     2.8845E-01 -1.0130E-03 -2.2946E+00  2.3127E+00
ac ID =   33377                -9.2144E-01  1.1035E+01  5.7308E-02  1.1073E+01
                               -4.2751E-01  1.4445E+01 -4.7439E+01  2.5147E+03

           1    1.07004E+01     2.7892E-01  1.8209E-02 -2.2955E+00  2.3125E+00
ac ID =   33377                -1.3331E+00  1.0844E+01 -2.4588E-02  1.0926E+01
                               -4.2867E-01  1.4544E+01 -4.7400E+01  2.5147E+03

           1    1.08004E+01     2.9073E-01 -4.3085E-03 -2.3054E+00  2.3237E+00
ac ID =   33377                -6.7842E-01  1.0821E+01  2.6270E-02  1.0842E+01
                               -4.2976E-01  1.4644E+01 -4.7359E+01  2.5147E+03

           1    1.09004E+01     2.9234E-01  6.8417E-04 -2.3162E+00  2.3346E+00
ac ID =   33377                -9.5180E-01  1.0617E+01  1.7590E-01  1.0661E+01
                               -4.3078E-01  1.4744E+01 -4.7316E+01  2.5147E+03

           1    1.10004E+01     2.8071E-01  9.1018E-03 -2.3235E+00  2.3404E+00
ac ID =   33377                -1.1647E+00  1.0603E+01  5.9996E-02  1.0667E+01
                               -4.3179E-01  1.4846E+01 -4.7271E+01  2.5147E+03

           1    1.11004E+01     2.9651E-01  2.3379E-04 -2.3207E+00  2.3396E+00
ac ID =   33377                -8.3174E-01  1.0820E+01 -1.3282E-01  1.0853E+01
                               -4.3273E-01  1.4948E+01 -4.7223E+01  2.5147E+03

           1    1.12004E+01     3.0360E-01 -8.7675E-04 -2.3214E+00  2.3412E+00
ac ID =   33377                -6.6467E-01  1.0804E+01 -4.7103E-01  1.0834E+01
                               -4.3364E-01  1.5052E+01 -4.7174E+01  2.5147E+03

           1    1.13004E+01     2.8919E-01  3.6886E-03 -2.2801E+00  2.2984E+00
ac ID =   33377                -1.0146E+00  1.0572E+01 -2.8666E-01  1.0625E+01
                               -4.3447E-01  1.5156E+01 -4.7123E+01  2.5147E+03

           1    1.14004E+01     3.0834E-01  8.0489E-03 -2.2624E+00  2.2833E+00
ac ID =   33377                -1.0035E+00  1.0399E+01 -1.7053E-01  1.0449E+01
                               -4.3529E-01  1.5261E+01 -4.7069E+01  2.5147E+03

           1    1.15003E+01     2.9647E-01  2.3414E-03 -2.2482E+00  2.2677E+00
ac ID =   33377                -7.1994E-01  1.0122E+01  9.7747E-02  1.0148E+01
                               -4.3612E-01  1.5367E+01 -4.7014E+01  2.5147E+03

           1    1.16003E+01     2.9681E-01  4.0512E-03 -2.2361E+00  2.2557E+00
ac ID =   33377                -9.0628E-01  9.9688E+00  1.2217E-01  1.0011E+01
                               -4.3680E-01  1.5474E+01 -4.6956E+01  2.5147E+03

           1    1.17003E+01     2.9813E-01  5.4025E-03 -2.2410E+00  2.2607E+00
ac ID =   33377                -1.1715E+00  1.0064E+01 -2.5163E-01  1.0135E+01
                               -4.3752E-01  1.5582E+01 -4.6896E+01  2.5147E+03

           1    1.18003E+01     2.9002E-01  5.2616E-03 -2.2135E+00  2.2324E+00
ac ID =   33377                -5.4211E-01  9.8632E+00 -3.3863E-01  9.8839E+00
                               -4.3825E-01  1.5690E+01 -4.6835E+01  2.5147E+03

           1    1.19003E+01     2.9870E-01 -5.0852E-03 -2.2037E+00  2.2239E+00
ac ID =   33377                -6.9235E-01  1.0019E+01  1.2341E-02  1.0043E+01
                               -4.3881E-01  1.5799E+01 -4.6771E+01  2.5147E+03

           1    1.20003E+01     3.0679E-01  1.7743E-02 -2.1970E+00  2.2184E+00
ac ID =   33377                -1.0516E+00  9.9484E+00  8.5489E-03  1.0004E+01
                               -4.3946E-01  1.5908E+01 -4.6704E+01  2.5147E+03

           1    1.21003E+01     2.9606E-01 -1.4639E-03 -2.1456E+00  2.1659E+00
ac ID =   33377                -6.2140E-01  9.4970E+00 -9.0346E-02  9.5178E+00
                               -4.4001E-01  1.6019E+01 -4.6636E+01  2.5147E+03

           1    1.22003E+01     2.9705E-01 -1.1634E-02 -2.1037E+00  2.1246E+00
ac ID =   33377                -3.8342E-01  9.4453E+00 -4.4888E-02  9.4532E+00
                               -4.4049E-01  1.6129E+01 -4.6566E+01  2.5147E+03

           1    1.23003E+01     2.9035E-01  7.3564E-03 -2.0719E+00  2.0921E+00
ac ID =   33377                -8.8526E-01  8.8149E+00  9.0010E-02  8.8597E+00
                               -4.4098E-01  1.6240E+01 -4.6493E+01  2.5147E+03

           1    1.24003E+01     2.8839E-01  1.5338E-03 -2.0294E+00  2.0498E+00
ac ID =   33377                -7.0434E-01  8.3693E+00  1.4019E-01  8.4001E+00
                               -4.4151E-01  1.6352E+01 -4.6419E+01  2.5147E+03

           1    1.25002E+01     2.8494E-01 -9.9648E-03 -1.9953E+00  2.0156E+00
ac ID =   33377                -4.5113E-01  7.8524E+00  2.0219E-01  7.8680E+00
                               -4.4196E-01  1.6464E+01 -4.6342E+01  2.5147E+03

           1    1.26002E+01     2.9848E-01 -3.9590E-03 -1.9769E+00  1.9993E+00
ac ID =   33377                -6.5099E-01  8.1476E+00  2.2872E-02  8.1736E+00
                               -4.4248E-01  1.6576E+01 -4.6263E+01  2.5147E+03

           1    1.27002E+01     2.7530E-01  6.6122E-03 -1.9499E+00  1.9693E+00
ac ID =   33377                -6.1344E-01  7.8001E+00 -7.9566E-02  7.8246E+00
                               -4.4305E-01  1.6689E+01 -4.6182E+01  2.5147E+03

           1    1.28002E+01     2.7373E-01 -5.8482E-03 -1.9017E+00  1.9214E+00
ac ID =   33377                -6.6186E-01  7.6958E+00 -1.9982E-01  7.7268E+00
                               -4.4355E-01  1.6802E+01 -4.6099E+01  2.5147E+03

           1    1.29002E+01     3.0713E-01 -8.1143E-03 -1.8644E+00  1.8895E+00
ac ID =   33377                -4.6484E-01  7.9121E+00 -2.3280E-01  7.9291E+00
                               -4.4409E-01  1.6915E+01 -4.6014E+01  2.5147E+03

           1    1.30002E+01     2.6786E-01 -3.7886E-04 -1.7943E+00  1.8142E+00
ac ID =   33377                -5.7798E-01  6.8538E+00  7.6430E-02  6.8786E+00
                               -4.4471E-01  1.7028E+01 -4.5927E+01  2.5147E+03

           1    1.31002E+01     2.7522E-01  9.9289E-03 -1.7686E+00  1.7899E+00
ac ID =   33377                -7.8654E-01  6.6103E+00  2.4820E-01  6.6616E+00
                               -4.4529E-01  1.7142E+01 -4.5838E+01  2.5147E+03

           1    1.32002E+01     2.5848E-01 -9.1968E-03 -1.7230E+00  1.7423E+00
ac ID =   33377                -8.1696E-01  5.9736E+00  1.7185E-01  6.0316E+00
                               -4.4588E-01  1.7256E+01 -4.5748E+01  2.5147E+03

           1    1.33002E+01     2.8555E-01  4.4434E-03 -1.6785E+00  1.7026E+00
ac ID =   33377                -4.5884E-01  5.8916E+00 -5.5409E-01  5.9354E+00
                               -4.4658E-01  1.7370E+01 -4.5655E+01  2.5147E+03

           1    1.34002E+01     2.4773E-01 -3.9980E-03 -1.6305E+00  1.6492E+00
ac ID =   33377                -1.0140E+00  5.2433E+00 -4.7201E-01  5.3612E+00
                               -4.4720E-01  1.7484E+01 -4.5561E+01  2.5147E+03

           1    1.35001E+01     2.5503E-01  2.9520E-03 -1.6088E+00  1.6289E+00
ac ID =   33377                -6.0719E-01  5.0017E+00 -1.7540E-01  5.0415E+00
                               -4.4798E-01  1.7599E+01 -4.5465E+01  2.5147E+03

           1    1.36001E+01     2.5833E-01  1.4275E-03 -1.5449E+00  1.5664E+00
ac ID =   33377                -3.6532E-01  4.8994E+00  1.0782E-01  4.9142E+00
                               -4.4875E-01  1.7714E+01 -4.5367E+01  2.5147E+03

           1    1.37001E+01     2.4828E-01  2.4727E-03 -1.4851E+00  1.5057E+00
ac ID =   33377                -5.0568E-01  4.0495E+00  2.6104E-02  4.0810E+00
                               -4.4954E-01  1.7829E+01 -4.5267E+01  2.5147E+03

           1    1.38001E+01     2.3609E-01  1.4740E-04 -1.4387E+00  1.4579E+00
ac ID =   33377                -3.3144E-01  3.5222E+00 -3.5441E-01  3.5555E+00
                               -4.5044E-01  1.7944E+01 -4.5167E+01  2.5147E+03

           1    1.39001E+01     2.3922E-01 -2.1033E-03 -1.3962E+00  1.4166E+00
ac ID =   33377                -3.7157E-01  3.3553E+00 -1.9837E-01  3.3816E+00
                               -4.5137E-01  1.8060E+01 -4.5064E+01  2.5147E+03

           1    1.40001E+01     2.2392E-01 -9.6411E-03 -1.3448E+00  1.3633E+00
ac ID =   33377                -1.1950E-01  2.7282E+00  8.9805E-02  2.7323E+00
                               -4.5230E-01  1.8175E+01 -4.4960E+01  2.5147E+03

           1    1.41001E+01     2.1680E-01  2.0021E-03 -1.2790E+00  1.2973E+00
ac ID =   33377                -5.9721E-01  2.1828E+00  2.2491E-01  2.2742E+00
                               -4.5332E-01  1.8291E+01 -4.4855E+01  2.5147E+03

           1    1.42001E+01     2.2027E-01  1.6467E-02 -1.2521E+00  1.2714E+00
ac ID =   33377                -5.8035E-01  2.1088E+00  1.5508E-02  2.1872E+00
                               -4.5443E-01  1.8407E+01 -4.4748E+01  2.5147E+03

           1    1.43001E+01     1.8827E-01 -1.0356E-02 -1.1633E+00  1.1785E+00
ac ID =   33377                -3.8995E-01  1.4396E+00 -4.4708E-02  1.4922E+00
                               -4.5548E-01  1.8524E+01 -4.4640E+01  2.5147E+03

           1    1.44001E+01     2.0408E-01 -3.1659E-03 -1.1134E+00  1.1320E+00
ac ID =   33377                -2.2033E-01  1.3144E+00 -9.1708E-02  1.3359E+00
                               -4.5656E-01  1.8640E+01 -4.4531E+01  2.5147E+03

           1    1.45000E+01     1.9200E-01  3.6191E-03 -1.0882E+00  1.1050E+00
ac ID =   33377                -3.6777E-01  1.3666E+00  3.2532E-01  1.4521E+00
                               -4.5768E-01  1.8756E+01 -4.4420E+01  2.5147E+03

           1    1.46000E+01     1.7832E-01  1.0894E-03 -1.0081E+00  1.0237E+00
ac ID =   33377                -2.0601E-01  6.0115E-01  6.1267E-01  8.8272E-01
                               -4.5873E-01  1.8873E+01 -4.4309E+01  2.5147E+03

           1    1.47000E+01     1.8879E-01 -1.0331E-02 -9.5064E-01  9.6926E-01
ac ID =   33377                 1.6576E-01  5.9984E-01  5.5467E-01  8.3363E-01
                               -4.5981E-01  1.8990E+01 -4.4196E+01  2.5147E+03

           1    1.48005E+01     1.5694E-01 -5.5452E-03 -8.8270E-01  8.9656E-01
ac ID =   33377                 8.9760E-02 -4.9800E-02  2.8590E-01  3.0376E-01
                               -4.6086E-01  1.9107E+01 -4.4082E+01  2.5147E+03

           1    1.49005E+01     1.6052E-01  3.7953E-03 -8.7982E-01  8.9435E-01
ac ID =   33377                -3.7250E-01  1.8260E-03 -3.5836E-01  5.1690E-01
                               -4.6186E-01  1.9223E+01 -4.3967E+01  2.5147E+03

           1    1.50005E+01     1.4465E-01  3.6162E-03 -8.0822E-01  8.2106E-01
ac ID =   33377                -2.8195E-01 -4.0012E-01  1.2044E-01  5.0408E-01
                               -4.6287E-01  1.9340E+01 -4.3851E+01  2.5147E+03

           1    1.51005E+01     1.6321E-01 -8.4605E-03 -7.1619E-01  7.3460E-01
ac ID =   33377                 3.6999E-01 -3.3822E-01  3.0073E-01  5.8457E-01
                               -4.6386E-01  1.9456E+01 -4.3734E+01  2.5147E+03

           1    1.52005E+01     1.3821E-01  1.2591E-02 -6.9087E-01  7.0467E-01
ac ID =   33377                -7.3613E-01 -4.0452E-01  2.5608E-01  8.7812E-01
                               -4.6484E-01  1.9573E+01 -4.3617E+01  2.5147E+03

           1    1.53005E+01     1.2334E-01  6.3479E-03 -6.1865E-01  6.3086E-01
ac ID =   33377                -3.1978E-01 -7.5012E-01 -2.8565E-02  8.1594E-01
                               -4.6580E-01  1.9689E+01 -4.3498E+01  2.5147E+03

           1    1.54005E+01     1.3999E-01 -8.1463E-03 -5.7695E-01  5.9375E-01
ac ID =   33377                 2.1892E-01 -2.2811E-01 -2.7026E-01  4.1593E-01
                               -4.6677E-01  1.9806E+01 -4.3380E+01  2.5147E+03

           1    1.55004E+01     1.5204E-01 -5.7755E-03 -5.1311E-01  5.3519E-01
ac ID =   33377                 1.6715E-01  3.5891E-01 -5.0042E-01  6.3811E-01
                               -4.6766E-01  1.9922E+01 -4.3260E+01  2.5147E+03

           1    1.56004E+01     1.3530E-01  1.9156E-02 -4.5865E-01  4.7857E-01
ac ID =   33377                -4.9755E-01  8.0985E-01 -1.3835E-01  9.6050E-01
                               -4.6860E-01  2.0039E+01 -4.3140E+01  2.5147E+03

           1    1.57004E+01     1.2394E-01 -2.4565E-03 -4.0859E-01  4.2698E-01
ac ID =   33377                 3.0754E-01  8.8007E-01  1.5403E-01  9.4489E-01
                               -4.6952E-01  2.0156E+01 -4.3020E+01  2.5147E+03

           1    1.58004E+01     1.3992E-01 -2.5752E-02 -3.5327E-01  3.8084E-01
ac ID =   33377                 4.5842E-01  1.2227E+00 -8.8391E-02  1.3088E+00
                               -4.7031E-01  2.0272E+01 -4.2900E+01  2.5147E+03

           1    1.59004E+01     1.4555E-01  1.7079E-02 -3.0423E-01  3.3769E-01
ac ID =   33377                -2.8160E-01  1.3046E+00 -2.1450E-01  1.3518E+00
                               -4.7117E-01  2.0388E+01 -4.2780E+01  2.5147E+03

           1    1.60004E+01     1.1611E-01  3.9346E-03 -2.3129E-01  2.5883E-01
ac ID =   33377                -1.2537E-01  5.5763E-01 -3.1090E-01  6.5064E-01
                               -4.7206E-01  2.0505E+01 -4.2659E+01  2.5147E+03

           1    1.61004E+01     1.4772E-01 -1.0930E-02 -1.6270E-01  2.2003E-01
ac ID =   33377                 2.7249E-01  1.3173E+00 -4.1055E-02  1.3458E+00
                               -4.7289E-01  2.0621E+01 -4.2539E+01  2.5147E+03

           1    1.62004E+01     1.3151E-01 -1.2804E-02 -1.3239E-01  1.8705E-01
ac ID =   33377                 4.3440E-02  1.1898E+00  3.6530E-01  1.2454E+00
                               -4.7367E-01  2.0737E+01 -4.2418E+01  2.5147E+03

           1    1.63004E+01     9.8465E-02  2.0671E-02 -6.5125E-02  1.1985E-01
ac ID =   33377                -5.5839E-01  8.2462E-01  2.6684E-01  1.0310E+00
                               -4.7461E-01  2.0853E+01 -4.2298E+01  2.5147E+03

           1    1.64004E+01     1.4379E-01 -4.4580E-03 -1.8746E-02  1.4507E-01
ac ID =   33377                 4.4807E-01  1.7614E+00 -4.6833E-02  1.8181E+00
                               -4.7546E-01  2.0969E+01 -4.2178E+01  2.5147E+03

           1    1.65003E+01     1.1287E-01 -1.4467E-02  1.3409E-02  1.1458E-01
ac ID =   33377                 3.0520E-01  1.3149E+00 -1.4687E-01  1.3578E+00
                               -4.7624E-01  2.1085E+01 -4.2059E+01  2.5147E+03

           1    1.66003E+01     1.0533E-01  1.0914E-02  4.9286E-02  1.1680E-01
ac ID =   33377                 3.1811E-02  1.1171E+00  1.1207E-01  1.1232E+00
                               -4.7715E-01  2.1201E+01 -4.1940E+01  2.5147E+03

           1    1.67003E+01     1.0295E-01  1.5682E-02  1.1924E-01  1.5831E-01
ac ID =   33377                -1.6544E-01  8.1268E-01  2.1795E-01  8.5751E-01
                               -4.7800E-01  2.1317E+01 -4.1822E+01  2.5147E+03

           1    1.68003E+01     1.0354E-01 -2.2736E-02  1.6534E-01  1.9641E-01
ac ID =   33377                 8.4174E-01  1.9866E-01  1.6549E-02  8.6502E-01
                               -4.7878E-01  2.1433E+01 -4.1704E+01  2.5147E+03

           1    1.69003E+01     8.0122E-02  2.8874E-03  2.1765E-01  2.3194E-01
ac ID =   33377                 5.7470E-02 -1.0467E-01 -2.8728E-01  3.1111E-01
                               -4.7963E-01  2.1549E+01 -4.1587E+01  2.5147E+03

           1    1.70003E+01     7.1326E-02  1.4821E-02  2.6285E-01  2.7276E-01
ac ID =   33377                -3.3330E-01 -5.1263E-01 -2.5056E-01  6.6080E-01
                               -4.8048E-01  2.1665E+01 -4.1471E+01  2.5147E+03

           1    1.71003E+01     8.7507E-02 -4.7077E-03  3.0029E-01  3.1281E-01
ac ID =   33377                 3.6344E-01 -2.4863E-01  5.0442E-02  4.4323E-01
                               -4.8130E-01  2.1781E+01 -4.1356E+01  2.5147E+03

           1    1.72003E+01     6.5387E-02 -1.8837E-02  3.3042E-01  3.3735E-01
ac ID =   33377                 2.8969E-01 -6.4406E-01  1.3769E-01  7.1951E-01
                               -4.8208E-01  2.1897E+01 -4.1242E+01  2.5147E+03

           1    1.73003E+01     7.3945E-02  1.4354E-02  3.7628E-01  3.8375E-01
ac ID =   33377                -1.2713E-01 -6.6552E-01 -3.0688E-01  7.4381E-01
                               -4.8296E-01  2.2014E+01 -4.1128E+01  2.5147E+03

           1    1.74003E+01     3.8073E-02  9.1616E-03  4.2618E-01  4.2798E-01
ac ID =   33377                 5.7479E-02 -1.5769E+00 -3.1622E-01  1.6094E+00
                               -4.8380E-01  2.2130E+01 -4.1016E+01  2.5147E+03

           1    1.75002E+01     5.4621E-02 -2.4544E-02  4.3285E-01  4.3697E-01
ac ID =   33377                 1.0341E+00 -1.7583E+00 -7.4408E-02  2.0412E+00
                               -4.8459E-01  2.2247E+01 -4.0905E+01  2.5147E+03

           1    1.76002E+01     5.0729E-02 -3.1830E-03  4.7974E-01  4.8243E-01
ac ID =   33377                 2.9280E-01 -1.6680E+00  8.7740E-02  1.6958E+00
                               -4.8540E-01  2.2364E+01 -4.0795E+01  2.5147E+03

           1    1.77002E+01     3.6326E-02  1.8110E-02  5.5375E-01  5.5524E-01
ac ID =   33377                -7.6883E-02 -2.7798E+00  8.0603E-02  2.7820E+00
                               -4.8622E-01  2.2482E+01 -4.0687E+01  2.5147E+03

           1    1.78002E+01     2.6167E-02 -9.9350E-03  5.7737E-01  5.7805E-01
ac ID =   33377                 7.1263E-01 -2.7303E+00 -4.5212E-01  2.8578E+00
                               -4.8701E-01  2.2599E+01 -4.0580E+01  2.5147E+03

           1    1.79002E+01     5.4795E-02 -1.6847E-02  5.6681E-01  5.6970E-01
ac ID =   33377                 3.5373E-01 -2.5350E+00 -2.2009E-01  2.5690E+00
                               -4.8774E-01  2.2717E+01 -4.0474E+01  2.5147E+03

           1    1.80002E+01     1.2210E-02  2.0828E-02  6.4942E-01  6.4987E-01
ac ID =   33377                -3.5499E-01 -3.5957E+00  3.2754E-01  3.6280E+00
                               -4.8856E-01  2.2836E+01 -4.0370E+01  2.5147E+03

           1    1.81002E+01     2.3892E-02  2.8949E-03  6.7202E-01  6.7245E-01
ac ID =   33377                 2.2409E-01 -3.4913E+00  3.1559E-01  3.5127E+00
                               -4.8936E-01  2.2955E+01 -4.0267E+01  2.5147E+03

           1    1.82002E+01     4.2155E-02 -1.3369E-02  6.7024E-01  6.7170E-01
ac ID =   33377                 4.8207E-01 -3.0407E+00  4.1893E-03  3.0787E+00
                               -4.9011E-01  2.3074E+01 -4.0167E+01  2.5147E+03

           1    1.83002E+01     1.9607E-04  1.8579E-03  7.1604E-01  7.1605E-01
ac ID =   33377                 1.0032E-01 -4.2272E+00 -2.9437E-01  4.2387E+00
                               -4.9091E-01  2.3194E+01 -4.0067E+01  2.5147E+03

           1    1.84002E+01     1.3817E-02  1.3071E-02  7.4220E-01  7.4244E-01
ac ID =   33377                 2.1729E-01 -3.9814E+00 -4.5191E-01  4.0129E+00
                               -4.9175E-01  2.3314E+01 -3.9970E+01  2.5147E+03

           1    1.85001E+01     1.1406E-02 -2.1611E-02  7.7027E-01  7.7066E-01
ac ID =   33377                 8.7104E-01 -4.2465E+00 -1.0425E-01  4.3362E+00
                               -4.9252E-01  2.3435E+01 -3.9875E+01  2.5147E+03

           1    1.86001E+01     1.8414E-02  4.8639E-03  7.9510E-01  7.9533E-01
ac ID =   33377                 4.5327E-01 -4.4975E+00  1.2475E-01  4.5220E+00
                               -4.9331E-01  2.3557E+01 -3.9781E+01  2.5147E+03

           1    1.87001E+01    -1.5554E-03  1.1174E-02  8.0038E-01  8.0046E-01
ac ID =   33377                -8.7157E-02 -4.6614E+00 -1.8911E-01  4.6661E+00
                               -4.9413E-01  2.3679E+01 -3.9689E+01  2.5147E+03

           1    1.88001E+01     9.7345E-03 -1.1457E-02  8.1105E-01  8.1119E-01
ac ID =   33377                 5.3347E-01 -4.8078E+00 -3.8572E-01  4.8527E+00
                               -4.9490E-01  2.3801E+01 -3.9599E+01  2.5147E+03

           1    1.89001E+01    -4.2409E-03 -7.3898E-03  8.5447E-01  8.5451E-01
ac ID =   33377                 2.8694E-01 -5.4010E+00 -1.6470E-01  5.4111E+00
                               -4.9568E-01  2.3924E+01 -3.9511E+01  2.5147E+03

           1    1.90001E+01     1.5226E-02  1.6625E-02  8.5182E-01  8.5212E-01
ac ID =   33377                -5.9262E-02 -4.9777E+00 -6.1824E-03  4.9781E+00
                               -4.9651E-01  2.4048E+01 -3.9425E+01  2.5147E+03

           1    1.91001E+01    -1.7240E-02  1.0199E-02  8.7201E-01  8.7224E-01
ac ID =   33377                -5.6700E-02 -5.8314E+00  2.8150E-01  5.8385E+00
                               -4.9728E-01  2.4172E+01 -3.9341E+01  2.5147E+03

           1    1.92001E+01    -1.5552E-02 -1.8150E-02  8.7664E-01  8.7697E-01
ac ID =   33377                 5.3766E-01 -5.8474E+00  1.0841E-01  5.8730E+00
                               -4.9804E-01  2.4297E+01 -3.9259E+01  2.5147E+03

           1    1.93001E+01     1.0039E-02  1.2261E-02  8.7499E-01  8.7513E-01
ac ID =   33377                 1.7371E-01 -5.4849E+00 -1.6867E-01  5.4902E+00
                               -4.9888E-01  2.4423E+01 -3.9179E+01  2.5147E+03

           1    1.94001E+01    -2.3397E-02  8.3249E-04  9.1841E-01  9.1871E-01
ac ID =   33377                 4.1330E-01 -6.5539E+00 -3.4072E-01  6.5757E+00
                               -4.9966E-01  2.4549E+01 -3.9102E+01  2.5147E+03

           1    1.95000E+01    -2.7309E-03 -8.2575E-03  9.0227E-01  9.0231E-01
ac ID =   33377                 6.5603E-01 -6.4679E+00 -2.8772E-01  6.5075E+00
                               -5.0044E-01  2.4676E+01 -3.9026E+01  2.5147E+03

           1    1.96000E+01     3.2555E-03 -2.7576E-03  8.8868E-01  8.8869E-01
ac ID =   33377                 4.6026E-01 -6.0763E+00 -2.0764E-01  6.0972E+00
                               -5.0126E-01  2.4803E+01 -3.8952E+01  2.5147E+03

           1    1.97005E+01    -5.6318E-03  2.0962E-03  9.1334E-01  9.1336E-01
ac ID =   33377                 3.5652E-01 -6.6346E+00  1.7011E-01  6.6464E+00
                               -5.0202E-01  2.4932E+01 -3.8881E+01  2.5147E+03

           1    1.98005E+01    -2.2882E-02 -2.3044E-03  9.2879E-01  9.2907E-01
ac ID =   33377                 2.0140E-01 -6.8312E+00  1.9389E-01  6.8369E+00
                               -5.0275E-01  2.5061E+01 -3.8811E+01  2.5147E+03

           1    1.99005E+01     1.3787E-04  6.0680E-04  9.0084E-01  9.0084E-01
ac ID =   33377                 5.7649E-01 -6.5410E+00 -3.3937E-01  6.5751E+00
                               -5.0359E-01  2.5190E+01 -3.8744E+01  2.5147E+03

           1    2.00005E+01    -2.1157E-02 -3.8947E-04  9.1234E-01  9.1258E-01
ac ID =   33377                 2.6545E-02 -7.0880E+00 -1.4599E-01  7.0895E+00
                               -5.0431E-01  2.5321E+01 -3.8679E+01  2.5147E+03

           1    2.01005E+01    -2.1466E-02  2.5770E-03  9.1524E-01  9.1550E-01
ac ID =   33377                 1.5498E-01 -7.4855E+00  1.9564E-01  7.4897E+00
                               -5.0508E-01  2.5451E+01 -3.8616E+01  2.5147E+03

           1    2.02005E+01    -1.2450E-02  6.7831E-04  9.0898E-01  9.0907E-01
ac ID =   33377                 5.1600E-01 -7.2310E+00  8.8377E-02  7.2500E+00
                               -5.0591E-01  2.5583E+01 -3.8555E+01  2.5147E+03

           1    2.03005E+01    -2.5090E-03 -8.0097E-03  9.0450E-01  9.0454E-01
ac ID =   33377                 5.4146E-01 -7.4155E+00 -1.6234E-01  7.4370E+00
                               -5.0662E-01  2.5715E+01 -3.8496E+01  2.5147E+03

           1    2.04005E+01    -1.8710E-02 -9.8707E-03  8.9063E-01  8.9088E-01
ac ID =   33377                 5.7729E-01 -7.5446E+00 -2.4548E-01  7.5707E+00
                               -5.0737E-01  2.5847E+01 -3.8440E+01  2.5147E+03

           1    2.05004E+01    -1.4077E-02  2.1647E-03  8.6480E-01  8.6492E-01
ac ID =   33377                 3.4606E-01 -7.6314E+00 -4.1244E-02  7.6394E+00
                               -5.0817E-01  2.5981E+01 -3.8385E+01  2.5147E+03

           1    2.06004E+01    -2.8248E-03 -9.2639E-03  8.6734E-01  8.6739E-01
ac ID =   33377                 6.7931E-01 -7.7307E+00  1.9386E-02  7.7606E+00
                               -5.0886E-01  2.6115E+01 -3.8332E+01  2.5147E+03

           1    2.07004E+01    -1.0536E-02 -9.8687E-03  8.5299E-01  8.5312E-01
ac ID =   33377                 5.6337E-01 -7.8129E+00  2.3371E-01  7.8366E+00
                               -5.0957E-01  2.6249E+01 -3.8282E+01  2.5147E+03

           1    2.08004E+01    -2.5485E-02  3.5523E-03  8.4887E-01  8.4926E-01
ac ID =   33377                 1.6929E-01 -8.3983E+00  1.5177E-01  8.4014E+00
                               -5.1032E-01  2.6384E+01 -3.8233E+01  2.5147E+03

           1    2.09004E+01     1.0460E-02 -2.9970E-04  8.1203E-01  8.1210E-01
ac ID =   33377                 2.2363E-01 -7.6440E+00 -2.4626E-01  7.6513E+00
                               -5.1104E-01  2.6519E+01 -3.8186E+01  2.5147E+03

           1    2.10004E+01    -1.4793E-03 -4.3345E-03  8.0959E-01  8.0960E-01
ac ID =   33377                 5.2970E-01 -7.7906E+00 -1.2386E-01  7.8096E+00
                               -5.1177E-01  2.6656E+01 -3.8141E+01  2.5147E+03

           1    2.11004E+01    -7.1713E-03 -3.1343E-03  7.9980E-01  7.9984E-01
ac ID =   33377                 3.4289E-01 -8.1677E+00  9.6651E-02  8.1755E+00
                               -5.1252E-01  2.6792E+01 -3.8098E+01  2.5147E+03

           1    2.12004E+01     5.9823E-03  2.7340E-03  7.7073E-01  7.7075E-01
ac ID =   33377                 3.6756E-01 -7.9228E+00  6.8208E-02  7.9316E+00
                               -5.1326E-01  2.6929E+01 -3.8057E+01  2.5147E+03

           1    2.13004E+01     2.2091E-02 -1.2109E-02  7.3093E-01  7.3136E-01
ac ID =   33377                 6.1301E-01 -7.6705E+00 -4.9194E-02  7.6951E+00
                               -5.1397E-01  2.7066E+01 -3.8017E+01  2.5147E+03

           1    2.14004E+01     6.0189E-03 -2.3752E-03  7.2676E-01  7.2679E-01
ac ID =   33377                 5.6627E-01 -8.0239E+00 -2.4388E-01  8.0476E+00
                               -5.1471E-01  2.7204E+01 -3.7979E+01  2.5147E+03

           1    2.15003E+01     1.4003E-02 -5.8968E-03  6.9282E-01  6.9298E-01
ac ID =   33377                 1.7099E-01 -7.7537E+00 -3.0098E-01  7.7615E+00
                               -5.1538E-01  2.7342E+01 -3.7943E+01  2.5147E+03

           1    2.16003E+01     2.2601E-02 -6.7717E-04  6.7557E-01  6.7594E-01
ac ID =   33377                 4.9707E-02 -7.9574E+00 -3.2555E-01  7.9642E+00
                               -5.1611E-01  2.7481E+01 -3.7908E+01  2.5147E+03

           1    2.17003E+01     3.7092E-02 -1.0166E-02  6.3472E-01  6.3589E-01
ac ID =   33377                 4.7758E-01 -7.6174E+00 -1.6434E-01  7.6341E+00
                               -5.1681E-01  2.7620E+01 -3.7875E+01  2.5147E+03

           1    2.18003E+01     1.2478E-02  5.6659E-03  6.0755E-01  6.0770E-01
ac ID =   33377                 5.5292E-03 -8.6442E+00  2.6829E-01  8.6484E+00
                               -5.1749E-01  2.7759E+01 -3.7843E+01  2.5147E+03

           1    2.19003E+01     3.1961E-02  7.2381E-03  6.0824E-01  6.0912E-01
ac ID =   33377                 1.5746E-01 -8.5299E+00 -1.8688E-01  8.5334E+00
                               -5.1820E-01  2.7898E+01 -3.7813E+01  2.5147E+03

           1    2.20003E+01     4.8710E-02 -2.1846E-02  5.6111E-01  5.6364E-01
ac ID =   33377                 6.8069E-01 -8.1836E+00 -2.7990E-01  8.2167E+00
                               -5.1888E-01  2.8038E+01 -3.7784E+01  2.5147E+03

           1    2.21003E+01     3.0365E-02  3.8531E-03  5.2506E-01  5.2595E-01
ac ID =   33377                 2.6916E-01 -8.5282E+00 -5.8466E-03  8.5325E+00
                               -5.1958E-01  2.8178E+01 -3.7756E+01  2.5147E+03

           1    2.22003E+01     2.7528E-02  6.1207E-03  4.8177E-01  4.8259E-01
ac ID =   33377                 1.8678E-02 -8.9906E+00 -1.6792E-01  8.9921E+00
                               -5.2025E-01  2.8318E+01 -3.7730E+01  2.5147E+03

           1    2.23003E+01     3.4518E-02 -4.4909E-03  4.6378E-01  4.6508E-01
ac ID =   33377                 4.8814E-01 -9.2900E+00 -4.2139E-02  9.3029E+00
                               -5.2094E-01  2.8458E+01 -3.7705E+01  2.5147E+03

           1    2.24003E+01     5.9564E-02 -2.0304E-02  4.6261E-01  4.6688E-01
ac ID =   33377                 7.4756E-01 -9.1929E+00 -1.1120E-01  9.2240E+00
                               -5.2154E-01  2.8599E+01 -3.7681E+01  2.5147E+03

           1    2.25002E+01     2.6901E-02  8.0364E-04  3.9164E-01  3.9256E-01
ac ID =   33377                 1.2696E-01 -9.8253E+00 -4.3058E-01  9.8356E+00
                               -5.2226E-01  2.8740E+01 -3.7657E+01  2.5147E+03

           1    2.26002E+01     2.0490E-02  1.7432E-02  3.4037E-01  3.4143E-01
ac ID =   33377                -2.8106E-01 -1.0221E+01  2.6725E-02  1.0225E+01
                               -5.2292E-01  2.8881E+01 -3.7635E+01  2.5147E+03

           1    2.27002E+01     4.5678E-02 -6.1816E-03  3.5172E-01  3.5472E-01
ac ID =   33377                 3.5876E-01 -1.0107E+01  6.1067E-02  1.0114E+01
                               -5.2353E-01  2.9022E+01 -3.7614E+01  2.5147E+03

           1    2.28002E+01     6.5781E-02 -1.8832E-02  3.0652E-01  3.1406E-01
ac ID =   33377                 2.6615E-01 -1.0130E+01 -2.6378E-01  1.0137E+01
                               -5.2405E-01  2.9163E+01 -3.7593E+01  2.5147E+03

           1    2.29002E+01     2.0663E-02  6.3467E-03  2.6606E-01  2.6694E-01
ac ID =   33377                -2.3780E-01 -1.1012E+01 -2.6525E-01  1.1017E+01
                               -5.2474E-01  2.9305E+01 -3.7573E+01  2.5147E+03

           1    2.30002E+01     6.0012E-02  1.1240E-02  2.1346E-01  2.2202E-01
ac ID =   33377                 3.7560E-01 -1.0234E+01 -4.0124E-01  1.0249E+01
                               -5.2539E-01  2.9446E+01 -3.7554E+01  2.5147E+03

           1    2.31002E+01     7.2116E-02 -1.0440E-02  1.8536E-01  1.9917E-01
ac ID =   33377                 3.2313E-01 -9.9508E+00 -2.0543E-01  9.9582E+00
                               -5.2591E-01  2.9587E+01 -3.7535E+01  2.5147E+03

           1    2.32002E+01     3.9137E-02 -1.0982E-02  1.6488E-01  1.6982E-01
ac ID =   33377                 3.9378E-01 -1.1018E+01  3.0382E-01  1.1029E+01
                               -5.2646E-01  2.9729E+01 -3.7517E+01  2.5147E+03

           1    2.33002E+01     6.3819E-02  2.4338E-03  1.2919E-01  1.4411E-01
ac ID =   33377                 3.1498E-01 -1.0543E+01 -6.6139E-04  1.0548E+01
                               -5.2708E-01  2.9871E+01 -3.7498E+01  2.5147E+03

           1    2.34002E+01     7.6254E-02 -2.8783E-03  6.8278E-02  1.0240E-01
ac ID =   33377                 2.6727E-01 -1.0603E+01 -2.8000E-01  1.0610E+01
                               -5.2759E-01  3.0012E+01 -3.7481E+01  2.5147E+03

           1    2.35001E+01     4.1732E-02 -5.3707E-03  4.8829E-02  6.4456E-02
ac ID =   33377                 1.7385E-01 -1.1247E+01 -9.8483E-03  1.1248E+01
                               -5.2811E-01  3.0153E+01 -3.7463E+01  2.5147E+03

           1    2.36001E+01     8.5107E-02  1.0758E-02  3.0698E-02  9.1112E-02
ac ID =   33377                -1.2787E-02 -1.0721E+01 -3.9949E-01  1.0728E+01
                               -5.2866E-01  3.0295E+01 -3.7445E+01  2.5147E+03

           1    2.37001E+01     1.0753E-01 -5.6895E-03 -1.5951E-02  1.0885E-01
ac ID =   33377                 7.5493E-02 -1.0012E+01 -5.0776E-01  1.0025E+01
                               -5.2914E-01  3.0436E+01 -3.7428E+01  2.5147E+03

           1    2.38001E+01     6.8060E-02  2.4794E-03 -5.6283E-02  8.8353E-02
ac ID =   33377                -1.4772E-01 -1.0756E+01  2.9235E-01  1.0761E+01
                               -5.2962E-01  3.0577E+01 -3.7410E+01  2.5147E+03

           1    2.39001E+01     9.0163E-02  8.9453E-04 -8.3033E-02  1.2257E-01
ac ID =   33377                 5.7289E-03 -1.0369E+01 -2.0152E-02  1.0369E+01
                               -5.3009E-01  3.0718E+01 -3.7392E+01  2.5147E+03

           1    2.40001E+01     1.2111E-01 -8.6608E-04 -1.0181E-01  1.5822E-01
ac ID =   33377                 6.0438E-02 -9.7277E+00 -4.2894E-01  9.7373E+00
                               -5.3053E-01  3.0859E+01 -3.7375E+01  2.5147E+03

           1    2.41001E+01     9.3422E-02 -6.4393E-03 -1.3448E-01  1.6387E-01
ac ID =   33377                 1.7423E-01 -1.0367E+01 -3.0991E-01  1.0374E+01
                               -5.3093E-01  3.0999E+01 -3.7356E+01  2.5147E+03

           1    2.42001E+01     9.8866E-02  1.4214E-03 -1.7614E-01  2.0200E-01
ac ID =   33377                 2.1631E-01 -1.0231E+01  7.7317E-02  1.0234E+01
                               -5.3132E-01  3.1139E+01 -3.7338E+01  2.5147E+03

           1    2.43001E+01     1.3472E-01 -4.0752E-03 -2.0021E-01  2.4135E-01
ac ID =   33377                 2.1624E-01 -9.7574E+00 -5.4455E-03  9.7598E+00
                               -5.3169E-01  3.1279E+01 -3.7319E+01  2.5147E+03

           1    2.44001E+01     1.2196E-01  3.0013E-03 -2.2956E-01  2.5996E-01
ac ID =   33377                 8.3937E-02 -9.7310E+00  1.7682E-01  9.7330E+00
                               -5.3208E-01  3.1418E+01 -3.7299E+01  2.5147E+03

           1    2.45005E+01     1.1075E-01 -2.5213E-03 -2.5446E-01  2.7753E-01
ac ID =   33377                 2.5247E-01 -9.6603E+00  1.7626E-02  9.6636E+00
                               -5.3242E-01  3.1558E+01 -3.7279E+01  2.5147E+03

           1    2.46005E+01     1.3098E-01  8.2628E-03 -2.6921E-01  2.9950E-01
ac ID =   33377                -2.5214E-01 -9.4716E+00 -4.5454E-01  9.4859E+00
                               -5.3279E-01  3.1697E+01 -3.7259E+01  2.5147E+03

           1    2.47005E+01     1.5413E-01  4.8592E-03 -3.0708E-01  3.4362E-01
ac ID =   33377                -9.7010E-02 -9.1153E+00  3.3745E-02  9.1159E+00
                               -5.3309E-01  3.1835E+01 -3.7238E+01  2.5147E+03

           1    2.48005E+01     1.4542E-01 -1.2905E-02 -3.4872E-01  3.7805E-01
ac ID =   33377                 2.3355E-01 -9.1060E+00  6.5407E-02  9.1092E+00
                               -5.3340E-01  3.1973E+01 -3.7216E+01  2.5147E+03

           1    2.49005E+01     1.4118E-01  8.6906E-04 -3.5512E-01  3.8216E-01
ac ID =   33377                -1.9009E-01 -8.9915E+00 -1.9237E-01  8.9956E+00
                               -5.3370E-01  3.2110E+01 -3.7193E+01  2.5147E+03

