 LSTC 50th% Full_FE H-III Dummy (Beta Version, February 17, 2019)        
                    ls-dyna smp s R16 R16.0_619_d222963 date 03/18/2025

{BEGIN LEGEND}
 Entity #        Title
    22626                                                                                     
{END LEGEND}




 n o d a l   p r i n t   o u t   f o r   t i m e  s t e p       1                              ( at time 0.0000000E+00 )

 nodal point  x-disp     y-disp      z-disp      x-vel       y-vel       z-vel      x-accl      y-accl      z-accl      x-coor      y-coor      z-coor
    22626  0.00000E+00 0.00000E+00 0.00000E+00 0.00000E+00 0.00000E+00-3.12000E+00 0.00000E+00 0.00000E+00 0.00000E+00 4.79642E+01-2.20298E+01 7.33850E+00



 n o d a l   p r i n t   o u t   f o r   t i m e  s t e p       1                              ( at time 0.0000000E+00 )

 nodal point  x-rot      y-rot       z-rot       x-rot vel   y-rot vel   z-rot vel   x-rot acc   y-rot acc   z-rot acc
    22626  0.00000E+00 0.00000E+00 0.00000E+00 0.00000E+00 0.00000E+00 0.00000E+00 0.00000E+00 0.00000E+00 0.00000E+00



 n o d a l   p r i n t   o u t   f o r   t i m e  s t e p     201                              ( at time 9.9989993E-02 )

 nodal point  x-disp     y-disp      z-disp      x-vel       y-vel       z-vel      x-accl      y-accl      z-accl      x-coor      y-coor      z-coor
    22626  8.34539E-07-4.04427E-06-3.12016E-01 4.76784E-05-4.96399E-04-3.12074E+00 4.76832E-04-4.96449E-03-7.42748E-03 4.79642E+01-2.20298E+01 7.02648E+00



 n o d a l   p r i n t   o u t   f o r   t i m e  s t e p     201                              ( at time 9.9989993E-02 )

 nodal point  x-rot      y-rot       z-rot       x-rot vel   y-rot vel   z-rot vel   x-rot acc   y-rot acc   z-rot acc
    22626  9.62787E-09 3.04117E-08 5.27272E-08 1.30777E-06 2.72271E-06 5.21363E-06 1.30790E-05 2.72298E-05 5.21416E-05



 n o d a l   p r i n t   o u t   f o r   t i m e  s t e p     401                              ( at time 1.9997999E-01 )

 nodal point  x-disp     y-disp      z-disp      x-vel       y-vel       z-vel      x-accl      y-accl      z-accl      x-coor      y-coor      z-coor
    22626 -5.12673E-05-5.21502E-04-6.23853E-01-1.09578E-03-1.11132E-02-3.11558E+00-1.14357E-02-1.06178E-01 5.16180E-02 4.79641E+01-2.20303E+01 6.71465E+00



 n o d a l   p r i n t   o u t   f o r   t i m e  s t e p     401                              ( at time 1.9997999E-01 )

 nodal point  x-rot      y-rot       z-rot       x-rot vel   y-rot vel   z-rot vel   x-rot acc   y-rot acc   z-rot acc
    22626  4.60669E-07 1.33018E-06 2.50300E-06 2.65183E-06 1.90955E-05 3.50245E-05 1.34419E-05 1.63745E-04 2.98139E-04



 n o d a l   p r i n t   o u t   f o r   t i m e  s t e p     601                              ( at time 2.9996998E-01 )

 nodal point  x-disp     y-disp      z-disp      x-vel       y-vel       z-vel      x-accl      y-accl      z-accl      x-coor      y-coor      z-coor
    22626 -2.44962E-05-1.97560E-03-9.35239E-01 1.66449E-03-1.60325E-02-3.11416E+00 2.76054E-02-4.91979E-02 1.42517E-02 4.79642E+01-2.20318E+01 6.40326E+00



 n o d a l   p r i n t   o u t   f o r   t i m e  s t e p     601                              ( at time 2.9996998E-01 )

 nodal point  x-rot      y-rot       z-rot       x-rot vel   y-rot vel   z-rot vel   x-rot acc   y-rot acc   z-rot acc
    22626  6.76182E-07 2.41676E-06 4.83671E-06 8.31222E-06 5.46886E-06 1.48996E-05 5.66096E-05-1.36280E-04-2.01270E-04



 n o d a l   p r i n t   o u t   f o r   t i m e  s t e p     801                              ( at time 3.9995997E-01 )

 nodal point  x-disp     y-disp      z-disp      x-vel       y-vel       z-vel      x-accl      y-accl      z-accl      x-coor      y-coor      z-coor
    22626  5.94544E-05-3.57164E-03-1.24663E+00 1.84674E-04-1.73755E-02-3.11354E+00-1.47996E-02-1.34319E-02 6.14228E-03 4.79642E+01-2.20334E+01 6.09187E+00



 n o d a l   p r i n t   o u t   f o r   t i m e  s t e p     801                              ( at time 3.9995997E-01 )

 nodal point  x-rot      y-rot       z-rot       x-rot vel   y-rot vel   z-rot vel   x-rot acc   y-rot acc   z-rot acc
    22626  1.58562E-06 3.68905E-06 6.69680E-06 6.33551E-06 2.42477E-05 3.82781E-05-1.97691E-05 1.87807E-04 2.33808E-04



 n o d a l   p r i n t   o u t   f o r   t i m e  s t e p    1001                              ( at time 4.9994997E-01 )

 nodal point  x-disp     y-disp      z-disp      x-vel       y-vel       z-vel      x-accl      y-accl      z-accl      x-coor      y-coor      z-coor
    22626  7.17348E-05-5.62690E-03-1.55783E+00 8.80713E-04-2.38161E-02-3.11087E+00 6.96109E-03-6.44120E-02 2.67103E-02 4.79643E+01-2.20354E+01 5.78067E+00



 n o d a l   p r i n t   o u t   f o r   t i m e  s t e p    1001                              ( at time 4.9994997E-01 )

 nodal point  x-rot      y-rot       z-rot       x-rot vel   y-rot vel   z-rot vel   x-rot acc   y-rot acc   z-rot acc
    22626  1.50503E-06 6.66138E-06 1.18616E-05-4.88268E-06 4.39203E-05 7.21058E-05-1.12193E-04 1.96746E-04 3.38311E-04



 n o d a l   p r i n t   o u t   f o r   t i m e  s t e p    1201                              ( at time 5.9993996E-01 )

 nodal point  x-disp     y-disp      z-disp      x-vel       y-vel       z-vel      x-accl      y-accl      z-accl      x-coor      y-coor      z-coor
    22626  5.24980E-05-8.12814E-03-1.86888E+00-5.47886E-04-2.60647E-02-3.11086E+00-1.42874E-02-2.24887E-02 8.10704E-05 4.79642E+01-2.20379E+01 5.46962E+00



 n o d a l   p r i n t   o u t   f o r   t i m e  s t e p    1201                              ( at time 5.9993996E-01 )

 nodal point  x-rot      y-rot       z-rot       x-rot vel   y-rot vel   z-rot vel   x-rot acc   y-rot acc   z-rot acc
    22626  1.27327E-06 9.91371E-06 1.78073E-05-2.08005E-06 2.65443E-05 5.33907E-05 2.80291E-05-1.73778E-04-1.87169E-04



 n o d a l   p r i n t   o u t   f o r   t i m e  s t e p    1401                              ( at time 6.9992995E-01 )

 nodal point  x-disp     y-disp      z-disp      x-vel       y-vel       z-vel      x-accl      y-accl      z-accl      x-coor      y-coor      z-coor
    22626  1.94032E-05-1.10067E-02-2.17977E+00 6.97817E-04-3.21966E-02-3.10774E+00 1.24583E-02-6.13249E-02 3.12598E-02 4.79642E+01-2.20408E+01 5.15873E+00



 n o d a l   p r i n t   o u t   f o r   t i m e  s t e p    1401                              ( at time 6.9992995E-01 )

 nodal point  x-rot      y-rot       z-rot       x-rot vel   y-rot vel   z-rot vel   x-rot acc   y-rot acc   z-rot acc
    22626  1.13248E-06 1.31207E-05 2.28089E-05-2.03453E-06 3.77490E-05 5.92173E-05 4.55227E-07 1.12059E-04 5.82716E-05



 n o d a l   p r i n t   o u t   f o r   t i m e  s t e p    1601                              ( at time 7.9991994E-01 )

 nodal point  x-disp     y-disp      z-disp      x-vel       y-vel       z-vel      x-accl      y-accl      z-accl      x-coor      y-coor      z-coor
    22626  1.30641E-04-1.45514E-02-2.49040E+00 1.35614E-03-3.67457E-02-3.10605E+00 6.58393E-03-4.54959E-02 1.68507E-02 4.79643E+01-2.20443E+01 4.84811E+00



 n o d a l   p r i n t   o u t   f o r   t i m e  s t e p    1601                              ( at time 7.9991994E-01 )

 nodal point  x-rot      y-rot       z-rot       x-rot vel   y-rot vel   z-rot vel   x-rot acc   y-rot acc   z-rot acc
    22626  1.06938E-06 1.72673E-05 2.97882E-05 3.29668E-06 4.90298E-05 7.68096E-05 5.33174E-05 1.12820E-04 1.75941E-04



 n o d a l   p r i n t   o u t   f o r   t i m e  s t e p    1801                              ( at time 8.9990994E-01 )

 nodal point  x-disp     y-disp      z-disp      x-vel       y-vel       z-vel      x-accl      y-accl      z-accl      x-coor      y-coor      z-coor
    22626  2.03436E-04-1.81871E-02-2.80106E+00-5.19099E-04-3.63553E-02-3.10747E+00-1.87543E-02 3.90494E-03-1.41969E-02 4.79644E+01-2.20480E+01 4.53745E+00



 n o d a l   p r i n t   o u t   f o r   t i m e  s t e p    1801                              ( at time 8.9990994E-01 )

 nodal point  x-rot      y-rot       z-rot       x-rot vel   y-rot vel   z-rot vel   x-rot acc   y-rot acc   z-rot acc
    22626  1.12954E-06 2.14075E-05 3.68258E-05-1.31981E-06 3.81967E-05 6.88066E-05-4.61695E-05-1.08342E-04-8.00383E-05



 n o d a l   p r i n t   o u t   f o r   t i m e  s t e p    2001                              ( at time 9.9989993E-01 )

 nodal point  x-disp     y-disp      z-disp      x-vel       y-vel       z-vel      x-accl      y-accl      z-accl      x-coor      y-coor      z-coor
    22626  1.04170E-04-2.18897E-02-3.11178E+00-8.40568E-04-3.82619E-02-3.10767E+00-3.21501E-03-1.90680E-02-1.97907E-03 4.79643E+01-2.20517E+01 4.22672E+00



 n o d a l   p r i n t   o u t   f o r   t i m e  s t e p    2001                              ( at time 9.9989993E-01 )

 nodal point  x-rot      y-rot       z-rot       x-rot vel   y-rot vel   z-rot vel   x-rot acc   y-rot acc   z-rot acc
    22626  1.01502E-06 2.56545E-05 4.40866E-05-3.37854E-07 4.65252E-05 8.66197E-05 9.82055E-06 8.32924E-05 1.78149E-04



 n o d a l   p r i n t   o u t   f o r   t i m e  s t e p    2201                              ( at time 1.0998899E+00 )

 nodal point  x-disp     y-disp      z-disp      x-vel       y-vel       z-vel      x-accl      y-accl      z-accl      x-coor      y-coor      z-coor
    22626  8.33052E-05-2.58249E-02-3.42249E+00-2.52531E-04-4.01535E-02-3.10719E+00 5.88096E-03-1.89181E-02 4.83323E-03 4.79643E+01-2.20556E+01 3.91601E+00



 n o d a l   p r i n t   o u t   f o r   t i m e  s t e p    2201                              ( at time 1.0998899E+00 )

 nodal point  x-rot      y-rot       z-rot       x-rot vel   y-rot vel   z-rot vel   x-rot acc   y-rot acc   z-rot acc
    22626  1.15168E-06 3.04649E-05 5.27752E-05 5.98229E-06 4.65633E-05 7.53357E-05 6.32078E-05 3.81262E-07-1.12851E-04



 n o d a l   p r i n t   o u t   f o r   t i m e  s t e p    2401                              ( at time 1.1998799E+00 )

 nodal point  x-disp     y-disp      z-disp      x-vel       y-vel       z-vel      x-accl      y-accl      z-accl      x-coor      y-coor      z-coor
    22626  1.22014E-04-2.98290E-02-3.73324E+00 7.03470E-04-3.96519E-02-3.10859E+00 9.56097E-03 5.01675E-03-1.40276E-02 4.79643E+01-2.20596E+01 3.60526E+00



 n o d a l   p r i n t   o u t   f o r   t i m e  s t e p    2401                              ( at time 1.1998799E+00 )

 nodal point  x-rot      y-rot       z-rot       x-rot vel   y-rot vel   z-rot vel   x-rot acc   y-rot acc   z-rot acc
    22626  1.61491E-06 3.46373E-05 5.96709E-05 5.77479E-06 4.02656E-05 6.64313E-05-2.07522E-06-6.29830E-05-8.90529E-05



 n o d a l   p r i n t   o u t   f o r   t i m e  s t e p    2601                              ( at time 1.2998699E+00 )

 nodal point  x-disp     y-disp      z-disp      x-vel       y-vel       z-vel      x-accl      y-accl      z-accl      x-coor      y-coor      z-coor
    22626  1.31605E-04-3.36531E-02-4.04418E+00-4.49079E-04-3.64499E-02-3.11143E+00-1.15266E-02 3.20229E-02-2.84486E-02 4.79643E+01-2.20634E+01 3.29432E+00



 n o d a l   p r i n t   o u t   f o r   t i m e  s t e p    2601                              ( at time 1.2998699E+00 )

 nodal point  x-rot      y-rot       z-rot       x-rot vel   y-rot vel   z-rot vel   x-rot acc   y-rot acc   z-rot acc
    22626  1.99018E-06 3.87642E-05 6.65775E-05-1.73447E-06 4.58197E-05 8.07210E-05-7.51001E-05 5.55462E-05 1.42912E-04



 n o d a l   p r i n t   o u t   f o r   t i m e  s t e p    2801                              ( at time 1.3998599E+00 )

 nodal point  x-disp     y-disp      z-disp      x-vel       y-vel       z-vel      x-accl      y-accl      z-accl      x-coor      y-coor      z-coor
    22626  1.34991E-05-3.70321E-02-4.35550E+00-1.33940E-03-3.12712E-02-3.11524E+00-8.90407E-03 5.17929E-02-3.80149E-02 4.79642E+01-2.20668E+01 2.98300E+00



 n o d a l   p r i n t   o u t   f o r   t i m e  s t e p    2801                              ( at time 1.3998599E+00 )

 nodal point  x-rot      y-rot       z-rot       x-rot vel   y-rot vel   z-rot vel   x-rot acc   y-rot acc   z-rot acc
    22626  1.65536E-06 4.32073E-05 7.44992E-05-3.78282E-06 4.52374E-05 7.43055E-05-2.04856E-05-5.82284E-06-6.41619E-05



 n o d a l   p r i n t   o u t   f o r   t i m e  s t e p    3001                              ( at time 1.4998499E+00 )

 nodal point  x-disp     y-disp      z-disp      x-vel       y-vel       z-vel      x-accl      y-accl      z-accl      x-coor      y-coor      z-coor
    22626 -9.82347E-05-4.00592E-02-4.66710E+00-4.88289E-04-2.95942E-02-3.11725E+00 8.51193E-03 1.67709E-02-2.01293E-02 4.79641E+01-2.20698E+01 2.67140E+00



 n o d a l   p r i n t   o u t   f o r   t i m e  s t e p    3001                              ( at time 1.4998499E+00 )

 nodal point  x-rot      y-rot       z-rot       x-rot vel   y-rot vel   z-rot vel   x-rot acc   y-rot acc   z-rot acc
    22626  1.36198E-06 4.71806E-05 8.11468E-05-5.24182E-07 3.23339E-05 5.80211E-05 3.25896E-05-1.29049E-04-1.62860E-04



 n o d a l   p r i n t   o u t   f o r   t i m e  s t e p    3201                              ( at time 1.5998399E+00 )

 nodal point  x-disp     y-disp      z-disp      x-vel       y-vel       z-vel      x-accl      y-accl      z-accl      x-coor      y-coor      z-coor
    22626 -1.48939E-04-4.29362E-02-4.97888E+00-7.78007E-04-2.73832E-02-3.11953E+00-2.89747E-03 2.21123E-02-2.27856E-02 4.79640E+01-2.20727E+01 2.35962E+00



 n o d a l   p r i n t   o u t   f o r   t i m e  s t e p    3201                              ( at time 1.5998399E+00 )

 nodal point  x-rot      y-rot       z-rot       x-rot vel   y-rot vel   z-rot vel   x-rot acc   y-rot acc   z-rot acc
    22626  1.16462E-06 5.02582E-05 8.60847E-05-3.65709E-07 3.26084E-05 4.83486E-05 1.58489E-06 2.74538E-06-9.67347E-05



 n o d a l   p r i n t   o u t   f o r   t i m e  s t e p    3401                              ( at time 1.6998299E+00 )

 nodal point  x-disp     y-disp      z-disp      x-vel       y-vel       z-vel      x-accl      y-accl      z-accl      x-coor      y-coor      z-coor
    22626 -2.39586E-04-4.54379E-02-5.29099E+00-1.14188E-03-2.23214E-02-3.12332E+00-3.63910E-03 5.06229E-02-3.79886E-02 4.79639E+01-2.20752E+01 2.04751E+00



 n o d a l   p r i n t   o u t   f o r   t i m e  s t e p    3401                              ( at time 1.6998299E+00 )

 nodal point  x-rot      y-rot       z-rot       x-rot vel   y-rot vel   z-rot vel   x-rot acc   y-rot acc   z-rot acc
    22626  1.03191E-06 5.33880E-05 9.11850E-05-3.35029E-06 3.08721E-05 4.89946E-05-2.98488E-05-1.73644E-05 6.46031E-06



 n o d a l   p r i n t   o u t   f o r   t i m e  s t e p    3601                              ( at time 1.7998199E+00 )

 nodal point  x-disp     y-disp      z-disp      x-vel       y-vel       z-vel      x-accl      y-accl      z-accl      x-coor      y-coor      z-coor
    22626 -3.42403E-04-4.74152E-02-5.60350E+00-1.35584E-03-1.75841E-02-3.12741E+00-2.13981E-03 4.73784E-02-4.08572E-02 4.79638E+01-2.20772E+01 1.73500E+00



 n o d a l   p r i n t   o u t   f o r   t i m e  s t e p    3601                              ( at time 1.7998199E+00 )

 nodal point  x-rot      y-rot       z-rot       x-rot vel   y-rot vel   z-rot vel   x-rot acc   y-rot acc   z-rot acc
    22626  9.48980E-07 5.62390E-05 9.60326E-05 3.99675E-07 2.18325E-05 4.28979E-05 3.75034E-05-9.04055E-05-6.09729E-05



 n o d a l   p r i n t   o u t   f o r   t i m e  s t e p    3801                              ( at time 1.8998099E+00 )

 nodal point  x-disp     y-disp      z-disp      x-vel       y-vel       z-vel      x-accl      y-accl      z-accl      x-coor      y-coor      z-coor
    22626 -5.32328E-04-4.90383E-02-5.91633E+00-2.16043E-03-1.50386E-02-3.12996E+00-8.04670E-03 2.54577E-02-2.54776E-02 4.79636E+01-2.20788E+01 1.42217E+00



 n o d a l   p r i n t   o u t   f o r   t i m e  s t e p    3801                              ( at time 1.8998099E+00 )

 nodal point  x-rot      y-rot       z-rot       x-rot vel   y-rot vel   z-rot vel   x-rot acc   y-rot acc   z-rot acc
    22626  7.97055E-07 5.81900E-05 9.95228E-05 2.38672E-06 1.62927E-05 2.82114E-05 1.98724E-05-5.54031E-05-1.46880E-04



 n o d a l   p r i n t   o u t   f o r   t i m e  s t e p    4001                              ( at time 1.9997999E+00 )

 nodal point  x-disp     y-disp      z-disp      x-vel       y-vel       z-vel      x-accl      y-accl      z-accl      x-coor      y-coor      z-coor
    22626 -7.05454E-04-5.04200E-02-6.22942E+00-1.64744E-03-1.27415E-02-3.13215E+00 5.13043E-03 2.29728E-02-2.19343E-02 4.79635E+01-2.20802E+01 1.10908E+00



 n o d a l   p r i n t   o u t   f o r   t i m e  s t e p    4001                              ( at time 1.9997999E+00 )

 nodal point  x-rot      y-rot       z-rot       x-rot vel   y-rot vel   z-rot vel   x-rot acc   y-rot acc   z-rot acc
    22626  1.05969E-06 5.96047E-05 1.01913E-04 4.10498E-06 1.38186E-05 2.03567E-05 1.71843E-05-2.47434E-05-7.85552E-05



 n o d a l   p r i n t   o u t   f o r   t i m e  s t e p    4201                              ( at time 2.0997899E+00 )

 nodal point  x-disp     y-disp      z-disp      x-vel       y-vel       z-vel      x-accl      y-accl      z-accl      x-coor      y-coor      z-coor
    22626 -8.75848E-04-5.15065E-02-6.54276E+00-1.87487E-03-9.09770E-03-3.13524E+00-2.27460E-03 3.64418E-02-3.08521E-02 4.79633E+01-2.20813E+01 7.95742E-01



 n o d a l   p r i n t   o u t   f o r   t i m e  s t e p    4201                              ( at time 2.0997899E+00 )

 nodal point  x-rot      y-rot       z-rot       x-rot vel   y-rot vel   z-rot vel   x-rot acc   y-rot acc   z-rot acc
    22626  1.40111E-06 6.02602E-05 1.03026E-04-7.96078E-07 3.51878E-06 1.77267E-06-4.90154E-05-1.03009E-04-1.85859E-04



 n o d a l   p r i n t   o u t   f o r   t i m e  s t e p    4401                              ( at time 2.1997798E+00 )

 nodal point  x-disp     y-disp      z-disp      x-vel       y-vel       z-vel      x-accl      y-accl      z-accl      x-coor      y-coor      z-coor
    22626 -1.11729E-03-5.21856E-02-6.85643E+00-2.73541E-03-4.30534E-03-3.13901E+00-8.60627E-03 4.79284E-02-3.77169E-02 4.79631E+01-2.20820E+01 4.82074E-01



 n o d a l   p r i n t   o u t   f o r   t i m e  s t e p    4401                              ( at time 2.1997798E+00 )

 nodal point  x-rot      y-rot       z-rot       x-rot vel   y-rot vel   z-rot vel   x-rot acc   y-rot acc   z-rot acc
    22626  1.24405E-06 6.03462E-05 1.03058E-04-1.44082E-06-1.11268E-06-1.91114E-06-6.44807E-06-4.63193E-05-3.68418E-05



 n o d a l   p r i n t   o u t   f o r   t i m e  s t e p    4601                              ( at time 2.2997698E+00 )

 nodal point  x-disp     y-disp      z-disp      x-vel       y-vel       z-vel      x-accl      y-accl      z-accl      x-coor      y-coor      z-coor
    22626 -1.42402E-03-5.23712E-02-7.17048E+00-3.49547E-03-1.97849E-05-3.14232E+00-7.60130E-03 4.28598E-02-3.30982E-02 4.79628E+01-2.20822E+01 1.68019E-01



 n o d a l   p r i n t   o u t   f o r   t i m e  s t e p    4601                              ( at time 2.2997698E+00 )

 nodal point  x-rot      y-rot       z-rot       x-rot vel   y-rot vel   z-rot vel   x-rot acc   y-rot acc   z-rot acc
    22626  8.16443E-07 6.01007E-05 1.02764E-04-4.95462E-06-9.10978E-06-1.19935E-05-3.51415E-05-7.99789E-05-1.00833E-04



 n o d a l   p r i n t   o u t   f o r   t i m e  s t e p    4801                              ( at time 2.3997598E+00 )

 nodal point  x-disp     y-disp      z-disp      x-vel       y-vel       z-vel      x-accl      y-accl      z-accl      x-coor      y-coor      z-coor
    22626 -1.79154E-03-5.22761E-02-7.48478E+00-3.56905E-03 1.91408E-03-3.14440E+00-7.35833E-04 1.93406E-02-2.08542E-02 4.79624E+01-2.20821E+01-1.46283E-01



 n o d a l   p r i n t   o u t   f o r   t i m e  s t e p    4801                              ( at time 2.3997598E+00 )

 nodal point  x-rot      y-rot       z-rot       x-rot vel   y-rot vel   z-rot vel   x-rot acc   y-rot acc   z-rot acc
    22626  2.41286E-07 5.88651E-05 1.00327E-04-6.35846E-06-1.55631E-05-3.29762E-05-1.40398E-05-6.45395E-05-2.09849E-04



 n o d a l   p r i n t   o u t   f o r   t i m e  s t e p    5001                              ( at time 2.4997498E+00 )

 nodal point  x-disp     y-disp      z-disp      x-vel       y-vel       z-vel      x-accl      y-accl      z-accl      x-coor      y-coor      z-coor
    22626 -2.18196E-03-5.19661E-02-7.79931E+00-4.23860E-03 4.98105E-03-3.14711E+00-6.69617E-03 3.06728E-02-2.70823E-02 4.79620E+01-2.20818E+01-4.60809E-01



 n o d a l   p r i n t   o u t   f o r   t i m e  s t e p    5001                              ( at time 2.4997498E+00 )

 nodal point  x-rot      y-rot       z-rot       x-rot vel   y-rot vel   z-rot vel   x-rot acc   y-rot acc   z-rot acc
    22626 -2.73346E-07 5.66789E-05 9.64239E-05-4.90395E-06-2.63546E-05-4.81281E-05 1.45464E-05-1.07926E-04-1.51534E-04



 n o d a l   p r i n t   o u t   f o r   t i m e  s t e p    5201                              ( at time 2.5997398E+00 )

 nodal point  x-disp     y-disp      z-disp      x-vel       y-vel       z-vel      x-accl      y-accl      z-accl      x-coor      y-coor      z-coor
    22626 -2.65397E-03-5.12447E-02-8.11418E+00-5.22931E-03 9.39945E-03-3.15074E+00-9.90813E-03 4.41884E-02-3.62910E-02 4.79615E+01-2.20810E+01-7.75675E-01



 n o d a l   p r i n t   o u t   f o r   t i m e  s t e p    5201                              ( at time 2.5997398E+00 )

 nodal point  x-rot      y-rot       z-rot       x-rot vel   y-rot vel   z-rot vel   x-rot acc   y-rot acc   z-rot acc
    22626 -7.22016E-07 5.36255E-05 9.10871E-05-5.49538E-06-3.51631E-05-6.15420E-05-5.91490E-06-8.80937E-05-1.34152E-04



 n o d a l   p r i n t   o u t   f o r   t i m e  s t e p    5401                              ( at time 2.6997298E+00 )

 nodal point  x-disp     y-disp      z-disp      x-vel       y-vel       z-vel      x-accl      y-accl      z-accl      x-coor      y-coor      z-coor
    22626 -3.22015E-03-5.00998E-02-8.42940E+00-6.37273E-03 1.30317E-02-3.15420E+00-1.14353E-02 3.63259E-02-3.46528E-02 4.79610E+01-2.20799E+01-1.09090E+00



 n o d a l   p r i n t   o u t   f o r   t i m e  s t e p    5401                              ( at time 2.6997298E+00 )

 nodal point  x-rot      y-rot       z-rot       x-rot vel   y-rot vel   z-rot vel   x-rot acc   y-rot acc   z-rot acc
    22626 -1.10828E-06 4.99534E-05 8.46855E-05-2.75739E-06-4.09360E-05-6.62704E-05 2.73827E-05-5.77345E-05-4.72894E-05



 n o d a l   p r i n t   o u t   f o r   t i m e  s t e p    5601                              ( at time 2.7997198E+00 )

 nodal point  x-disp     y-disp      z-disp      x-vel       y-vel       z-vel      x-accl      y-accl      z-accl      x-coor      y-coor      z-coor
    22626 -3.92714E-03-4.86713E-02-8.74490E+00-7.58984E-03 1.52126E-02-3.15639E+00-1.21723E-02 2.18110E-02-2.19129E-02 4.79603E+01-2.20785E+01-1.40640E+00



 n o d a l   p r i n t   o u t   f o r   t i m e  s t e p    5601                              ( at time 2.7997198E+00 )

 nodal point  x-rot      y-rot       z-rot       x-rot vel   y-rot vel   z-rot vel   x-rot acc   y-rot acc   z-rot acc
    22626 -1.31668E-06 4.51332E-05 7.66785E-05-2.79436E-07-5.65046E-05-9.70384E-05 2.47820E-05-1.55702E-04-3.07711E-04



 n o d a l   p r i n t   o u t   f o r   t i m e  s t e p    5801                              ( at time 2.8997098E+00 )

 nodal point  x-disp     y-disp      z-disp      x-vel       y-vel       z-vel      x-accl      y-accl      z-accl      x-coor      y-coor      z-coor
    22626 -4.69184E-03-4.70952E-02-9.06060E+00-7.78065E-03 1.62167E-02-3.15807E+00-1.90836E-03 1.00430E-02-1.67482E-02 4.79595E+01-2.20769E+01-1.72210E+00



 n o d a l   p r i n t   o u t   f o r   t i m e  s t e p    5801                              ( at time 2.8997098E+00 )

 nodal point  x-rot      y-rot       z-rot       x-rot vel   y-rot vel   z-rot vel   x-rot acc   y-rot acc   z-rot acc
    22626 -1.19700E-06 3.87816E-05 6.58865E-05 1.26975E-06-6.61907E-05-1.15078E-04 1.54935E-05-9.68703E-05-1.80416E-04



 n o d a l   p r i n t   o u t   f o r   t i m e  s t e p    6001                              ( at time 2.9996998E+00 )

 nodal point  x-disp     y-disp      z-disp      x-vel       y-vel       z-vel      x-accl      y-accl      z-accl      x-coor      y-coor      z-coor
    22626 -5.51046E-03-4.53586E-02-9.37648E+00-8.82437E-03 1.86857E-02-3.16042E+00-1.04382E-02 2.46922E-02-2.34889E-02 4.79587E+01-2.20751E+01-2.03798E+00



 n o d a l   p r i n t   o u t   f o r   t i m e  s t e p    6001                              ( at time 2.9996998E+00 )

 nodal point  x-rot      y-rot       z-rot       x-rot vel   y-rot vel   z-rot vel   x-rot acc   y-rot acc   z-rot acc
    22626 -1.07501E-06 3.19572E-05 5.43634E-05-4.48192E-07-7.02269E-05-1.20239E-04-1.71812E-05-4.03662E-05-5.16174E-05



 n o d a l   p r i n t   o u t   f o r   t i m e  s t e p    6201                              ( at time 3.0996898E+00 )

 nodal point  x-disp     y-disp      z-disp      x-vel       y-vel       z-vel      x-accl      y-accl      z-accl      x-coor      y-coor      z-coor
    22626 -6.46915E-03-4.33658E-02-9.69261E+00-1.02867E-02 2.07172E-02-3.16242E+00-1.46252E-02 2.03168E-02-2.00244E-02 4.79577E+01-2.20732E+01-2.35411E+00



 n o d a l   p r i n t   o u t   f o r   t i m e  s t e p    6201                              ( at time 3.0996898E+00 )

 nodal point  x-rot      y-rot       z-rot       x-rot vel   y-rot vel   z-rot vel   x-rot acc   y-rot acc   z-rot acc
    22626 -1.24085E-06 2.47347E-05 4.19113E-05-3.47090E-06-7.40005E-05-1.31114E-04-3.02301E-05-3.77404E-05-1.08759E-04



 n o d a l   p r i n t   o u t   f o r   t i m e  s t e p    6401                              ( at time 3.1996798E+00 )

 nodal point  x-disp     y-disp      z-disp      x-vel       y-vel       z-vel      x-accl      y-accl      z-accl      x-coor      y-coor      z-coor
    22626 -7.53121E-03-4.13234E-02-1.00089E+01-1.08786E-02 1.98271E-02-3.16302E+00-5.91915E-03-8.90162E-03-6.02066E-03 4.79566E+01-2.20711E+01-2.67036E+00



 n o d a l   p r i n t   o u t   f o r   t i m e  s t e p    6401                              ( at time 3.1996798E+00 )

 nodal point  x-rot      y-rot       z-rot       x-rot vel   y-rot vel   z-rot vel   x-rot acc   y-rot acc   z-rot acc
    22626 -1.53708E-06 1.67620E-05 2.84448E-05-2.87857E-06-8.49921E-05-1.43427E-04 5.92389E-06-1.09927E-04-1.23138E-04



 n o d a l   p r i n t   o u t   f o r   t i m e  s t e p    6601                              ( at time 3.2996698E+00 )

 nodal point  x-disp     y-disp      z-disp      x-vel       y-vel       z-vel      x-accl      y-accl      z-accl      x-coor      y-coor      z-coor
    22626 -8.63084E-03-3.94375E-02-1.03251E+01-1.10934E-02 1.78961E-02-3.16270E+00-2.14864E-03-1.93118E-02 3.25474E-03 4.79555E+01-2.20692E+01-2.98661E+00



 n o d a l   p r i n t   o u t   f o r   t i m e  s t e p    6601                              ( at time 3.2996698E+00 )

 nodal point  x-rot      y-rot       z-rot       x-rot vel   y-rot vel   z-rot vel   x-rot acc   y-rot acc   z-rot acc
    22626 -1.93545E-06 8.12433E-06 1.37643E-05-3.98987E-06-8.83506E-05-1.50088E-04-1.11141E-05-3.35886E-05-6.66205E-05



 n o d a l   p r i n t   o u t   f o r   t i m e  s t e p    6801                              ( at time 3.3996598E+00 )

 nodal point  x-disp     y-disp      z-disp      x-vel       y-vel       z-vel      x-accl      y-accl      z-accl      x-coor      y-coor      z-coor
    22626 -9.76880E-03-3.77378E-02-1.06413E+01-1.15909E-02 1.61143E-02-3.16264E+00-4.97508E-03-1.78197E-02 5.24573E-04 4.79544E+01-2.20675E+01-3.30285E+00



 n o d a l   p r i n t   o u t   f o r   t i m e  s t e p    6801                              ( at time 3.3996598E+00 )

 nodal point  x-rot      y-rot       z-rot       x-rot vel   y-rot vel   z-rot vel   x-rot acc   y-rot acc   z-rot acc
    22626 -2.11959E-06-6.32214E-07-1.36577E-06-3.65417E-06-8.70995E-05-1.51942E-04 3.35731E-06 1.25127E-05-1.85365E-05



 n o d a l   p r i n t   o u t   f o r   t i m e  s t e p    7001                              ( at time 3.4996498E+00 )

 nodal point  x-disp     y-disp      z-disp      x-vel       y-vel       z-vel      x-accl      y-accl      z-accl      x-coor      y-coor      z-coor
    22626 -1.09611E-02-3.61967E-02-1.09576E+01-1.22810E-02 1.46798E-02-3.16292E+00-6.90205E-03-1.43467E-02-2.79216E-03 4.79532E+01-2.20660E+01-3.61910E+00



 n o d a l   p r i n t   o u t   f o r   t i m e  s t e p    7001                              ( at time 3.4996498E+00 )

 nodal point  x-rot      y-rot       z-rot       x-rot vel   y-rot vel   z-rot vel   x-rot acc   y-rot acc   z-rot acc
    22626 -2.21018E-06-9.21307E-06-1.60846E-05-6.64688E-07-8.62530E-05-1.46286E-04 2.98978E-05 8.46607E-06 5.65651E-05



 n o d a l   p r i n t   o u t   f o r   t i m e  s t e p    7201                              ( at time 3.5996397E+00 )

 nodal point  x-disp     y-disp      z-disp      x-vel       y-vel       z-vel      x-accl      y-accl      z-accl      x-coor      y-coor      z-coor
    22626 -1.22057E-02-3.48350E-02-1.12739E+01-1.22938E-02 1.22130E-02-3.16266E+00-1.27734E-04-2.46710E-02 2.61333E-03 4.79520E+01-2.20646E+01-3.93535E+00



 n o d a l   p r i n t   o u t   f o r   t i m e  s t e p    7201                              ( at time 3.5996397E+00 )

 nodal point  x-rot      y-rot       z-rot       x-rot vel   y-rot vel   z-rot vel   x-rot acc   y-rot acc   z-rot acc
    22626 -2.42772E-06-1.76555E-05-3.03445E-05-1.87784E-07-8.30178E-05-1.36568E-04 4.76952E-06 3.23553E-05 9.71874E-05



 n o d a l   p r i n t   o u t   f o r   t i m e  s t e p    7401                              ( at time 3.6996297E+00 )

 nodal point  x-disp     y-disp      z-disp      x-vel       y-vel       z-vel      x-accl      y-accl      z-accl      x-coor      y-coor      z-coor
    22626 -1.34221E-02-3.37802E-02-1.15900E+01-1.19870E-02 8.91460E-03-3.16163E+00 3.06820E-03-3.29869E-02 1.02816E-02 4.79508E+01-2.20636E+01-4.25154E+00



 n o d a l   p r i n t   o u t   f o r   t i m e  s t e p    7401                              ( at time 3.6996297E+00 )

 nodal point  x-rot      y-rot       z-rot       x-rot vel   y-rot vel   z-rot vel   x-rot acc   y-rot acc   z-rot acc
    22626 -2.37247E-06-2.58496E-05-4.39576E-05 1.40312E-06-8.03545E-05-1.34846E-04 1.59106E-05 2.66356E-05 1.72201E-05



 n o d a l   p r i n t   o u t   f o r   t i m e  s t e p    7601                              ( at time 3.7996197E+00 )

 nodal point  x-disp     y-disp      z-disp      x-vel       y-vel       z-vel      x-accl      y-accl      z-accl      x-coor      y-coor      z-coor
    22626 -1.45957E-02-3.30155E-02-1.19061E+01-1.15064E-02 6.34662E-03-3.16094E+00 4.80701E-03-2.56824E-02 6.95299E-03 4.79496E+01-2.20628E+01-4.56763E+00



 n o d a l   p r i n t   o u t   f o r   t i m e  s t e p    7601                              ( at time 3.7996197E+00 )

 nodal point  x-rot      y-rot       z-rot       x-rot vel   y-rot vel   z-rot vel   x-rot acc   y-rot acc   z-rot acc
    22626 -2.26942E-06-3.35394E-05-5.69893E-05 8.90317E-07-7.10004E-05-1.18890E-04-5.12858E-06 9.35500E-05 1.59582E-04



 n o d a l   p r i n t   o u t   f o r   t i m e  s t e p    7801                              ( at time 3.8996097E+00 )

 nodal point  x-disp     y-disp      z-disp      x-vel       y-vel       z-vel      x-accl      y-accl      z-accl      x-coor      y-coor      z-coor
    22626 -1.57181E-02-3.24830E-02-1.22222E+01-1.09187E-02 4.56767E-03-3.16080E+00 5.87710E-03-1.77912E-02 1.34720E-03 4.79485E+01-2.20623E+01-4.88368E+00



 n o d a l   p r i n t   o u t   f o r   t i m e  s t e p    7801                              ( at time 3.8996097E+00 )

 nodal point  x-rot      y-rot       z-rot       x-rot vel   y-rot vel   z-rot vel   x-rot acc   y-rot acc   z-rot acc
    22626 -2.43181E-06-4.00852E-05-6.78418E-05-5.21223E-06-5.76086E-05-9.32693E-05-6.10315E-05 1.33932E-04 2.56228E-04



 n o d a l   p r i n t   o u t   f o r   t i m e  s t e p    8001                              ( at time 3.9995997E+00 )

 nodal point  x-disp     y-disp      z-disp      x-vel       y-vel       z-vel      x-accl      y-accl      z-accl      x-coor      y-coor      z-coor
    22626 -1.67829E-02-3.20696E-02-1.25383E+01-1.03381E-02 3.58998E-03-3.16114E+00 5.80688E-03-9.77785E-03-3.34774E-03 4.79474E+01-2.20619E+01-5.19975E+00



 n o d a l   p r i n t   o u t   f o r   t i m e  s t e p    8001                              ( at time 3.9995997E+00 )

 nodal point  x-rot      y-rot       z-rot       x-rot vel   y-rot vel   z-rot vel   x-rot acc   y-rot acc   z-rot acc
    22626 -2.94675E-06-4.52767E-05-7.62483E-05-7.27370E-06-4.52884E-05-7.64572E-05-2.06168E-05 1.23214E-04 1.68138E-04



 n o d a l   p r i n t   o u t   f o r   t i m e  s t e p    8201                              ( at time 4.0995897E+00 )

 nodal point  x-disp     y-disp      z-disp      x-vel       y-vel       z-vel      x-accl      y-accl      z-accl      x-coor      y-coor      z-coor
    22626 -1.77323E-02-3.18286E-02-1.28543E+01-8.52119E-03 1.04632E-03-3.16066E+00 1.81707E-02-2.54391E-02 4.76646E-03 4.79464E+01-2.20616E+01-5.51581E+00



 n o d a l   p r i n t   o u t   f o r   t i m e  s t e p    8201                              ( at time 4.0995897E+00 )

 nodal point  x-rot      y-rot       z-rot       x-rot vel   y-rot vel   z-rot vel   x-rot acc   y-rot acc   z-rot acc
    22626 -3.61990E-06-4.93267E-05-8.28821E-05-6.28592E-06-3.20971E-05-5.36145E-05 9.87878E-06 1.31926E-04 2.28450E-04



 n o d a l   p r i n t   o u t   f o r   t i m e  s t e p    8401                              ( at time 4.1995797E+00 )

 nodal point  x-disp     y-disp      z-disp      x-vel       y-vel       z-vel      x-accl      y-accl      z-accl      x-coor      y-coor      z-coor
    22626 -1.85023E-02-3.18493E-02-1.31703E+01-6.85216E-03-1.36356E-03-3.16016E+00 1.66919E-02-2.41013E-02 5.03114E-03 4.79457E+01-2.20616E+01-5.83182E+00



 n o d a l   p r i n t   o u t   f o r   t i m e  s t e p    8401                              ( at time 4.1995797E+00 )

 nodal point  x-rot      y-rot       z-rot       x-rot vel   y-rot vel   z-rot vel   x-rot acc   y-rot acc   z-rot acc
    22626 -4.24493E-06-5.16182E-05-8.65151E-05-7.08778E-06-1.28757E-05-1.93480E-05-8.01942E-06 1.92233E-04 3.42699E-04



 n o d a l   p r i n t   o u t   f o r   t i m e  s t e p    8601                              ( at time 4.2995697E+00 )

 nodal point  x-disp     y-disp      z-disp      x-vel       y-vel       z-vel      x-accl      y-accl      z-accl      x-coor      y-coor      z-coor
    22626 -1.91256E-02-3.21018E-02-1.34863E+01-5.49302E-03-3.42413E-03-3.15990E+00 1.35928E-02-2.06077E-02 2.55611E-03 4.79451E+01-2.20619E+01-6.14778E+00



 n o d a l   p r i n t   o u t   f o r   t i m e  s t e p    8601                              ( at time 4.2995697E+00 )

 nodal point  x-rot      y-rot       z-rot       x-rot vel   y-rot vel   z-rot vel   x-rot acc   y-rot acc   z-rot acc
    22626 -4.99445E-06-5.19388E-05-8.70176E-05-7.95382E-06 3.96055E-06 8.08166E-06-8.66125E-06 1.68380E-04 2.74324E-04



 n o d a l   p r i n t   o u t   f o r   t i m e  s t e p    8801                              ( at time 4.3995597E+00 )

 nodal point  x-disp     y-disp      z-disp      x-vel       y-vel       z-vel      x-accl      y-accl      z-accl      x-coor      y-coor      z-coor
    22626 -1.95869E-02-3.24810E-02-1.38023E+01-3.74690E-03-4.17474E-03-3.16059E+00 1.74630E-02-7.50694E-03-6.87192E-03 4.79446E+01-2.20623E+01-6.46377E+00



 n o d a l   p r i n t   o u t   f o r   t i m e  s t e p    8801                              ( at time 4.3995597E+00 )

 nodal point  x-rot      y-rot       z-rot       x-rot vel   y-rot vel   z-rot vel   x-rot acc   y-rot acc   z-rot acc
    22626 -5.69722E-06-5.05434E-05-8.43281E-05-6.71363E-06 2.37477E-05 4.37095E-05 1.24031E-05 1.97892E-04 3.56315E-04



 n o d a l   p r i n t   o u t   f o r   t i m e  s t e p    9001                              ( at time 4.4995497E+00 )

 nodal point  x-disp     y-disp      z-disp      x-vel       y-vel       z-vel      x-accl      y-accl      z-accl      x-coor      y-coor      z-coor
    22626 -1.98777E-02-3.29967E-02-1.41183E+01-1.95168E-03-6.50352E-03-3.16015E+00 1.79539E-02-2.32900E-02 4.38017E-03 4.79443E+01-2.20628E+01-6.77978E+00



 n o d a l   p r i n t   o u t   f o r   t i m e  s t e p    9001                              ( at time 4.4995497E+00 )

 nodal point  x-rot      y-rot       z-rot       x-rot vel   y-rot vel   z-rot vel   x-rot acc   y-rot acc   z-rot acc
    22626 -6.39486E-06-4.68592E-05-7.78167E-05-5.56913E-06 4.59279E-05 8.03026E-05 1.14462E-05 2.21823E-04 3.65966E-04



 n o d a l   p r i n t   o u t   f o r   t i m e  s t e p    9201                              ( at time 4.5995397E+00 )

 nodal point  x-disp     y-disp      z-disp      x-vel       y-vel       z-vel      x-accl      y-accl      z-accl      x-coor      y-coor      z-coor
    22626 -1.99737E-02-3.38076E-02-1.44342E+01 2.02290E-04-9.61351E-03-3.15931E+00 2.15419E-02-3.11030E-02 8.41464E-03 4.79442E+01-2.20636E+01-7.09573E+00



 n o d a l   p r i n t   o u t   f o r   t i m e  s t e p    9201                              ( at time 4.5995397E+00 )

 nodal point  x-rot      y-rot       z-rot       x-rot vel   y-rot vel   z-rot vel   x-rot acc   y-rot acc   z-rot acc
    22626 -7.07158E-06-4.14615E-05-6.83273E-05-8.91069E-06 6.37063E-05 1.11726E-04-3.34190E-05 1.77802E-04 3.14265E-04



 n o d a l   p r i n t   o u t   f o r   t i m e  s t e p    9401                              ( at time 4.6995297E+00 )

 nodal point  x-disp     y-disp      z-disp      x-vel       y-vel       z-vel      x-accl      y-accl      z-accl      x-coor      y-coor      z-coor
    22626 -1.98300E-02-3.48562E-02-1.47500E+01 2.36783E-03-1.07953E-02-3.15688E+00 2.16576E-02-1.18187E-02 2.43045E-02 4.79444E+01-2.20646E+01-7.41151E+00



 n o d a l   p r i n t   o u t   f o r   t i m e  s t e p    9401                              ( at time 4.6995297E+00 )

 nodal point  x-rot      y-rot       z-rot       x-rot vel   y-rot vel   z-rot vel   x-rot acc   y-rot acc   z-rot acc
    22626 -8.02629E-06-3.31242E-05-5.51810E-05-2.17715E-06 1.04547E-04 1.45985E-04 6.73422E-05 4.08451E-04 3.42626E-04



 n o d a l   p r i n t   o u t   f o r   t i m e  s t e p    9601                              ( at time 4.7995197E+00 )

 nodal point  x-disp     y-disp      z-disp      x-vel       y-vel       z-vel      x-accl      y-accl      z-accl      x-coor      y-coor      z-coor
    22626 -1.94622E-02-3.60111E-02-1.50655E+01 4.54378E-03-1.19097E-02-3.15213E+00 2.17616E-02-1.11458E-02 4.75288E-02 4.79447E+01-2.20658E+01-7.72699E+00



 n o d a l   p r i n t   o u t   f o r   t i m e  s t e p    9601                              ( at time 4.7995197E+00 )

 nodal point  x-rot      y-rot       z-rot       x-rot vel   y-rot vel   z-rot vel   x-rot acc   y-rot acc   z-rot acc
    22626 -7.86635E-06-1.91387E-05-3.80383E-05 1.97790E-07 1.83368E-04 1.88131E-04 2.37518E-05 7.88287E-04 4.21498E-04



 n o d a l   p r i n t   o u t   f o r   t i m e  s t e p    9801                              ( at time 4.8995097E+00 )

 nodal point  x-disp     y-disp      z-disp      x-vel       y-vel       z-vel      x-accl      y-accl      z-accl      x-coor      y-coor      z-coor
    22626 -1.88656E-02-3.72071E-02-1.53803E+01 7.25543E-03-1.20985E-02-3.14315E+00 2.71193E-02-1.88813E-03 8.98428E-02 4.79453E+01-2.20670E+01-8.04177E+00



 n o d a l   p r i n t   o u t   f o r   t i m e  s t e p    9801                              ( at time 4.8995097E+00 )

 nodal point  x-rot      y-rot       z-rot       x-rot vel   y-rot vel   z-rot vel   x-rot acc   y-rot acc   z-rot acc
    22626 -6.44140E-06 3.38253E-06-1.82429E-05 3.24560E-05 2.83164E-04 1.99137E-04 3.22615E-04 9.98058E-04 1.10074E-04



 n o d a l   p r i n t   o u t   f o r   t i m e  s t e p   10001                              ( at time 4.9994997E+00 )

 nodal point  x-disp     y-disp      z-disp      x-vel       y-vel       z-vel      x-accl      y-accl      z-accl      x-coor      y-coor      z-coor
    22626 -1.80115E-02-3.83846E-02-1.56938E+01 1.01215E-02-1.16351E-02-3.12722E+00 2.86630E-02 4.63442E-03 1.59312E-01 4.79462E+01-2.20682E+01-8.35530E+00



 n o d a l   p r i n t   o u t   f o r   t i m e  s t e p   10001                              ( at time 4.9994997E+00 )

 nodal point  x-rot      y-rot       z-rot       x-rot vel   y-rot vel   z-rot vel   x-rot acc   y-rot acc   z-rot acc
    22626  7.22201E-07 3.90208E-05 1.89345E-06 1.05263E-04 4.36294E-04 2.00594E-04 7.28140E-04 1.53145E-03 1.45728E-05



 n o d a l   p r i n t   o u t   f o r   t i m e  s t e p   10202                              ( at time 5.0999896E+00 )

 nodal point  x-disp     y-disp      z-disp      x-vel       y-vel       z-vel      x-accl      y-accl      z-accl      x-coor      y-coor      z-coor
    22626 -1.68159E-02-3.94771E-02-1.60069E+01 1.34771E-02-9.91079E-03-3.10472E+00 3.33925E-02 1.71594E-02 2.23819E-01 4.79474E+01-2.20693E+01-8.66843E+00



 n o d a l   p r i n t   o u t   f o r   t i m e  s t e p   10202                              ( at time 5.0999896E+00 )

 nodal point  x-rot      y-rot       z-rot       x-rot vel   y-rot vel   z-rot vel   x-rot acc   y-rot acc   z-rot acc
    22626  1.50367E-05 9.37581E-05 2.17544E-05 1.97715E-04 6.48191E-04 1.85877E-04 9.20016E-04 2.10865E-03-1.46451E-04



 n o d a l   p r i n t   o u t   f o r   t i m e  s t e p   10402                              ( at time 5.1999796E+00 )

 nodal point  x-disp     y-disp      z-disp      x-vel       y-vel       z-vel      x-accl      y-accl      z-accl      x-coor      y-coor      z-coor
    22626 -1.52755E-02-4.02477E-02-1.63161E+01 1.71501E-02-5.50448E-03-3.07851E+00 3.67344E-02 4.40673E-02 2.62157E-01 4.79489E+01-2.20700E+01-8.97756E+00



 n o d a l   p r i n t   o u t   f o r   t i m e  s t e p   10402                              ( at time 5.1999796E+00 )

 nodal point  x-rot      y-rot       z-rot       x-rot vel   y-rot vel   z-rot vel   x-rot acc   y-rot acc   z-rot acc
    22626  4.14756E-05 1.70762E-04 3.93153E-05 3.22577E-04 8.84338E-04 1.57990E-04 1.24874E-03 2.36170E-03-2.78897E-04



 n o d a l   p r i n t   o u t   f o r   t i m e  s t e p   10602                              ( at time 5.2999696E+00 )

 nodal point  x-disp     y-disp      z-disp      x-vel       y-vel       z-vel      x-accl      y-accl      z-accl      x-coor      y-coor      z-coor
    22626 -1.33475E-02-4.05182E-02-1.66224E+01 2.11399E-02 2.28387E-04-3.04793E+00 3.99020E-02 5.73345E-02 3.05886E-01 4.79508E+01-2.20703E+01-9.28390E+00



 n o d a l   p r i n t   o u t   f o r   t i m e  s t e p   10602                              ( at time 5.2999696E+00 )

 nodal point  x-rot      y-rot       z-rot       x-rot vel   y-rot vel   z-rot vel   x-rot acc   y-rot acc   z-rot acc
    22626  8.08598E-05 2.72398E-04 5.34680E-05 4.61794E-04 1.16494E-03 1.14983E-04 1.39232E-03 2.80633E-03-4.30111E-04



 n o d a l   p r i n t   o u t   f o r   t i m e  s t e p   10802                              ( at time 5.3999596E+00 )

 nodal point  x-disp     y-disp      z-disp      x-vel       y-vel       z-vel      x-accl      y-accl      z-accl      x-coor      y-coor      z-coor
    22626 -1.10734E-02-4.02449E-02-1.69256E+01 2.47581E-02 5.67156E-03-3.01555E+00 3.61853E-02 5.44372E-02 3.23779E-01 4.79531E+01-2.20700E+01-9.58709E+00



 n o d a l   p r i n t   o u t   f o r   t i m e  s t e p   10802                              ( at time 5.3999596E+00 )

 nodal point  x-rot      y-rot       z-rot       x-rot vel   y-rot vel   z-rot vel   x-rot acc   y-rot acc   z-rot acc
    22626  1.34877E-04 4.03485E-04 6.32342E-05 6.18800E-04 1.45273E-03 7.18082E-05 1.57021E-03 2.87820E-03-4.31795E-04



 n o d a l   p r i n t   o u t   f o r   t i m e  s t e p   11002                              ( at time 5.4999496E+00 )

 nodal point  x-disp     y-disp      z-disp      x-vel       y-vel       z-vel      x-accl      y-accl      z-accl      x-coor      y-coor      z-coor
    22626 -8.30419E-03-3.93565E-02-1.72253E+01 3.03673E-02 1.21600E-02-2.97913E+00 5.60980E-02 6.48909E-02 3.64278E-01 4.79559E+01-2.20691E+01-9.88679E+00



 n o d a l   p r i n t   o u t   f o r   t i m e  s t e p   11002                              ( at time 5.4999496E+00 )

 nodal point  x-rot      y-rot       z-rot       x-rot vel   y-rot vel   z-rot vel   x-rot acc   y-rot acc   z-rot acc
    22626  2.04377E-04 5.63678E-04 6.78089E-05 7.71321E-04 1.75045E-03 1.29903E-05 1.52536E-03 2.97747E-03-5.88238E-04



 n o d a l   p r i n t   o u t   f o r   t i m e  s t e p   11202                              ( at time 5.5999396E+00 )

 nodal point  x-disp     y-disp      z-disp      x-vel       y-vel       z-vel      x-accl      y-accl      z-accl      x-coor      y-coor      z-coor
    22626 -5.01391E-03-3.77189E-02-1.75212E+01 3.48317E-02 2.05397E-02-2.94029E+00 4.46483E-02 8.38055E-02 3.88433E-01 4.79592E+01-2.20675E+01-1.01827E+01



 n o d a l   p r i n t   o u t   f o r   t i m e  s t e p   11202                              ( at time 5.5999396E+00 )

 nodal point  x-rot      y-rot       z-rot       x-rot vel   y-rot vel   z-rot vel   x-rot acc   y-rot acc   z-rot acc
    22626  2.89989E-04 7.56346E-04 6.54040E-05 9.44435E-04 2.09643E-03-5.82320E-05 1.73132E-03 3.46017E-03-7.12295E-04



 n o d a l   p r i n t   o u t   f o r   t i m e  s t e p   11402                              ( at time 5.6999296E+00 )

 nodal point  x-disp     y-disp      z-disp      x-vel       y-vel       z-vel      x-accl      y-accl      z-accl      x-coor      y-coor      z-coor
    22626 -1.31329E-03-3.52716E-02-1.78134E+01 3.93039E-02 2.87190E-02-2.90248E+00 4.47264E-02 8.18010E-02 3.78071E-01 4.79629E+01-2.20651E+01-1.04749E+01



 n o d a l   p r i n t   o u t   f o r   t i m e  s t e p   11402                              ( at time 5.6999296E+00 )

 nodal point  x-rot      y-rot       z-rot       x-rot vel   y-rot vel   z-rot vel   x-rot acc   y-rot acc   z-rot acc
    22626  3.92890E-04 9.82723E-04 5.63459E-05 1.10635E-03 2.43789E-03-1.27927E-04 1.61929E-03 3.41492E-03-6.97017E-04



 n o d a l   p r i n t   o u t   f o r   t i m e  s t e p   11602                              ( at time 5.7999195E+00 )

 nodal point  x-disp     y-disp      z-disp      x-vel       y-vel       z-vel      x-accl      y-accl      z-accl      x-coor      y-coor      z-coor
    22626  2.90917E-03-3.19462E-02-1.81015E+01 4.56597E-02 3.68762E-02-2.86251E+00 6.35636E-02 8.15803E-02 3.99737E-01 4.79671E+01-2.20617E+01-1.07630E+01



 n o d a l   p r i n t   o u t   f o r   t i m e  s t e p   11602                              ( at time 5.7999195E+00 )

 nodal point  x-rot      y-rot       z-rot       x-rot vel   y-rot vel   z-rot vel   x-rot acc   y-rot acc   z-rot acc
    22626  5.11319E-04 1.24406E-03 3.91138E-05 1.26779E-03 2.76910E-03-2.15237E-04 1.61462E-03 3.31240E-03-8.73185E-04



 n o d a l   p r i n t   o u t   f o r   t i m e  s t e p   11802                              ( at time 5.8999095E+00 )

 nodal point  x-disp     y-disp      z-disp      x-vel       y-vel       z-vel      x-accl      y-accl      z-accl      x-coor      y-coor      z-coor
    22626  7.78229E-03-2.78694E-02-1.83856E+01 5.16088E-02 4.47465E-02-2.81949E+00 5.94980E-02 7.87107E-02 4.30277E-01 4.79720E+01-2.20577E+01-1.10471E+01



 n o d a l   p r i n t   o u t   f o r   t i m e  s t e p   11802                              ( at time 5.8999095E+00 )

 nodal point  x-rot      y-rot       z-rot       x-rot vel   y-rot vel   z-rot vel   x-rot acc   y-rot acc   z-rot acc
    22626  6.46709E-04 1.53822E-03 1.33369E-05 1.45011E-03 3.11160E-03-3.00475E-04 1.82340E-03 3.42538E-03-8.52474E-04



 n o d a l   p r i n t   o u t   f o r   t i m e  s t e p   12002                              ( at time 5.9998995E+00 )

 nodal point  x-disp     y-disp      z-disp      x-vel       y-vel       z-vel      x-accl      y-accl      z-accl      x-coor      y-coor      z-coor
    22626  1.32321E-02-2.29405E-02-1.86654E+01 5.76640E-02 5.40954E-02-2.77621E+00 6.05571E-02 9.34988E-02 4.32824E-01 4.79774E+01-2.20527E+01-1.13269E+01



 n o d a l   p r i n t   o u t   f o r   t i m e  s t e p   12002                              ( at time 5.9998995E+00 )

 nodal point  x-rot      y-rot       z-rot       x-rot vel   y-rot vel   z-rot vel   x-rot acc   y-rot acc   z-rot acc
    22626  7.99919E-04 1.86610E-03-2.14489E-05 1.60877E-03 3.45930E-03-3.97278E-04 1.58675E-03 3.47737E-03-9.68119E-04



 n o d a l   p r i n t   o u t   f o r   t i m e  s t e p   12202                              ( at time 6.0998895E+00 )

 nodal point  x-disp     y-disp      z-disp      x-vel       y-vel       z-vel      x-accl      y-accl      z-accl      x-coor      y-coor      z-coor
    22626  1.92955E-02-1.71937E-02-1.89409E+01 6.40574E-02 6.08687E-02-2.73354E+00 6.39411E-02 6.77391E-02 4.26767E-01 4.79835E+01-2.20470E+01-1.16024E+01



 n o d a l   p r i n t   o u t   f o r   t i m e  s t e p   12202                              ( at time 6.0998895E+00 )

 nodal point  x-rot      y-rot       z-rot       x-rot vel   y-rot vel   z-rot vel   x-rot acc   y-rot acc   z-rot acc
    22626  9.69067E-04 2.22812E-03-6.58525E-05 1.77172E-03 3.78566E-03-4.85759E-04 1.62959E-03 3.26388E-03-8.84896E-04



 n o d a l   p r i n t   o u t   f o r   t i m e  s t e p   12402                              ( at time 6.1998795E+00 )

 nodal point  x-disp     y-disp      z-disp      x-vel       y-vel       z-vel      x-accl      y-accl      z-accl      x-coor      y-coor      z-coor
    22626  2.60534E-02-1.06244E-02-1.92120E+01 7.08545E-02 7.03334E-02-2.68840E+00 6.79777E-02 9.46568E-02 4.51472E-01 4.79902E+01-2.20404E+01-1.18735E+01



 n o d a l   p r i n t   o u t   f o r   t i m e  s t e p   12402                              ( at time 6.1998795E+00 )

 nodal point  x-rot      y-rot       z-rot       x-rot vel   y-rot vel   z-rot vel   x-rot acc   y-rot acc   z-rot acc
    22626  1.15569E-03 2.62220E-03-1.20239E-04 1.96955E-03 4.09662E-03-6.03679E-04 1.97851E-03 3.10994E-03-1.17933E-03



 n o d a l   p r i n t   o u t   f o r   t i m e  s t e p   12602                              ( at time 6.2998695E+00 )

 nodal point  x-disp     y-disp      z-disp      x-vel       y-vel       z-vel      x-accl      y-accl      z-accl      x-coor      y-coor      z-coor
    22626  3.35442E-02-3.28784E-03-1.94785E+01 7.86119E-02 7.57136E-02-2.64362E+00 7.75811E-02 5.38070E-02 4.47867E-01 4.79977E+01-2.20331E+01-1.21400E+01



 n o d a l   p r i n t   o u t   f o r   t i m e  s t e p   12602                              ( at time 6.2998695E+00 )

 nodal point  x-rot      y-rot       z-rot       x-rot vel   y-rot vel   z-rot vel   x-rot acc   y-rot acc   z-rot acc
    22626  1.36001E-03 3.04788E-03-1.84455E-04 2.12338E-03 4.40974E-03-6.93986E-04 1.53850E-03 3.13151E-03-9.03161E-04



 n o d a l   p r i n t   o u t   f o r   t i m e  s t e p   12802                              ( at time 6.3998595E+00 )

 nodal point  x-disp     y-disp      z-disp      x-vel       y-vel       z-vel      x-accl      y-accl      z-accl      x-coor      y-coor      z-coor
    22626  4.18389E-02 4.71263E-03-1.97404E+01 8.73692E-02 8.41613E-02-2.59648E+00 8.75818E-02 8.44858E-02 4.71389E-01 4.80060E+01-2.20251E+01-1.24019E+01



 n o d a l   p r i n t   o u t   f o r   t i m e  s t e p   12802                              ( at time 6.3998595E+00 )

 nodal point  x-rot      y-rot       z-rot       x-rot vel   y-rot vel   z-rot vel   x-rot acc   y-rot acc   z-rot acc
    22626  1.58236E-03 3.50428E-03-2.58764E-04 2.32621E-03 4.71775E-03-7.96623E-04 2.02850E-03 3.08039E-03-1.02647E-03



 n o d a l   p r i n t   o u t   f o r   t i m e  s t e p   13002                              ( at time 6.4998495E+00 )

 nodal point  x-disp     y-disp      z-disp      x-vel       y-vel       z-vel      x-accl      y-accl      z-accl      x-coor      y-coor      z-coor
    22626  5.09908E-02 1.34855E-02-1.99977E+01 9.68310E-02 9.09415E-02-2.54843E+00 9.46284E-02 6.78091E-02 4.80574E-01 4.80152E+01-2.20163E+01-1.26592E+01



 n o d a l   p r i n t   o u t   f o r   t i m e  s t e p   13002                              ( at time 6.4998495E+00 )

 nodal point  x-rot      y-rot       z-rot       x-rot vel   y-rot vel   z-rot vel   x-rot acc   y-rot acc   z-rot acc
    22626  1.82399E-03 3.99057E-03-3.42778E-04 2.49324E-03 5.01592E-03-8.87925E-04 1.67040E-03 2.98198E-03-9.13116E-04



 n o d a l   p r i n t   o u t   f o r   t i m e  s t e p   13202                              ( at time 6.5998395E+00 )

 nodal point  x-disp     y-disp      z-disp      x-vel       y-vel       z-vel      x-accl      y-accl      z-accl      x-coor      y-coor      z-coor
    22626  6.11008E-02 2.30317E-02-2.02500E+01 1.05309E-01 9.94573E-02-2.49864E+00 8.47894E-02 8.51663E-02 4.97973E-01 4.80253E+01-2.20068E+01-1.29115E+01



 n o d a l   p r i n t   o u t   f o r   t i m e  s t e p   13202                              ( at time 6.5998395E+00 )

 nodal point  x-rot      y-rot       z-rot       x-rot vel   y-rot vel   z-rot vel   x-rot acc   y-rot acc   z-rot acc
    22626  2.08475E-03 4.50653E-03-4.37933E-04 2.70517E-03 5.29565E-03-1.00674E-03 2.11959E-03 2.79758E-03-1.18824E-03



 n o d a l   p r i n t   o u t   f o r   t i m e  s t e p   13402                              ( at time 6.6998295E+00 )

 nodal point  x-disp     y-disp      z-disp      x-vel       y-vel       z-vel      x-accl      y-accl      z-accl      x-coor      y-coor      z-coor
    22626  7.20284E-02 3.34118E-02-2.04973E+01 1.13729E-01 1.07152E-01-2.44732E+00 8.42043E-02 7.69498E-02 5.13243E-01 4.80362E+01-2.19964E+01-1.31588E+01



 n o d a l   p r i n t   o u t   f o r   t i m e  s t e p   13402                              ( at time 6.6998295E+00 )

 nodal point  x-rot      y-rot       z-rot       x-rot vel   y-rot vel   z-rot vel   x-rot acc   y-rot acc   z-rot acc
    22626  2.36651E-03 5.05159E-03-5.44260E-04 2.90859E-03 5.61149E-03-1.11858E-03 2.03434E-03 3.15878E-03-1.11849E-03



 n o d a l   p r i n t   o u t   f o r   t i m e  s t e p   13602                              ( at time 6.7998195E+00 )

 nodal point  x-disp     y-disp      z-disp      x-vel       y-vel       z-vel      x-accl      y-accl      z-accl      x-coor      y-coor      z-coor
    22626  8.38407E-02 4.44861E-02-2.07394E+01 1.22656E-01 1.14919E-01-2.39411E+00 8.92846E-02 7.76815E-02 5.32137E-01 4.80480E+01-2.19853E+01-1.34009E+01



 n o d a l   p r i n t   o u t   f o r   t i m e  s t e p   13602                              ( at time 6.7998195E+00 )

 nodal point  x-rot      y-rot       z-rot       x-rot vel   y-rot vel   z-rot vel   x-rot acc   y-rot acc   z-rot acc
    22626  2.66837E-03 5.62774E-03-6.62101E-04 3.13485E-03 5.92147E-03-1.24636E-03 2.26288E-03 3.10006E-03-1.27795E-03



 n o d a l   p r i n t   o u t   f o r   t i m e  s t e p   13802                              ( at time 6.8998095E+00 )

 nodal point  x-disp     y-disp      z-disp      x-vel       y-vel       z-vel      x-accl      y-accl      z-accl      x-coor      y-coor      z-coor
    22626  9.64882E-02 5.63878E-02-2.09760E+01 1.30571E-01 1.23047E-01-2.34066E+00 7.91560E-02 8.12909E-02 5.34524E-01 4.80607E+01-2.19734E+01-1.36375E+01



 n o d a l   p r i n t   o u t   f o r   t i m e  s t e p   13802                              ( at time 6.8998095E+00 )

 nodal point  x-rot      y-rot       z-rot       x-rot vel   y-rot vel   z-rot vel   x-rot acc   y-rot acc   z-rot acc
    22626  2.99316E-03 6.23441E-03-7.92195E-04 3.36942E-03 6.20718E-03-1.36420E-03 2.34596E-03 2.85742E-03-1.17858E-03



 n o d a l   p r i n t   o u t   f o r   t i m e  s t e p   14002                              ( at time 6.9997995E+00 )

 nodal point  x-disp     y-disp      z-disp      x-vel       y-vel       z-vel      x-accl      y-accl      z-accl      x-coor      y-coor      z-coor
    22626  1.09935E-01 6.91326E-02-2.12073E+01 1.37588E-01 1.31809E-01-2.28528E+00 7.01783E-02 8.76249E-02 5.53838E-01 4.80741E+01-2.19607E+01-1.38688E+01



 n o d a l   p r i n t   o u t   f o r   t i m e  s t e p   14002                              ( at time 6.9997995E+00 )

 nodal point  x-rot      y-rot       z-rot       x-rot vel   y-rot vel   z-rot vel   x-rot acc   y-rot acc   z-rot acc
    22626  3.34047E-03 6.87131E-03-9.33657E-04 3.59595E-03 6.52508E-03-1.47262E-03 2.26548E-03 3.17929E-03-1.08429E-03



 n o d a l   p r i n t   o u t   f o r   t i m e  s t e p   14202                              ( at time 7.0997895E+00 )

 nodal point  x-disp     y-disp      z-disp      x-vel       y-vel       z-vel      x-accl      y-accl      z-accl      x-coor      y-coor      z-coor
    22626  1.24101E-01 8.26489E-02-2.14330E+01 1.44714E-01 1.39567E-01-2.22841E+00 7.12651E-02 7.75944E-02 5.68807E-01 4.80883E+01-2.19471E+01-1.40945E+01



 n o d a l   p r i n t   o u t   f o r   t i m e  s t e p   14202                              ( at time 7.0997895E+00 )

 nodal point  x-rot      y-rot       z-rot       x-rot vel   y-rot vel   z-rot vel   x-rot acc   y-rot acc   z-rot acc
    22626  3.71016E-03 7.53896E-03-1.08526E-03 3.83047E-03 6.81707E-03-1.57772E-03 2.34543E-03 2.92017E-03-1.05112E-03



 n o d a l   p r i n t   o u t   f o r   t i m e  s t e p   14402                              ( at time 7.1997794E+00 )

 nodal point  x-disp     y-disp      z-disp      x-vel       y-vel       z-vel      x-accl      y-accl      z-accl      x-coor      y-coor      z-coor
    22626  1.39005E-01 9.68523E-02-2.16530E+01 1.52325E-01 1.46281E-01-2.17011E+00 7.61125E-02 6.71456E-02 5.83028E-01 4.81032E+01-2.19329E+01-1.43145E+01



 n o d a l   p r i n t   o u t   f o r   t i m e  s t e p   14402                              ( at time 7.1997794E+00 )

 nodal point  x-rot      y-rot       z-rot       x-rot vel   y-rot vel   z-rot vel   x-rot acc   y-rot acc   z-rot acc
    22626  4.10556E-03 8.23772E-03-1.24860E-03 4.09322E-03 7.14962E-03-1.69146E-03 2.62778E-03 3.32587E-03-1.13748E-03



 n o d a l   p r i n t   o u t   f o r   t i m e  s t e p   14602                              ( at time 7.2997694E+00 )

 nodal point  x-disp     y-disp      z-disp      x-vel       y-vel       z-vel      x-accl      y-accl      z-accl      x-coor      y-coor      z-coor
    22626  1.54605E-01 1.11783E-01-2.18670E+01 1.59024E-01 1.52326E-01-2.11195E+00 6.69970E-02 6.04497E-02 5.81669E-01 4.81188E+01-2.19180E+01-1.45285E+01



 n o d a l   p r i n t   o u t   f o r   t i m e  s t e p   14602                              ( at time 7.2997694E+00 )

 nodal point  x-rot      y-rot       z-rot       x-rot vel   y-rot vel   z-rot vel   x-rot acc   y-rot acc   z-rot acc
    22626  4.52595E-03 8.96970E-03-1.42234E-03 4.34179E-03 7.46736E-03-1.77154E-03 2.48598E-03 3.17768E-03-8.00914E-04



 n o d a l   p r i n t   o u t   f o r   t i m e  s t e p   14802                              ( at time 7.3997594E+00 )

 nodal point  x-disp     y-disp      z-disp      x-vel       y-vel       z-vel      x-accl      y-accl      z-accl      x-coor      y-coor      z-coor
    22626  1.70782E-01 1.27226E-01-2.20752E+01 1.64978E-01 1.57314E-01-2.05087E+00 5.95463E-02 4.98862E-02 6.10852E-01 4.81350E+01-2.19026E+01-1.47367E+01



 n o d a l   p r i n t   o u t   f o r   t i m e  s t e p   14802                              ( at time 7.3997594E+00 )

 nodal point  x-rot      y-rot       z-rot       x-rot vel   y-rot vel   z-rot vel   x-rot acc   y-rot acc   z-rot acc
    22626  4.97123E-03 9.73320E-03-1.60463E-03 4.58159E-03 7.78974E-03-1.87294E-03 2.39824E-03 3.22419E-03-1.01405E-03



 n o d a l   p r i n t   o u t   f o r   t i m e  s t e p   15002                              ( at time 7.4997494E+00 )

 nodal point  x-disp     y-disp      z-disp      x-vel       y-vel       z-vel      x-accl      y-accl      z-accl      x-coor      y-coor      z-coor
    22626  1.87568E-01 1.43210E-01-2.22771E+01 1.70195E-01 1.62465E-01-1.98645E+00 5.21774E-02 5.15141E-02 6.44298E-01 4.81517E+01-2.18866E+01-1.49386E+01



 n o d a l   p r i n t   o u t   f o r   t i m e  s t e p   15002                              ( at time 7.4997494E+00 )

 nodal point  x-rot      y-rot       z-rot       x-rot vel   y-rot vel   z-rot vel   x-rot acc   y-rot acc   z-rot acc
    22626  5.44289E-03 1.05296E-02-1.79665E-03 4.86884E-03 8.11445E-03-1.97991E-03 2.87272E-03 3.24735E-03-1.06981E-03



 n o d a l   p r i n t   o u t   f o r   t i m e  s t e p   15202                              ( at time 7.5997394E+00 )

 nodal point  x-disp     y-disp      z-disp      x-vel       y-vel       z-vel      x-accl      y-accl      z-accl      x-coor      y-coor      z-coor
    22626  2.04873E-01 1.59513E-01-2.24725E+01 1.76199E-01 1.63996E-01-1.92195E+00 6.00434E-02 1.53190E-02 6.44995E-01 4.81691E+01-2.18703E+01-1.51340E+01



 n o d a l   p r i n t   o u t   f o r   t i m e  s t e p   15202                              ( at time 7.5997394E+00 )

 nodal point  x-rot      y-rot       z-rot       x-rot vel   y-rot vel   z-rot vel   x-rot acc   y-rot acc   z-rot acc
    22626  5.94304E-03 1.13554E-02-1.99684E-03 5.10868E-03 8.39387E-03-2.05148E-03 2.39871E-03 2.79452E-03-7.15824E-04



 n o d a l   p r i n t   o u t   f o r   t i m e  s t e p   15402                              ( at time 7.6997294E+00 )

 nodal point  x-disp     y-disp      z-disp      x-vel       y-vel       z-vel      x-accl      y-accl      z-accl      x-coor      y-coor      z-coor
    22626  2.22745E-01 1.76026E-01-2.26613E+01 1.81979E-01 1.66549E-01-1.85448E+00 5.78115E-02 2.55308E-02 6.74786E-01 4.81869E+01-2.18538E+01-1.53228E+01



 n o d a l   p r i n t   o u t   f o r   t i m e  s t e p   15402                              ( at time 7.6997294E+00 )

 nodal point  x-rot      y-rot       z-rot       x-rot vel   y-rot vel   z-rot vel   x-rot acc   y-rot acc   z-rot acc
    22626  6.46653E-03 1.22107E-02-2.20551E-03 5.39512E-03 8.70065E-03-2.12763E-03 2.86469E-03 3.06812E-03-7.61524E-04



 n o d a l   p r i n t   o u t   f o r   t i m e  s t e p   15602                              ( at time 7.7997194E+00 )

 nodal point  x-disp     y-disp      z-disp      x-vel       y-vel       z-vel      x-accl      y-accl      z-accl      x-coor      y-coor      z-coor
    22626  2.41118E-01 1.92657E-01-2.28434E+01 1.86661E-01 1.67822E-01-1.78651E+00 4.68261E-02 1.27245E-02 6.79842E-01 4.82053E+01-2.18371E+01-1.55049E+01



 n o d a l   p r i n t   o u t   f o r   t i m e  s t e p   15602                              ( at time 7.7997194E+00 )

 nodal point  x-rot      y-rot       z-rot       x-rot vel   y-rot vel   z-rot vel   x-rot acc   y-rot acc   z-rot acc
    22626  7.02120E-03 1.30930E-02-2.41969E-03 5.70066E-03 8.93750E-03-2.19271E-03 3.05569E-03 2.36875E-03-6.50895E-04



 n o d a l   p r i n t   o u t   f o r   t i m e  s t e p   15802                              ( at time 7.8997094E+00 )

 nodal point  x-disp     y-disp      z-disp      x-vel       y-vel       z-vel      x-accl      y-accl      z-accl      x-coor      y-coor      z-coor
    22626  2.60007E-01 2.09407E-01-2.30185E+01 1.90448E-01 1.68314E-01-1.71659E+00 3.78701E-02 4.92086E-03 6.99249E-01 4.82242E+01-2.18204E+01-1.56800E+01



 n o d a l   p r i n t   o u t   f o r   t i m e  s t e p   15802                              ( at time 7.8997094E+00 )

 nodal point  x-rot      y-rot       z-rot       x-rot vel   y-rot vel   z-rot vel   x-rot acc   y-rot acc   z-rot acc
    22626  7.60514E-03 1.40014E-02-2.64204E-03 5.99714E-03 9.21998E-03-2.28923E-03 2.96505E-03 2.82504E-03-9.65271E-04



 n o d a l   p r i n t   o u t   f o r   t i m e  s t e p   16002                              ( at time 7.9996994E+00 )

 nodal point  x-disp     y-disp      z-disp      x-vel       y-vel       z-vel      x-accl      y-accl      z-accl      x-coor      y-coor      z-coor
    22626  2.79355E-01 2.26000E-01-2.31868E+01 1.95585E-01 1.65088E-01-1.64877E+00 5.13783E-02-3.22588E-02 6.78247E-01 4.82435E+01-2.18038E+01-1.58483E+01



 n o d a l   p r i n t   o u t   f o r   t i m e  s t e p   16002                              ( at time 7.9996994E+00 )

 nodal point  x-rot      y-rot       z-rot       x-rot vel   y-rot vel   z-rot vel   x-rot acc   y-rot acc   z-rot acc
    22626  8.21865E-03 1.49347E-02-2.87035E-03 6.27784E-03 9.42694E-03-2.31330E-03 2.80730E-03 2.06979E-03-2.40772E-04



 n o d a l   p r i n t   o u t   f o r   t i m e  s t e p   16202                              ( at time 8.0996894E+00 )

 nodal point  x-disp     y-disp      z-disp      x-vel       y-vel       z-vel      x-accl      y-accl      z-accl      x-coor      y-coor      z-coor
    22626  2.99117E-01 2.42370E-01-2.33480E+01 1.99576E-01 1.62693E-01-1.57660E+00 3.99159E-02-2.39568E-02 7.21727E-01 4.82633E+01-2.17874E+01-1.60095E+01



 n o d a l   p r i n t   o u t   f o r   t i m e  s t e p   16202                              ( at time 8.0996894E+00 )

 nodal point  x-rot      y-rot       z-rot       x-rot vel   y-rot vel   z-rot vel   x-rot acc   y-rot acc   z-rot acc
    22626  8.86486E-03 1.58899E-02-3.10382E-03 6.64792E-03 9.65163E-03-2.37873E-03 3.70116E-03 2.24711E-03-6.54374E-04



 n o d a l   p r i n t   o u t   f o r   t i m e  s t e p   16402                              ( at time 8.1996794E+00 )

 nodal point  x-disp     y-disp      z-disp      x-vel       y-vel       z-vel      x-accl      y-accl      z-accl      x-coor      y-coor      z-coor
    22626  3.19305E-01 2.58397E-01-2.35020E+01 2.05124E-01 1.57393E-01-1.50551E+00 5.54780E-02-5.30007E-02 7.11033E-01 4.82835E+01-2.17714E+01-1.61635E+01



 n o d a l   p r i n t   o u t   f o r   t i m e  s t e p   16402                              ( at time 8.1996794E+00 )

 nodal point  x-rot      y-rot       z-rot       x-rot vel   y-rot vel   z-rot vel   x-rot acc   y-rot acc   z-rot acc
    22626  9.54503E-03 1.68658E-02-3.34478E-03 6.95867E-03 9.83333E-03-2.44446E-03 3.10782E-03 1.81726E-03-6.57347E-04



 n o d a l   p r i n t   o u t   f o r   t i m e  s t e p   16602                              ( at time 8.2996694E+00 )

 nodal point  x-disp     y-disp      z-disp      x-vel       y-vel       z-vel      x-accl      y-accl      z-accl      x-coor      y-coor      z-coor
    22626  3.39972E-01 2.73795E-01-2.36490E+01 2.08525E-01 1.51363E-01-1.43424E+00 3.40147E-02-6.03060E-02 7.12749E-01 4.83042E+01-2.17560E+01-1.63105E+01



 n o d a l   p r i n t   o u t   f o r   t i m e  s t e p   16602                              ( at time 8.2996694E+00 )

 nodal point  x-rot      y-rot       z-rot       x-rot vel   y-rot vel   z-rot vel   x-rot acc   y-rot acc   z-rot acc
    22626  1.02579E-02 1.78571E-02-3.59064E-03 7.32853E-03 1.00084E-02-2.49139E-03 3.69899E-03 1.75040E-03-4.69315E-04



 n o d a l   p r i n t   o u t   f o r   t i m e  s t e p   16802                              ( at time 8.3996594E+00 )

 nodal point  x-disp     y-disp      z-disp      x-vel       y-vel       z-vel      x-accl      y-accl      z-accl      x-coor      y-coor      z-coor
    22626  3.61073E-01 2.88687E-01-2.37886E+01 2.14025E-01 1.46167E-01-1.35975E+00 5.50090E-02-5.19632E-02 7.44977E-01 4.83253E+01-2.17411E+01-1.64501E+01



 n o d a l   p r i n t   o u t   f o r   t i m e  s t e p   16802                              ( at time 8.3996594E+00 )

 nodal point  x-rot      y-rot       z-rot       x-rot vel   y-rot vel   z-rot vel   x-rot acc   y-rot acc   z-rot acc
    22626  1.10090E-02 1.88637E-02-3.84353E-03 7.71994E-03 1.01097E-02-2.56651E-03 3.91447E-03 1.01388E-03-7.51288E-04



 n o d a l   p r i n t   o u t   f o r   t i m e  s t e p   17002                              ( at time 8.4996494E+00 )

 nodal point  x-disp     y-disp      z-disp      x-vel       y-vel       z-vel      x-accl      y-accl      z-accl      x-coor      y-coor      z-coor
    22626  3.82837E-01 3.02945E-01-2.39209E+01 2.20235E-01 1.39060E-01-1.28542E+00 6.21076E-02-7.10766E-02 7.43425E-01 4.83470E+01-2.17268E+01-1.65824E+01



 n o d a l   p r i n t   o u t   f o r   t i m e  s t e p   17002                              ( at time 8.4996494E+00 )

 nodal point  x-rot      y-rot       z-rot       x-rot vel   y-rot vel   z-rot vel   x-rot acc   y-rot acc   z-rot acc
    22626  1.18007E-02 1.98806E-02-4.10248E-03 8.09712E-03 1.02562E-02-2.61935E-03 3.77221E-03 1.46515E-03-5.28414E-04



 n o d a l   p r i n t   o u t   f o r   t i m e  s t e p   17202                              ( at time 8.5996394E+00 )

 nodal point  x-disp     y-disp      z-disp      x-vel       y-vel       z-vel      x-accl      y-accl      z-accl      x-coor      y-coor      z-coor
    22626  4.05136E-01 3.16558E-01-2.40459E+01 2.26055E-01 1.32313E-01-1.21580E+00 5.82043E-02-6.74766E-02 6.96263E-01 4.83693E+01-2.17132E+01-1.67074E+01



 n o d a l   p r i n t   o u t   f o r   t i m e  s t e p   17202                              ( at time 8.5996394E+00 )

 nodal point  x-rot      y-rot       z-rot       x-rot vel   y-rot vel   z-rot vel   x-rot acc   y-rot acc   z-rot acc
    22626  1.26281E-02 2.09103E-02-4.36631E-03 8.45708E-03 1.03385E-02-2.65173E-03 3.59990E-03 8.22460E-04-3.23837E-04



 n o d a l   p r i n t   o u t   f o r   t i m e  s t e p   17402                              ( at time 8.6996293E+00 )

 nodal point  x-disp     y-disp      z-disp      x-vel       y-vel       z-vel      x-accl      y-accl      z-accl      x-coor      y-coor      z-coor
    22626  4.28007E-01 3.29735E-01-2.41638E+01 2.32113E-01 1.28881E-01-1.14352E+00 6.05895E-02-3.43247E-02 7.22850E-01 4.83922E+01-2.17001E+01-1.68253E+01



 n o d a l   p r i n t   o u t   f o r   t i m e  s t e p   17402                              ( at time 8.6996293E+00 )

 nodal point  x-rot      y-rot       z-rot       x-rot vel   y-rot vel   z-rot vel   x-rot acc   y-rot acc   z-rot acc
    22626  1.34964E-02 2.19487E-02-4.63450E-03 8.86111E-03 1.04239E-02-2.68835E-03 4.04073E-03 8.54213E-04-3.66264E-04



 n o d a l   p r i n t   o u t   f o r   t i m e  s t e p   17602                              ( at time 8.7996193E+00 )

 nodal point  x-disp     y-disp      z-disp      x-vel       y-vel       z-vel      x-accl      y-accl      z-accl      x-coor      y-coor      z-coor
    22626  4.51589E-01 3.42515E-01-2.42744E+01 2.38760E-01 1.23959E-01-1.07141E+00 6.64704E-02-4.92281E-02 7.21183E-01 4.84158E+01-2.16873E+01-1.69359E+01



 n o d a l   p r i n t   o u t   f o r   t i m e  s t e p   17602                              ( at time 8.7996193E+00 )

 nodal point  x-rot      y-rot       z-rot       x-rot vel   y-rot vel   z-rot vel   x-rot acc   y-rot acc   z-rot acc
    22626  1.44013E-02 2.29962E-02-4.90749E-03 9.23225E-03 1.05352E-02-2.75258E-03 3.71180E-03 1.11331E-03-6.42389E-04



 n o d a l   p r i n t   o u t   f o r   t i m e  s t e p   17802                              ( at time 8.8996093E+00 )

 nodal point  x-disp     y-disp      z-disp      x-vel       y-vel       z-vel      x-accl      y-accl      z-accl      x-coor      y-coor      z-coor
    22626  4.75929E-01 3.54672E-01-2.43781E+01 2.47099E-01 1.20038E-01-1.00346E+00 8.34043E-02-3.92114E-02 6.79540E-01 4.84401E+01-2.16751E+01-1.70396E+01



 n o d a l   p r i n t   o u t   f o r   t i m e  s t e p   17802                              ( at time 8.8996093E+00 )

 nodal point  x-rot      y-rot       z-rot       x-rot vel   y-rot vel   z-rot vel   x-rot acc   y-rot acc   z-rot acc
    22626  1.53467E-02 2.40512E-02-5.18306E-03 9.63214E-03 1.05802E-02-2.78731E-03 3.99925E-03 4.50349E-04-3.47335E-04



 n o d a l   p r i n t   o u t   f o r   t i m e  s t e p   18002                              ( at time 8.9995993E+00 )

 nodal point  x-disp     y-disp      z-disp      x-vel       y-vel       z-vel      x-accl      y-accl      z-accl      x-coor      y-coor      z-coor
    22626  5.01002E-01 3.66583E-01-2.44749E+01 2.54750E-01 1.17278E-01-9.34108E-01 7.65171E-02-2.76055E-02 6.93580E-01 4.84652E+01-2.16632E+01-1.71364E+01



 n o d a l   p r i n t   o u t   f o r   t i m e  s t e p   18002                              ( at time 8.9995993E+00 )

 nodal point  x-rot      y-rot       z-rot       x-rot vel   y-rot vel   z-rot vel   x-rot acc   y-rot acc   z-rot acc
    22626  1.63323E-02 2.51135E-02-5.46370E-03 1.00691E-02 1.06787E-02-2.82616E-03 4.37037E-03 9.84964E-04-3.88533E-04



 n o d a l   p r i n t   o u t   f o r   t i m e  s t e p   18202                              ( at time 9.0995893E+00 )

 nodal point  x-disp     y-disp      z-disp      x-vel       y-vel       z-vel      x-accl      y-accl      z-accl      x-coor      y-coor      z-coor
    22626  5.26878E-01 3.78068E-01-2.45651E+01 2.63546E-01 1.12737E-01-8.68294E-01 8.79698E-02-4.54118E-02 6.58212E-01 4.84911E+01-2.16517E+01-1.72266E+01



 n o d a l   p r i n t   o u t   f o r   t i m e  s t e p   18202                              ( at time 9.0995893E+00 )

 nodal point  x-rot      y-rot       z-rot       x-rot vel   y-rot vel   z-rot vel   x-rot acc   y-rot acc   z-rot acc
    22626  1.73584E-02 2.61839E-02-5.74678E-03 1.04314E-02 1.07436E-02-2.83815E-03 3.62271E-03 6.48359E-04-1.19920E-04



 n o d a l   p r i n t   o u t   f o r   t i m e  s t e p   18402                              ( at time 9.1995793E+00 )

 nodal point  x-disp     y-disp      z-disp      x-vel       y-vel       z-vel      x-accl      y-accl      z-accl      x-coor      y-coor      z-coor
    22626  5.53577E-01 3.89276E-01-2.46485E+01 2.71138E-01 1.10302E-01-8.01276E-01 7.59279E-02-2.43539E-02 6.70249E-01 4.85178E+01-2.16405E+01-1.73100E+01



 n o d a l   p r i n t   o u t   f o r   t i m e  s t e p   18402                              ( at time 9.1995793E+00 )

 nodal point  x-rot      y-rot       z-rot       x-rot vel   y-rot vel   z-rot vel   x-rot acc   y-rot acc   z-rot acc
    22626  1.84233E-02 2.72584E-02-6.03278E-03 1.08954E-02 1.07683E-02-2.88454E-03 4.64116E-03 2.47692E-04-4.63873E-04



 n o d a l   p r i n t   o u t   f o r   t i m e  s t e p   18602                              ( at time 9.2995693E+00 )

 nodal point  x-disp     y-disp      z-disp      x-vel       y-vel       z-vel      x-accl      y-accl      z-accl      x-coor      y-coor      z-coor
    22626  5.81074E-01 4.00436E-01-2.47252E+01 2.79417E-01 1.09366E-01-7.33260E-01 8.27950E-02-9.36536E-03 6.80225E-01 4.85453E+01-2.16294E+01-1.73867E+01



 n o d a l   p r i n t   o u t   f o r   t i m e  s t e p   18602                              ( at time 9.2995693E+00 )

 nodal point  x-rot      y-rot       z-rot       x-rot vel   y-rot vel   z-rot vel   x-rot acc   y-rot acc   z-rot acc
    22626  1.95343E-02 2.83376E-02-6.32432E-03 1.12840E-02 1.08319E-02-2.91881E-03 3.88621E-03 6.35906E-04-3.42740E-04



 n o d a l   p r i n t   o u t   f o r   t i m e  s t e p   18802                              ( at time 9.3995593E+00 )

 nodal point  x-disp     y-disp      z-disp      x-vel       y-vel       z-vel      x-accl      y-accl      z-accl      x-coor      y-coor      z-coor
    22626  6.09333E-01 4.11241E-01-2.47952E+01 2.86956E-01 1.04462E-01-6.67638E-01 7.53959E-02-4.90451E-02 6.56288E-01 4.85735E+01-2.16185E+01-1.74567E+01



 n o d a l   p r i n t   o u t   f o r   t i m e  s t e p   18802                              ( at time 9.3995593E+00 )

 nodal point  x-rot      y-rot       z-rot       x-rot vel   y-rot vel   z-rot vel   x-rot acc   y-rot acc   z-rot acc
    22626  2.06815E-02 2.94233E-02-6.61638E-03 1.16598E-02 1.09001E-02-2.91104E-03 3.75844E-03 6.82281E-04 7.76965E-05



 n o d a l   p r i n t   o u t   f o r   t i m e  s t e p   19002                              ( at time 9.4995493E+00 )

 nodal point  x-disp     y-disp      z-disp      x-vel       y-vel       z-vel      x-accl      y-accl      z-accl      x-coor      y-coor      z-coor
    22626  6.38363E-01 4.21880E-01-2.48585E+01 2.95229E-01 1.05893E-01-6.00574E-01 8.27348E-02 1.43108E-02 6.70709E-01 4.86025E+01-2.16079E+01-1.75200E+01



 n o d a l   p r i n t   o u t   f o r   t i m e  s t e p   19002                              ( at time 9.4995493E+00 )

 nodal point  x-rot      y-rot       z-rot       x-rot vel   y-rot vel   z-rot vel   x-rot acc   y-rot acc   z-rot acc
    22626  2.18686E-02 3.05122E-02-6.91267E-03 1.20742E-02 1.08997E-02-2.97129E-03 4.14371E-03-3.91195E-06-6.02568E-04



 n o d a l   p r i n t   o u t   f o r   t i m e  s t e p   19202                              ( at time 9.5995393E+00 )

 nodal point  x-disp     y-disp      z-disp      x-vel       y-vel       z-vel      x-accl      y-accl      z-accl      x-coor      y-coor      z-coor
    22626  6.68128E-01 4.32641E-01-2.49153E+01 3.00800E-01 1.07677E-01-5.35582E-01 5.57208E-02 1.78442E-02 6.49978E-01 4.86323E+01-2.15971E+01-1.75768E+01



 n o d a l   p r i n t   o u t   f o r   t i m e  s t e p   19202                              ( at time 9.5995393E+00 )

 nodal point  x-rot      y-rot       z-rot       x-rot vel   y-rot vel   z-rot vel   x-rot acc   y-rot acc   z-rot acc
    22626  2.30991E-02 3.16043E-02-7.21350E-03 1.25084E-02 1.09403E-02-3.01118E-03 4.34256E-03 4.05293E-04-3.98913E-04



 n o d a l   p r i n t   o u t   f o r   t i m e  s t e p   19402                              ( at time 9.6995293E+00 )

 nodal point  x-disp     y-disp      z-disp      x-vel       y-vel       z-vel      x-accl      y-accl      z-accl      x-coor      y-coor      z-coor
    22626  6.98640E-01 4.43198E-01-2.49657E+01 3.07991E-01 1.07026E-01-4.69428E-01 7.19140E-02-6.51120E-03 6.61602E-01 4.86628E+01-2.15866E+01-1.76272E+01



 n o d a l   p r i n t   o u t   f o r   t i m e  s t e p   19402                              ( at time 9.6995293E+00 )

 nodal point  x-rot      y-rot       z-rot       x-rot vel   y-rot vel   z-rot vel   x-rot acc   y-rot acc   z-rot acc
    22626  2.43654E-02 3.26987E-02-7.51454E-03 1.28742E-02 1.09625E-02-3.06325E-03 3.65830E-03 2.22907E-04-5.20839E-04



 n o d a l   p r i n t   o u t   f o r   t i m e  s t e p   19602                              ( at time 9.7995193E+00 )

 nodal point  x-disp     y-disp      z-disp      x-vel       y-vel       z-vel      x-accl      y-accl      z-accl      x-coor      y-coor      z-coor
    22626  7.29762E-01 4.53801E-01-2.50098E+01 3.15059E-01 1.06346E-01-4.11593E-01 7.06917E-02-6.79711E-03 5.78411E-01 4.86939E+01-2.15760E+01-1.76713E+01



 n o d a l   p r i n t   o u t   f o r   t i m e  s t e p   19602                              ( at time 9.7995193E+00 )

 nodal point  x-rot      y-rot       z-rot       x-rot vel   y-rot vel   z-rot vel   x-rot acc   y-rot acc   z-rot acc
    22626  2.56757E-02 3.37954E-02-7.82215E-03 1.33228E-02 1.09694E-02-3.05716E-03 4.48669E-03 6.84126E-05 6.09263E-05



 n o d a l   p r i n t   o u t   f o r   t i m e  s t e p   19802                              ( at time 9.8995093E+00 )

 nodal point  x-disp     y-disp      z-disp      x-vel       y-vel       z-vel      x-accl      y-accl      z-accl      x-coor      y-coor      z-coor
    22626  7.61547E-01 4.64480E-01-2.50479E+01 3.22009E-01 1.07683E-01-3.51417E-01 6.95069E-02 1.33722E-02 6.01822E-01 4.87257E+01-2.15653E+01-1.77094E+01



 n o d a l   p r i n t   o u t   f o r   t i m e  s t e p   19802                              ( at time 9.8995093E+00 )

 nodal point  x-rot      y-rot       z-rot       x-rot vel   y-rot vel   z-rot vel   x-rot acc   y-rot acc   z-rot acc
    22626  2.70221E-02 3.48931E-02-8.13117E-03 1.36841E-02 1.09585E-02-3.10375E-03 3.61321E-03-1.08799E-04-4.65892E-04



 n o d a l   p r i n t   o u t   f o r   t i m e  s t e p   20003                              ( at time 9.9999992E+00 )

 nodal point  x-disp     y-disp      z-disp      x-vel       y-vel       z-vel      x-accl      y-accl      z-accl      x-coor      y-coor      z-coor
[...]
    22626  2.56771E-01 1.58363E-01-6.91263E-02 1.82370E-02 8.83273E-03-6.02710E-03-5.81198E-05 1.10456E-04 4.05274E-04



 n o d a l   p r i n t   o u t   f o r   t i m e  s t e p   45205                              ( at time 2.2599738E+01 )

 nodal point  x-disp     y-disp      z-disp      x-vel       y-vel       z-vel      x-accl      y-accl      z-accl      x-coor      y-coor      z-coor
    22626  4.43481E+00 1.22338E+00-1.96863E+01 2.28285E-01 1.17972E-03 5.23948E-01 1.76204E-02-1.78958E-02-7.06380E-04 5.23990E+01-2.08064E+01-1.23478E+01



 n o d a l   p r i n t   o u t   f o r   t i m e  s t e p   45205                              ( at time 2.2599738E+01 )

 nodal point  x-rot      y-rot       z-rot       x-rot vel   y-rot vel   z-rot vel   x-rot acc   y-rot acc   z-rot acc
    22626  2.58595E-01 1.59247E-01-6.97268E-02 1.82401E-02 8.83745E-03-5.98795E-03 3.12022E-05 4.72131E-05 3.91536E-04



 n o d a l   p r i n t   o u t   f o r   t i m e  s t e p   45405                              ( at time 2.2699728E+01 )

 nodal point  x-disp     y-disp      z-disp      x-vel       y-vel       z-vel      x-accl      y-accl      z-accl      x-coor      y-coor      z-coor
    22626  4.45769E+00 1.22338E+00-1.96340E+01 2.29468E-01-1.23514E-03 5.22954E-01 1.18330E-02-2.41513E-02-9.94792E-03 5.24219E+01-2.08064E+01-1.22955E+01



 n o d a l   p r i n t   o u t   f o r   t i m e  s t e p   45405                              ( at time 2.2699728E+01 )

 nodal point  x-rot      y-rot       z-rot       x-rot vel   y-rot vel   z-rot vel   x-rot acc   y-rot acc   z-rot acc
    22626  2.60419E-01 1.60131E-01-7.03231E-02 1.82536E-02 8.85152E-03-5.94458E-03 1.35504E-04 1.40636E-04 4.33751E-04



 n o d a l   p r i n t   o u t   f o r   t i m e  s t e p   45605                              ( at time 2.2799718E+01 )

 nodal point  x-disp     y-disp      z-disp      x-vel       y-vel       z-vel      x-accl      y-accl      z-accl      x-coor      y-coor      z-coor
    22626  4.48068E+00 1.22315E+00-1.95817E+01 2.30339E-01-3.11412E-03 5.22156E-01 8.70978E-03-1.87916E-02-7.97583E-03 5.24449E+01-2.08066E+01-1.22432E+01



 n o d a l   p r i n t   o u t   f o r   t i m e  s t e p   45605                              ( at time 2.2799718E+01 )

 nodal point  x-rot      y-rot       z-rot       x-rot vel   y-rot vel   z-rot vel   x-rot acc   y-rot acc   z-rot acc
    22626  2.62244E-01 1.61017E-01-7.09155E-02 1.82477E-02 8.85457E-03-5.90784E-03-5.97032E-05 3.05409E-05 3.67487E-04



 n o d a l   p r i n t   o u t   f o r   t i m e  s t e p   45805                              ( at time 2.2899708E+01 )

 nodal point  x-disp     y-disp      z-disp      x-vel       y-vel       z-vel      x-accl      y-accl      z-accl      x-coor      y-coor      z-coor
    22626  4.50379E+00 1.22275E+00-1.95296E+01 2.31717E-01-4.94951E-03 5.21201E-01 1.37800E-02-1.83559E-02-9.54853E-03 5.24680E+01-2.08070E+01-1.21911E+01



 n o d a l   p r i n t   o u t   f o r   t i m e  s t e p   45805                              ( at time 2.2899708E+01 )

 nodal point  x-rot      y-rot       z-rot       x-rot vel   y-rot vel   z-rot vel   x-rot acc   y-rot acc   z-rot acc
    22626  2.64069E-01 1.61902E-01-7.15042E-02 1.82583E-02 8.86115E-03-5.86979E-03 1.06164E-04 6.57866E-05 3.80557E-04



 n o d a l   p r i n t   o u t   f o r   t i m e  s t e p   46005                              ( at time 2.2999698E+01 )

 nodal point  x-disp     y-disp      z-disp      x-vel       y-vel       z-vel      x-accl      y-accl      z-accl      x-coor      y-coor      z-coor
    22626  4.52702E+00 1.22216E+00-1.94774E+01 2.33029E-01-6.52246E-03 5.20686E-01 1.31297E-02-1.57310E-02-5.15747E-03 5.24912E+01-2.08076E+01-1.21389E+01



 n o d a l   p r i n t   o u t   f o r   t i m e  s t e p   46005                              ( at time 2.2999698E+01 )

 nodal point  x-rot      y-rot       z-rot       x-rot vel   y-rot vel   z-rot vel   x-rot acc   y-rot acc   z-rot acc
    22626  2.65895E-01 1.62788E-01-7.20886E-02 1.82698E-02 8.86369E-03-5.81917E-03 1.15495E-04 2.53995E-05 5.06220E-04



 n o d a l   p r i n t   o u t   f o r   t i m e  s t e p   46205                              ( at time 2.3099688E+01 )

 nodal point  x-disp     y-disp      z-disp      x-vel       y-vel       z-vel      x-accl      y-accl      z-accl      x-coor      y-coor      z-coor
    22626  4.55035E+00 1.22144E+00-1.94255E+01 2.33945E-01-8.23013E-03 5.18847E-01 9.16031E-03-1.70785E-02-1.83877E-02 5.25145E+01-2.08083E+01-1.20870E+01



 n o d a l   p r i n t   o u t   f o r   t i m e  s t e p   46205                              ( at time 2.3099688E+01 )

 nodal point  x-rot      y-rot       z-rot       x-rot vel   y-rot vel   z-rot vel   x-rot acc   y-rot acc   z-rot acc
    22626  2.67722E-01 1.63675E-01-7.26691E-02 1.82776E-02 8.86177E-03-5.78356E-03 7.79231E-05-1.91222E-05 3.56135E-04



 n o d a l   p r i n t   o u t   f o r   t i m e  s t e p   46405                              ( at time 2.3199678E+01 )

 nodal point  x-disp     y-disp      z-disp      x-vel       y-vel       z-vel      x-accl      y-accl      z-accl      x-coor      y-coor      z-coor
    22626  4.57380E+00 1.22055E+00-1.93736E+01 2.35379E-01-9.47995E-03 5.18003E-01 1.43379E-02-1.24993E-02-8.44198E-03 5.25380E+01-2.08092E+01-1.20351E+01



 n o d a l   p r i n t   o u t   f o r   t i m e  s t e p   46405                              ( at time 2.3199678E+01 )

 nodal point  x-rot      y-rot       z-rot       x-rot vel   y-rot vel   z-rot vel   x-rot acc   y-rot acc   z-rot acc
    22626  2.69550E-01 1.64561E-01-7.32460E-02 1.83002E-02 8.87412E-03-5.74889E-03 2.25736E-04 1.23439E-04 3.46758E-04



 n o d a l   p r i n t   o u t   f o r   t i m e  s t e p   46605                              ( at time 2.3299668E+01 )

 nodal point  x-disp     y-disp      z-disp      x-vel       y-vel       z-vel      x-accl      y-accl      z-accl      x-coor      y-coor      z-coor
    22626  4.59739E+00 1.21955E+00-1.93220E+01 2.36549E-01-1.08941E-02 5.15470E-01 1.17011E-02-1.41428E-02-2.53306E-02 5.25616E+01-2.08102E+01-1.19835E+01



 n o d a l   p r i n t   o u t   f o r   t i m e  s t e p   46605                              ( at time 2.3299668E+01 )

 nodal point  x-rot      y-rot       z-rot       x-rot vel   y-rot vel   z-rot vel   x-rot acc   y-rot acc   z-rot acc
    22626  2.71381E-01 1.65448E-01-7.38187E-02 1.83140E-02 8.86140E-03-5.70961E-03 1.37627E-04-1.27149E-04 3.92791E-04



 n o d a l   p r i n t   o u t   f o r   t i m e  s t e p   46805                              ( at time 2.3399658E+01 )

 nodal point  x-disp     y-disp      z-disp      x-vel       y-vel       z-vel      x-accl      y-accl      z-accl      x-coor      y-coor      z-coor
    22626  4.62107E+00 1.21835E+00-1.92705E+01 2.37242E-01-1.28393E-02 5.13395E-01 6.93236E-03-1.94538E-02-2.07479E-02 5.25853E+01-2.08114E+01-1.19320E+01



 n o d a l   p r i n t   o u t   f o r   t i m e  s t e p   46805                              ( at time 2.3399658E+01 )

 nodal point  x-rot      y-rot       z-rot       x-rot vel   y-rot vel   z-rot vel   x-rot acc   y-rot acc   z-rot acc
    22626  2.73212E-01 1.66334E-01-7.43881E-02 1.83175E-02 8.86060E-03-5.67846E-03 3.49092E-05-8.04736E-06 3.11589E-04



 n o d a l   p r i n t   o u t   f o r   t i m e  s t e p   47005                              ( at time 2.3499648E+01 )

 nodal point  x-disp     y-disp      z-disp      x-vel       y-vel       z-vel      x-accl      y-accl      z-accl      x-coor      y-coor      z-coor
    22626  4.64489E+00 1.21697E+00-1.92194E+01 2.38922E-01-1.48445E-02 5.08975E-01 1.68023E-02-2.00538E-02-4.42051E-02 5.26091E+01-2.08128E+01-1.18809E+01



 n o d a l   p r i n t   o u t   f o r   t i m e  s t e p   47005                              ( at time 2.3499648E+01 )

 nodal point  x-rot      y-rot       z-rot       x-rot vel   y-rot vel   z-rot vel   x-rot acc   y-rot acc   z-rot acc
    22626  2.75044E-01 1.67219E-01-7.49540E-02 1.83063E-02 8.84761E-03-5.64098E-03-1.11191E-04-1.29941E-04 3.74826E-04



 n o d a l   p r i n t   o u t   f o r   t i m e  s t e p   47205                              ( at time 2.3599638E+01 )

 nodal point  x-disp     y-disp      z-disp      x-vel       y-vel       z-vel      x-accl      y-accl      z-accl      x-coor      y-coor      z-coor
    22626  4.66883E+00 1.21533E+00-1.91687E+01 2.40008E-01-1.77524E-02 5.04080E-01 1.08592E-02-2.90827E-02-4.89599E-02 5.26330E+01-2.08145E+01-1.18302E+01



 n o d a l   p r i n t   o u t   f o r   t i m e  s t e p   47205                              ( at time 2.3599638E+01 )

 nodal point  x-rot      y-rot       z-rot       x-rot vel   y-rot vel   z-rot vel   x-rot acc   y-rot acc   z-rot acc
    22626  2.76872E-01 1.68102E-01-7.55155E-02 1.82709E-02 8.80701E-03-5.59785E-03-3.54463E-04-4.06055E-04 4.31301E-04



 n o d a l   p r i n t   o u t   f o r   t i m e  s t e p   47405                              ( at time 2.3699628E+01 )

 nodal point  x-disp     y-disp      z-disp      x-vel       y-vel       z-vel      x-accl      y-accl      z-accl      x-coor      y-coor      z-coor
    22626  4.69292E+00 1.21337E+00-1.91186E+01 2.41770E-01-2.17218E-02 4.97079E-01 1.76161E-02-3.96972E-02-7.00127E-02 5.26571E+01-2.08164E+01-1.17801E+01



 n o d a l   p r i n t   o u t   f o r   t i m e  s t e p   47405                              ( at time 2.3699628E+01 )

 nodal point  x-rot      y-rot       z-rot       x-rot vel   y-rot vel   z-rot vel   x-rot acc   y-rot acc   z-rot acc
    22626  2.78696E-01 1.68981E-01-7.60732E-02 1.82118E-02 8.76873E-03-5.55249E-03-5.90922E-04-3.82753E-04 4.53712E-04



 n o d a l   p r i n t   o u t   f o r   t i m e  s t e p   47605                              ( at time 2.3799618E+01 )

 nodal point  x-disp     y-disp      z-disp      x-vel       y-vel       z-vel      x-accl      y-accl      z-accl      x-coor      y-coor      z-coor
    22626  4.71722E+00 1.21099E+00-1.90693E+01 2.43750E-01-2.58161E-02 4.88982E-01 1.98043E-02-4.09478E-02-8.09792E-02 5.26814E+01-2.08188E+01-1.17308E+01



 n o d a l   p r i n t   o u t   f o r   t i m e  s t e p   47605                              ( at time 2.3799618E+01 )

 nodal point  x-rot      y-rot       z-rot       x-rot vel   y-rot vel   z-rot vel   x-rot acc   y-rot acc   z-rot acc
    22626  2.80513E-01 1.69855E-01-7.66263E-02 1.81311E-02 8.71099E-03-5.51077E-03-8.07658E-04-5.77540E-04 4.17213E-04



 n o d a l   p r i n t   o u t   f o r   t i m e  s t e p   47805                              ( at time 2.3899608E+01 )

 nodal point  x-disp     y-disp      z-disp      x-vel       y-vel       z-vel      x-accl      y-accl      z-accl      x-coor      y-coor      z-coor
    22626  4.74169E+00 1.20819E+00-1.90209E+01 2.45721E-01-3.05396E-02 4.79085E-01 1.97187E-02-4.72391E-02-9.89850E-02 5.27059E+01-2.08216E+01-1.16824E+01



 n o d a l   p r i n t   o u t   f o r   t i m e  s t e p   47805                              ( at time 2.3899608E+01 )

 nodal point  x-rot      y-rot       z-rot       x-rot vel   y-rot vel   z-rot vel   x-rot acc   y-rot acc   z-rot acc
    22626  2.82323E-01 1.70723E-01-7.71754E-02 1.80491E-02 8.64285E-03-5.46005E-03-8.20086E-04-6.81446E-04 5.07254E-04



 n o d a l   p r i n t   o u t   f o r   t i m e  s t e p   48005                              ( at time 2.3999598E+01 )

 nodal point  x-disp     y-disp      z-disp      x-vel       y-vel       z-vel      x-accl      y-accl      z-accl      x-coor      y-coor      z-coor
    22626  4.76636E+00 1.20490E+00-1.89736E+01 2.48097E-01-3.54661E-02 4.67625E-01 2.37573E-02-4.92704E-02-1.14614E-01 5.27305E+01-2.08249E+01-1.16351E+01



 n o d a l   p r i n t   o u t   f o r   t i m e  s t e p   48005                              ( at time 2.3999598E+01 )

 nodal point  x-rot      y-rot       z-rot       x-rot vel   y-rot vel   z-rot vel   x-rot acc   y-rot acc   z-rot acc
    22626  2.84122E-01 1.71582E-01-7.77189E-02 1.79492E-02 8.55360E-03-5.40718E-03-9.98265E-04-8.92604E-04 5.28687E-04



 n o d a l   p r i n t   o u t   f o r   t i m e  s t e p   48205                              ( at time 2.4099588E+01 )

 nodal point  x-disp     y-disp      z-disp      x-vel       y-vel       z-vel      x-accl      y-accl      z-accl      x-coor      y-coor      z-coor
    22626  4.79126E+00 1.20109E+00-1.89274E+01 2.50093E-01-4.06293E-02 4.55703E-01 1.99591E-02-5.16370E-02-1.19222E-01 5.27554E+01-2.08287E+01-1.15889E+01



 n o d a l   p r i n t   o u t   f o r   t i m e  s t e p   48205                              ( at time 2.4099588E+01 )

 nodal point  x-rot      y-rot       z-rot       x-rot vel   y-rot vel   z-rot vel   x-rot acc   y-rot acc   z-rot acc
    22626  2.85912E-01 1.72434E-01-7.82581E-02 1.78441E-02 8.47426E-03-5.37528E-03-1.05147E-03-7.93448E-04 3.19105E-04



 n o d a l   p r i n t   o u t   f o r   t i m e  s t e p   48405                              ( at time 2.4199578E+01 )

 nodal point  x-disp     y-disp      z-disp      x-vel       y-vel       z-vel      x-accl      y-accl      z-accl      x-coor      y-coor      z-coor
    22626  4.81635E+00 1.19680E+00-1.88825E+01 2.51962E-01-4.51715E-02 4.43040E-01 1.87003E-02-4.54264E-02-1.26648E-01 5.27805E+01-2.08330E+01-1.15440E+01



 n o d a l   p r i n t   o u t   f o r   t i m e  s t e p   48405                              ( at time 2.4199578E+01 )

 nodal point  x-rot      y-rot       z-rot       x-rot vel   y-rot vel   z-rot vel   x-rot acc   y-rot acc   z-rot acc
    22626  2.87690E-01 1.73277E-01-7.87927E-02 1.77236E-02 8.38510E-03-5.31857E-03-1.20502E-03-8.91719E-04 5.67182E-04



 n o d a l   p r i n t   o u t   f o r   t i m e  s t e p   48605                              ( at time 2.4299568E+01 )

 nodal point  x-disp     y-disp      z-disp      x-vel       y-vel       z-vel      x-accl      y-accl      z-accl      x-coor      y-coor      z-coor
    22626  4.84165E+00 1.19208E+00-1.88388E+01 2.54058E-01-4.93458E-02 4.30895E-01 2.09586E-02-4.17474E-02-1.21460E-01 5.28058E+01-2.08377E+01-1.15003E+01



 n o d a l   p r i n t   o u t   f o r   t i m e  s t e p   48605                              ( at time 2.4299568E+01 )

 nodal point  x-rot      y-rot       z-rot       x-rot vel   y-rot vel   z-rot vel   x-rot acc   y-rot acc   z-rot acc
    22626  2.89456E-01 1.74110E-01-7.93220E-02 1.75982E-02 8.28974E-03-5.27267E-03-1.25418E-03-9.53706E-04 4.59016E-04



 n o d a l   p r i n t   o u t   f o r   t i m e  s t e p   48805                              ( at time 2.4399558E+01 )

 nodal point  x-disp     y-disp      z-disp      x-vel       y-vel       z-vel      x-accl      y-accl      z-accl      x-coor      y-coor      z-coor
    22626  4.86715E+00 1.18697E+00-1.87963E+01 2.55969E-01-5.27721E-02 4.18738E-01 1.91101E-02-3.42659E-02-1.21582E-01 5.28313E+01-2.08428E+01-1.14578E+01



 n o d a l   p r i n t   o u t   f o r   t i m e  s t e p   48805                              ( at time 2.4399558E+01 )

 nodal point  x-rot      y-rot       z-rot       x-rot vel   y-rot vel   z-rot vel   x-rot acc   y-rot acc   z-rot acc
    22626  2.91209E-01 1.74935E-01-7.98471E-02 1.74558E-02 8.19948E-03-5.22502E-03-1.42395E-03-9.02599E-04 4.76564E-04



 n o d a l   p r i n t   o u t   f o r   t i m e  s t e p   49006                              ( at time 2.4500048E+01 )

 nodal point  x-disp     y-disp      z-disp      x-vel       y-vel       z-vel      x-accl      y-accl      z-accl      x-coor      y-coor      z-coor
    22626  4.89298E+00 1.18153E+00-1.87548E+01 2.57972E-01-5.53713E-02 4.07836E-01 1.99324E-02-2.58657E-02-1.08489E-01 5.28572E+01-2.08483E+01-1.14163E+01



 n o d a l   p r i n t   o u t   f o r   t i m e  s t e p   49006                              ( at time 2.4500048E+01 )

 nodal point  x-rot      y-rot       z-rot       x-rot vel   y-rot vel   z-rot vel   x-rot acc   y-rot acc   z-rot acc
    22626  2.92955E-01 1.75754E-01-8.03692E-02 1.73130E-02 8.10715E-03-5.17249E-03-1.42103E-03-9.18814E-04 5.22707E-04



 n o d a l   p r i n t   o u t   f o r   t i m e  s t e p   49206                              ( at time 2.4600038E+01 )

 nodal point  x-disp     y-disp      z-disp      x-vel       y-vel       z-vel      x-accl      y-accl      z-accl      x-coor      y-coor      z-coor
    22626  4.91885E+00 1.17590E+00-1.87146E+01 2.59255E-01-5.66441E-02 3.97798E-01 1.28358E-02-1.27291E-02-1.00394E-01 5.28830E+01-2.08539E+01-1.13761E+01



 n o d a l   p r i n t   o u t   f o r   t i m e  s t e p   49206                              ( at time 2.4600038E+01 )

 nodal point  x-rot      y-rot       z-rot       x-rot vel   y-rot vel   z-rot vel   x-rot acc   y-rot acc   z-rot acc
    22626  2.94680E-01 1.76561E-01-8.08833E-02 1.71752E-02 8.02250E-03-5.12578E-03-1.37804E-03-8.46631E-04 4.67120E-04



 n o d a l   p r i n t   o u t   f o r   t i m e  s t e p   49406                              ( at time 2.4700028E+01 )

 nodal point  x-disp     y-disp      z-disp      x-vel       y-vel       z-vel      x-accl      y-accl      z-accl      x-coor      y-coor      z-coor
    22626  4.94489E+00 1.17015E+00-1.86753E+01 2.61312E-01-5.79551E-02 3.88405E-01 2.05706E-02-1.31112E-02-9.39348E-02 5.29091E+01-2.08596E+01-1.13368E+01



 n o d a l   p r i n t   o u t   f o r   t i m e  s t e p   49406                              ( at time 2.4700028E+01 )

 nodal point  x-rot      y-rot       z-rot       x-rot vel   y-rot vel   z-rot vel   x-rot acc   y-rot acc   z-rot acc
    22626  2.96391E-01 1.77359E-01-8.13925E-02 1.70426E-02 7.95082E-03-5.06387E-03-1.32648E-03-7.16890E-04 6.19235E-04



 n o d a l   p r i n t   o u t   f o r   t i m e  s t e p   49606                              ( at time 2.4800018E+01 )

 nodal point  x-disp     y-disp      z-disp      x-vel       y-vel       z-vel      x-accl      y-accl      z-accl      x-coor      y-coor      z-coor
    22626  4.97109E+00 1.16435E+00-1.86369E+01 2.62410E-01-5.81850E-02 3.80096E-01 1.09736E-02-2.29946E-03-8.30983E-02 5.29353E+01-2.08654E+01-1.12984E+01



 n o d a l   p r i n t   o u t   f o r   t i m e  s t e p   49606                              ( at time 2.4800018E+01 )

 nodal point  x-rot      y-rot       z-rot       x-rot vel   y-rot vel   z-rot vel   x-rot acc   y-rot acc   z-rot acc
    22626  2.98089E-01 1.78150E-01-8.18973E-02 1.69217E-02 7.87656E-03-5.01905E-03-1.20945E-03-7.42630E-04 4.48156E-04



 n o d a l   p r i n t   o u t   f o r   t i m e  s t e p   49806                              ( at time 2.4900008E+01 )

 nodal point  x-disp     y-disp      z-disp      x-vel       y-vel       z-vel      x-accl      y-accl      z-accl      x-coor      y-coor      z-coor
    22626  4.99736E+00 1.15861E+00-1.85993E+01 2.63127E-01-5.66278E-02 3.71809E-01 7.17600E-03 1.55737E-02-8.28802E-02 5.29615E+01-2.08712E+01-1.12608E+01



 n o d a l   p r i n t   o u t   f o r   t i m e  s t e p   49806                              ( at time 2.4900008E+01 )

 nodal point  x-rot      y-rot       z-rot       x-rot vel   y-rot vel   z-rot vel   x-rot acc   y-rot acc   z-rot acc
    22626  2.99774E-01 1.78934E-01-8.23969E-02 1.67892E-02 7.80882E-03-4.97357E-03-1.32488E-03-6.77463E-04 4.54843E-04



 n o d a l   p r i n t   o u t   f o r   t i m e  s t e p   50006                              ( at time 2.4999998E+01 )

 nodal point  x-disp     y-disp      z-disp      x-vel       y-vel       z-vel      x-accl      y-accl      z-accl      x-coor      y-coor      z-coor
    22626  5.02371E+00 1.15296E+00-1.85624E+01 2.63787E-01-5.59419E-02 3.65622E-01 6.60480E-03 6.85915E-03-6.18771E-02 5.29879E+01-2.08768E+01-1.12239E+01



 n o d a l   p r i n t   o u t   f o r   t i m e  s t e p   50006                              ( at time 2.4999998E+01 )

 nodal point  x-rot      y-rot       z-rot       x-rot vel   y-rot vel   z-rot vel   x-rot acc   y-rot acc   z-rot acc
    22626  3.01447E-01 1.79712E-01-8.28916E-02 1.66707E-02 7.74179E-03-4.92729E-03-1.18501E-03-6.70371E-04 4.62863E-04
