 LSTC 50th% Full_FE H-III Dummy (Beta Version, February 17, 2019)        
                    ls-dyna smp s R16 R16.0_619_d222963 date 03/18/2025

{BEGIN LEGEND}
 Entity #        Title
    22626                                                                                     
{END LEGEND}




 n o d a l   p r i n t   o u t   f o r   t i m e  s t e p       1                              ( at time 0.0000000E+00 )

 nodal point  x-disp     y-disp      z-disp      x-vel       y-vel       z-vel      x-accl      y-accl      z-accl      x-coor      y-coor      z-coor
    22626  0.00000E+00 0.00000E+00 0.00000E+00 0.00000E+00 0.00000E+00-3.12000E+00 0.00000E+00 0.00000E+00 0.00000E+00 4.79642E+01-2.20298E+01 7.33850E+00



 n o d a l   p r i n t   o u t   f o r   t i m e  s t e p       1                              ( at time 0.0000000E+00 )

 nodal point  x-rot      y-rot       z-rot       x-rot vel   y-rot vel   z-rot vel   x-rot acc   y-rot acc   z-rot acc
    22626  0.00000E+00 0.00000E+00 0.00000E+00 0.00000E+00 0.00000E+00 0.00000E+00 0.00000E+00 0.00000E+00 0.00000E+00



 n o d a l   p r i n t   o u t   f o r   t i m e  s t e p     201                              ( at time 9.9989993E-02 )

 nodal point  x-disp     y-disp      z-disp      x-vel       y-vel       z-vel      x-accl      y-accl      z-accl      x-coor      y-coor      z-coor
    22626  8.34359E-07-4.04316E-06-3.12016E-01 4.76843E-05-4.96339E-04-3.12074E+00 4.76891E-04-4.96389E-03-7.42748E-03 4.79642E+01-2.20298E+01 7.02648E+00



 n o d a l   p r i n t   o u t   f o r   t i m e  s t e p     201                              ( at time 9.9989993E-02 )

 nodal point  x-rot      y-rot       z-rot       x-rot vel   y-rot vel   z-rot vel   x-rot acc   y-rot acc   z-rot acc
    22626  9.60239E-09 3.04138E-08 5.27165E-08 1.30653E-06 2.72345E-06 5.21462E-06 1.30666E-05 2.72372E-05 5.21514E-05



 n o d a l   p r i n t   o u t   f o r   t i m e  s t e p     401                              ( at time 1.9997999E-01 )

 nodal point  x-disp     y-disp      z-disp      x-vel       y-vel       z-vel      x-accl      y-accl      z-accl      x-coor      y-coor      z-coor
    22626 -5.12776E-05-5.21480E-04-6.23853E-01-1.09627E-03-1.11115E-02-3.11558E+00-1.14407E-02-1.06162E-01 5.16109E-02 4.79641E+01-2.20303E+01 6.71465E+00



 n o d a l   p r i n t   o u t   f o r   t i m e  s t e p     401                              ( at time 1.9997999E-01 )

 nodal point  x-rot      y-rot       z-rot       x-rot vel   y-rot vel   z-rot vel   x-rot acc   y-rot acc   z-rot acc
    22626  4.60099E-07 1.33001E-06 2.50246E-06 2.63542E-06 1.90669E-05 3.49995E-05 1.32902E-05 1.63451E-04 2.97878E-04



 n o d a l   p r i n t   o u t   f o r   t i m e  s t e p     601                              ( at time 2.9996998E-01 )

 nodal point  x-disp     y-disp      z-disp      x-vel       y-vel       z-vel      x-accl      y-accl      z-accl      x-coor      y-coor      z-coor
    22626 -2.45222E-05-1.97553E-03-9.35239E-01 1.66282E-03-1.60324E-02-3.11416E+00 2.75936E-02-4.92140E-02 1.42589E-02 4.79642E+01-2.20318E+01 6.40326E+00



 n o d a l   p r i n t   o u t   f o r   t i m e  s t e p     601                              ( at time 2.9996998E-01 )

 nodal point  x-rot      y-rot       z-rot       x-rot vel   y-rot vel   z-rot vel   x-rot acc   y-rot acc   z-rot acc
    22626  6.74706E-07 2.41644E-06 4.83662E-06 8.34297E-06 5.49761E-06 1.49104E-05 5.70812E-05-1.35706E-04-2.00911E-04



 n o d a l   p r i n t   o u t   f o r   t i m e  s t e p     801                              ( at time 3.9995997E-01 )

 nodal point  x-disp     y-disp      z-disp      x-vel       y-vel       z-vel      x-accl      y-accl      z-accl      x-coor      y-coor      z-coor
    22626  5.94461E-05-3.57162E-03-1.24663E+00 1.85300E-04-1.73744E-02-3.11354E+00-1.47766E-02-1.34218E-02 6.14705E-03 4.79642E+01-2.20334E+01 6.09187E+00



 n o d a l   p r i n t   o u t   f o r   t i m e  s t e p     801                              ( at time 3.9995997E-01 )

 nodal point  x-rot      y-rot       z-rot       x-rot vel   y-rot vel   z-rot vel   x-rot acc   y-rot acc   z-rot acc
    22626  1.58309E-06 3.68864E-06 6.69757E-06 6.30163E-06 2.42572E-05 3.82138E-05-2.04154E-05 1.87614E-04 2.33057E-04



 n o d a l   p r i n t   o u t   f o r   t i m e  s t e p    1001                              ( at time 4.9994997E-01 )

 nodal point  x-disp     y-disp      z-disp      x-vel       y-vel       z-vel      x-accl      y-accl      z-accl      x-coor      y-coor      z-coor
    22626  7.16929E-05-5.62682E-03-1.55783E+00 8.80816E-04-2.38159E-02-3.11087E+00 6.95586E-03-6.44209E-02 2.66936E-02 4.79643E+01-2.20354E+01 5.78067E+00



 n o d a l   p r i n t   o u t   f o r   t i m e  s t e p    1001                              ( at time 4.9994997E-01 )

 nodal point  x-rot      y-rot       z-rot       x-rot vel   y-rot vel   z-rot vel   x-rot acc   y-rot acc   z-rot acc
    22626  1.50064E-06 6.66062E-06 1.18618E-05-4.88776E-06 4.39247E-05 7.20687E-05-1.11905E-04 1.96695E-04 3.38583E-04



 n o d a l   p r i n t   o u t   f o r   t i m e  s t e p    1201                              ( at time 5.9993996E-01 )

 nodal point  x-disp     y-disp      z-disp      x-vel       y-vel       z-vel      x-accl      y-accl      z-accl      x-coor      y-coor      z-coor
    22626  5.24937E-05-8.12797E-03-1.86888E+00-5.48668E-04-2.60630E-02-3.11087E+00-1.42963E-02-2.24738E-02 7.15327E-05 4.79642E+01-2.20379E+01 5.46962E+00



 n o d a l   p r i n t   o u t   f o r   t i m e  s t e p    1201                              ( at time 5.9993996E-01 )

 nodal point  x-rot      y-rot       z-rot       x-rot vel   y-rot vel   z-rot vel   x-rot acc   y-rot acc   z-rot acc
    22626  1.26873E-06 9.91275E-06 1.78064E-05-2.11132E-06 2.65859E-05 5.34250E-05 2.77672E-05-1.73405E-04-1.86456E-04



 n o d a l   p r i n t   o u t   f o r   t i m e  s t e p    1401                              ( at time 6.9992995E-01 )

 nodal point  x-disp     y-disp      z-disp      x-vel       y-vel       z-vel      x-accl      y-accl      z-accl      x-coor      y-coor      z-coor
    22626  1.93603E-05-1.10066E-02-2.17977E+00 6.93858E-04-3.21952E-02-3.10774E+00 1.24265E-02-6.13283E-02 3.12598E-02 4.79642E+01-2.20408E+01 5.15873E+00



 n o d a l   p r i n t   o u t   f o r   t i m e  s t e p    1401                              ( at time 6.9992995E-01 )

 nodal point  x-rot      y-rot       z-rot       x-rot vel   y-rot vel   z-rot vel   x-rot acc   y-rot acc   z-rot acc
    22626  1.12835E-06 1.31202E-05 2.28100E-05-2.12083E-06 3.77006E-05 5.91128E-05-9.51449E-08 1.11157E-04 5.68839E-05



 n o d a l   p r i n t   o u t   f o r   t i m e  s t e p    1601                              ( at time 7.9991994E-01 )

 nodal point  x-disp     y-disp      z-disp      x-vel       y-vel       z-vel      x-accl      y-accl      z-accl      x-coor      y-coor      z-coor
    22626  1.30659E-04-1.45512E-02-2.49040E+00 1.35181E-03-3.67453E-02-3.10605E+00 6.58020E-03-4.55051E-02 1.68531E-02 4.79643E+01-2.20443E+01 4.84811E+00



 n o d a l   p r i n t   o u t   f o r   t i m e  s t e p    1601                              ( at time 7.9991994E-01 )

 nodal point  x-rot      y-rot       z-rot       x-rot vel   y-rot vel   z-rot vel   x-rot acc   y-rot acc   z-rot acc
    22626  1.06448E-06 1.72672E-05 2.97895E-05 3.23949E-06 4.90515E-05 7.67425E-05 5.36086E-05 1.13521E-04 1.76315E-04



 n o d a l   p r i n t   o u t   f o r   t i m e  s t e p    1801                              ( at time 8.9990994E-01 )

 nodal point  x-disp     y-disp      z-disp      x-vel       y-vel       z-vel      x-accl      y-accl      z-accl      x-coor      y-coor      z-coor
    22626  2.03369E-04-1.81867E-02-2.80106E+00-5.13914E-04-3.63506E-02-3.10747E+00-1.86591E-02 3.94738E-03-1.41897E-02 4.79644E+01-2.20480E+01 4.53745E+00



 n o d a l   p r i n t   o u t   f o r   t i m e  s t e p    1801                              ( at time 8.9990994E-01 )

 nodal point  x-rot      y-rot       z-rot       x-rot vel   y-rot vel   z-rot vel   x-rot acc   y-rot acc   z-rot acc
    22626  1.12382E-06 2.14067E-05 3.68281E-05-1.41743E-06 3.83078E-05 6.89476E-05-4.65739E-05-1.07448E-04-7.79571E-05



 n o d a l   p r i n t   o u t   f o r   t i m e  s t e p    2001                              ( at time 9.9989993E-01 )

 nodal point  x-disp     y-disp      z-disp      x-vel       y-vel       z-vel      x-accl      y-accl      z-accl      x-coor      y-coor      z-coor
    22626  1.04051E-04-2.18890E-02-3.11178E+00-8.38293E-04-3.82564E-02-3.10768E+00-3.24411E-03-1.90596E-02-2.05299E-03 4.79643E+01-2.20517E+01 4.22672E+00



 n o d a l   p r i n t   o u t   f o r   t i m e  s t e p    2001                              ( at time 9.9989993E-01 )

 nodal point  x-rot      y-rot       z-rot       x-rot vel   y-rot vel   z-rot vel   x-rot acc   y-rot acc   z-rot acc
    22626  1.00933E-06 2.56546E-05 4.40902E-05-2.63208E-07 4.66193E-05 8.67816E-05 1.15434E-05 8.31226E-05 1.78358E-04



 n o d a l   p r i n t   o u t   f o r   t i m e  s t e p    2201                              ( at time 1.0998899E+00 )

 nodal point  x-disp     y-disp      z-disp      x-vel       y-vel       z-vel      x-accl      y-accl      z-accl      x-coor      y-coor      z-coor
    22626  8.31058E-05-2.58237E-02-3.42249E+00-2.58414E-04-4.01485E-02-3.10719E+00 5.79937E-03-1.89229E-02 4.90953E-03 4.79643E+01-2.20556E+01 3.91601E+00



 n o d a l   p r i n t   o u t   f o r   t i m e  s t e p    2201                              ( at time 1.0998899E+00 )

 nodal point  x-rot      y-rot       z-rot       x-rot vel   y-rot vel   z-rot vel   x-rot acc   y-rot acc   z-rot acc
    22626  1.14657E-06 3.04657E-05 5.27818E-05 6.02902E-06 4.65036E-05 7.52162E-05 6.29286E-05-1.15634E-06-1.15665E-04



 n o d a l   p r i n t   o u t   f o r   t i m e  s t e p    2401                              ( at time 1.1998799E+00 )

 nodal point  x-disp     y-disp      z-disp      x-vel       y-vel       z-vel      x-accl      y-accl      z-accl      x-coor      y-coor      z-coor
    22626  1.21625E-04-2.98273E-02-3.73324E+00 7.01902E-04-3.96459E-02-3.10859E+00 9.60412E-03 5.02577E-03-1.40323E-02 4.79643E+01-2.20596E+01 3.60526E+00



 n o d a l   p r i n t   o u t   f o r   t i m e  s t e p    2401                              ( at time 1.1998799E+00 )

 nodal point  x-rot      y-rot       z-rot       x-rot vel   y-rot vel   z-rot vel   x-rot acc   y-rot acc   z-rot acc
    22626  1.61295E-06 3.46378E-05 5.96794E-05 5.72708E-06 4.02955E-05 6.64489E-05-3.01969E-06-6.20878E-05-8.76817E-05



 n o d a l   p r i n t   o u t   f o r   t i m e  s t e p    2601                              ( at time 1.2998699E+00 )

 nodal point  x-disp     y-disp      z-disp      x-vel       y-vel       z-vel      x-accl      y-accl      z-accl      x-coor      y-coor      z-coor
    22626  1.31206E-04-3.36506E-02-4.04419E+00-4.52575E-04-3.64434E-02-3.11144E+00-1.15459E-02 3.20281E-02-2.85106E-02 4.79643E+01-2.20634E+01 3.29432E+00



 n o d a l   p r i n t   o u t   f o r   t i m e  s t e p    2601                              ( at time 1.2998699E+00 )

 nodal point  x-rot      y-rot       z-rot       x-rot vel   y-rot vel   z-rot vel   x-rot acc   y-rot acc   z-rot acc
    22626  1.99346E-06 3.87676E-05 6.65924E-05-1.67756E-06 4.59066E-05 8.07526E-05-7.40538E-05 5.61171E-05 1.43051E-04



 n o d a l   p r i n t   o u t   f o r   t i m e  s t e p    2801                              ( at time 1.3998599E+00 )

 nodal point  x-disp     y-disp      z-disp      x-vel       y-vel       z-vel      x-accl      y-accl      z-accl      x-coor      y-coor      z-coor
    22626  1.28595E-05-3.70286E-02-4.35550E+00-1.34497E-03-3.12592E-02-3.11524E+00-8.92483E-03 5.18475E-02-3.79886E-02 4.79642E+01-2.20668E+01 2.98300E+00



 n o d a l   p r i n t   o u t   f o r   t i m e  s t e p    2801                              ( at time 1.3998599E+00 )

 nodal point  x-rot      y-rot       z-rot       x-rot vel   y-rot vel   z-rot vel   x-rot acc   y-rot acc   z-rot acc
    22626  1.66205E-06 4.32129E-05 7.45189E-05-3.73109E-06 4.51571E-05 7.41903E-05-2.05374E-05-7.49640E-06-6.56296E-05



 n o d a l   p r i n t   o u t   f o r   t i m e  s t e p    3001                              ( at time 1.4998499E+00 )

 nodal point  x-disp     y-disp      z-disp      x-vel       y-vel       z-vel      x-accl      y-accl      z-accl      x-coor      y-coor      z-coor
    22626 -9.90259E-05-4.00544E-02-4.66710E+00-4.92611E-04-2.95819E-02-3.11726E+00 8.52443E-03 1.67744E-02-2.01555E-02 4.79641E+01-2.20698E+01 2.67140E+00



 n o d a l   p r i n t   o u t   f o r   t i m e  s t e p    3001                              ( at time 1.4998499E+00 )

 nodal point  x-rot      y-rot       z-rot       x-rot vel   y-rot vel   z-rot vel   x-rot acc   y-rot acc   z-rot acc
    22626  1.37615E-06 4.71883E-05 8.11746E-05-3.35988E-07 3.24254E-05 5.81618E-05 3.39544E-05-1.27329E-04-1.60301E-04



 n o d a l   p r i n t   o u t   f o r   t i m e  s t e p    3201                              ( at time 1.5998399E+00 )

 nodal point  x-disp     y-disp      z-disp      x-vel       y-vel       z-vel      x-accl      y-accl      z-accl      x-coor      y-coor      z-coor
    22626 -1.49793E-04-4.29298E-02-4.97888E+00-7.78060E-04-2.73644E-02-3.11954E+00-2.85478E-03 2.21776E-02-2.28785E-02 4.79640E+01-2.20727E+01 2.35962E+00



 n o d a l   p r i n t   o u t   f o r   t i m e  s t e p    3201                              ( at time 1.5998399E+00 )

 nodal point  x-rot      y-rot       z-rot       x-rot vel   y-rot vel   z-rot vel   x-rot acc   y-rot acc   z-rot acc
    22626  1.19384E-06 5.02718E-05 8.61266E-05-2.66815E-07 3.26299E-05 4.85233E-05 6.91801E-07 2.04519E-06-9.63946E-05



 n o d a l   p r i n t   o u t   f o r   t i m e  s t e p    3401                              ( at time 1.6998299E+00 )

 nodal point  x-disp     y-disp      z-disp      x-vel       y-vel       z-vel      x-accl      y-accl      z-accl      x-coor      y-coor      z-coor
    22626 -2.40765E-04-4.54296E-02-5.29099E+00-1.14731E-03-2.23019E-02-3.12335E+00-3.69285E-03 5.06299E-02-3.80769E-02 4.79639E+01-2.20752E+01 2.04751E+00



 n o d a l   p r i n t   o u t   f o r   t i m e  s t e p    3401                              ( at time 1.6998299E+00 )

 nodal point  x-rot      y-rot       z-rot       x-rot vel   y-rot vel   z-rot vel   x-rot acc   y-rot acc   z-rot acc
    22626  1.08301E-06 5.34078E-05 9.12358E-05-3.05958E-06 3.08854E-05 4.89802E-05-2.79304E-05-1.74471E-05 4.56932E-06



 n o d a l   p r i n t   o u t   f o r   t i m e  s t e p    3601                              ( at time 1.7998199E+00 )

 nodal point  x-disp     y-disp      z-disp      x-vel       y-vel       z-vel      x-accl      y-accl      z-accl      x-coor      y-coor      z-coor
    22626 -3.43946E-04-4.74044E-02-5.60351E+00-1.35238E-03-1.75506E-02-3.12743E+00-2.05090E-03 4.75183E-02-4.08428E-02 4.79638E+01-2.20772E+01 1.73499E+00



 n o d a l   p r i n t   o u t   f o r   t i m e  s t e p    3601                              ( at time 1.7998199E+00 )

 nodal point  x-rot      y-rot       z-rot       x-rot vel   y-rot vel   z-rot vel   x-rot acc   y-rot acc   z-rot acc
    22626  1.03233E-06 5.62678E-05 9.61030E-05 7.90783E-07 2.18651E-05 4.32345E-05 3.85075E-05-9.02117E-05-5.74627E-05



 n o d a l   p r i n t   o u t   f o r   t i m e  s t e p    3801                              ( at time 1.8998099E+00 )

 nodal point  x-disp     y-disp      z-disp      x-vel       y-vel       z-vel      x-accl      y-accl      z-accl      x-coor      y-coor      z-coor
    22626 -5.33779E-04-4.90249E-02-5.91634E+00-2.16067E-03-1.50147E-02-3.12998E+00-8.08371E-03 2.53615E-02-2.54990E-02 4.79636E+01-2.20788E+01 1.42216E+00



 n o d a l   p r i n t   o u t   f o r   t i m e  s t e p    3801                              ( at time 1.8998099E+00 )

 nodal point  x-rot      y-rot       z-rot       x-rot vel   y-rot vel   z-rot vel   x-rot acc   y-rot acc   z-rot acc
    22626  9.15637E-07 5.82275E-05 9.96180E-05 2.80910E-06 1.63177E-05 2.86100E-05 2.01852E-05-5.54799E-05-1.46260E-04



 n o d a l   p r i n t   o u t   f o r   t i m e  s t e p    4001                              ( at time 1.9997999E+00 )

 nodal point  x-disp     y-disp      z-disp      x-vel       y-vel       z-vel      x-accl      y-accl      z-accl      x-coor      y-coor      z-coor
    22626 -7.06856E-04-5.04032E-02-6.22943E+00-1.65581E-03-1.27028E-02-3.13218E+00 5.04912E-03 2.31211E-02-2.19677E-02 4.79635E+01-2.20802E+01 1.10907E+00



 n o d a l   p r i n t   o u t   f o r   t i m e  s t e p    4001                              ( at time 1.9997999E+00 )

 nodal point  x-rot      y-rot       z-rot       x-rot vel   y-rot vel   z-rot vel   x-rot acc   y-rot acc   z-rot acc
    22626  1.22001E-06 5.96495E-05 1.02028E-04 4.47246E-06 1.37482E-05 2.04312E-05 1.66353E-05-2.56977E-05-8.17963E-05



 n o d a l   p r i n t   o u t   f o r   t i m e  s t e p    4201                              ( at time 2.0997899E+00 )

 nodal point  x-disp     y-disp      z-disp      x-vel       y-vel       z-vel      x-accl      y-accl      z-accl      x-coor      y-coor      z-coor
    22626 -8.77933E-04-5.14865E-02-6.54278E+00-1.88697E-03-9.07140E-03-3.13527E+00-2.31186E-03 3.63174E-02-3.08616E-02 4.79633E+01-2.20813E+01 7.95725E-01



 n o d a l   p r i n t   o u t   f o r   t i m e  s t e p    4201                              ( at time 2.0997899E+00 )

 nodal point  x-rot      y-rot       z-rot       x-rot vel   y-rot vel   z-rot vel   x-rot acc   y-rot acc   z-rot acc
    22626  1.61160E-06 6.03143E-05 1.03160E-04-2.04173E-07 3.56734E-06 1.74537E-06-4.67710E-05-1.01819E-04-1.86877E-04



 n o d a l   p r i n t   o u t   f o r   t i m e  s t e p    4401                              ( at time 2.1997798E+00 )

 nodal point  x-disp     y-disp      z-disp      x-vel       y-vel       z-vel      x-accl      y-accl      z-accl      x-coor      y-coor      z-coor
    22626 -1.11931E-03-5.21635E-02-6.85645E+00-2.72835E-03-4.28562E-03-3.13904E+00-8.41470E-03 4.78627E-02-3.77002E-02 4.79631E+01-2.20820E+01 4.82053E-01



 n o d a l   p r i n t   o u t   f o r   t i m e  s t e p    4401                              ( at time 2.1997798E+00 )

 nodal point  x-rot      y-rot       z-rot       x-rot vel   y-rot vel   z-rot vel   x-rot acc   y-rot acc   z-rot acc
    22626  1.52953E-06 6.04118E-05 1.03216E-04-5.04435E-07-1.05914E-06-1.74980E-06-3.00292E-06-4.62695E-05-3.49552E-05



 n o d a l   p r i n t   o u t   f o r   t i m e  s t e p    4601                              ( at time 2.2997698E+00 )

 nodal point  x-disp     y-disp      z-disp      x-vel       y-vel       z-vel      x-accl      y-accl      z-accl      x-coor      y-coor      z-coor
    22626 -1.42553E-03-5.23481E-02-7.17051E+00-3.49552E-03-2.13422E-05-3.14237E+00-7.67240E-03 4.26470E-02-3.33104E-02 4.79628E+01-2.20821E+01 1.67995E-01



 n o d a l   p r i n t   o u t   f o r   t i m e  s t e p    4601                              ( at time 2.2997698E+00 )

 nodal point  x-rot      y-rot       z-rot       x-rot vel   y-rot vel   z-rot vel   x-rot acc   y-rot acc   z-rot acc
    22626  1.20637E-06 6.01889E-05 1.02933E-04-3.72596E-06-9.02159E-06-1.21246E-05-3.22184E-05-7.96323E-05-1.03758E-04



 n o d a l   p r i n t   o u t   f o r   t i m e  s t e p    4801                              ( at time 2.3997598E+00 )

 nodal point  x-disp     y-disp      z-disp      x-vel       y-vel       z-vel      x-accl      y-accl      z-accl      x-coor      y-coor      z-coor
    22626 -1.79236E-03-5.22540E-02-7.48481E+00-3.56263E-03 1.89327E-03-3.14445E+00-6.71167E-04 1.91481E-02-2.08661E-02 4.79624E+01-2.20820E+01-1.46313E-01



 n o d a l   p r i n t   o u t   f o r   t i m e  s t e p    4801                              ( at time 2.3997598E+00 )

 nodal point  x-rot      y-rot       z-rot       x-rot vel   y-rot vel   z-rot vel   x-rot acc   y-rot acc   z-rot acc
    22626  7.72145E-07 5.89789E-05 1.00494E-04-4.81478E-06-1.52683E-05-3.30764E-05-1.08894E-05-6.24740E-05-2.09540E-04



 n o d a l   p r i n t   o u t   f o r   t i m e  s t e p    5001                              ( at time 2.4997498E+00 )

 nodal point  x-disp     y-disp      z-disp      x-vel       y-vel       z-vel      x-accl      y-accl      z-accl      x-coor      y-coor      z-coor
    22626 -2.18185E-03-5.19459E-02-7.79934E+00-4.22647E-03 4.95998E-03-3.14715E+00-6.63904E-03 3.06701E-02-2.70179E-02 4.79620E+01-2.20817E+01-4.60843E-01



 n o d a l   p r i n t   o u t   f o r   t i m e  s t e p    5001                              ( at time 2.4997498E+00 )

 nodal point  x-rot      y-rot       z-rot       x-rot vel   y-rot vel   z-rot vel   x-rot acc   y-rot acc   z-rot acc
    22626  4.22699E-07 5.68215E-05 9.65849E-05-3.33586E-06-2.59208E-05-4.80272E-05 1.47906E-05-1.06535E-04-1.49523E-04



 n o d a l   p r i n t   o u t   f o r   t i m e  s t e p    5201                              ( at time 2.5997398E+00 )

 nodal point  x-disp     y-disp      z-disp      x-vel       y-vel       z-vel      x-accl      y-accl      z-accl      x-coor      y-coor      z-coor
    22626 -2.65230E-03-5.12265E-02-8.11422E+00-5.20664E-03 9.38471E-03-3.15079E+00-9.80270E-03 4.42518E-02-3.63530E-02 4.79615E+01-2.20810E+01-7.75715E-01



 n o d a l   p r i n t   o u t   f o r   t i m e  s t e p    5201                              ( at time 2.5997398E+00 )

 nodal point  x-rot      y-rot       z-rot       x-rot vel   y-rot vel   z-rot vel   x-rot acc   y-rot acc   z-rot acc
    22626  1.34095E-07 5.37999E-05 9.12520E-05-3.80563E-06-3.48971E-05-6.13708E-05-4.69812E-06-8.97720E-05-1.33449E-04



 n o d a l   p r i n t   o u t   f o r   t i m e  s t e p    5401                              ( at time 2.6997298E+00 )

 nodal point  x-disp     y-disp      z-disp      x-vel       y-vel       z-vel      x-accl      y-accl      z-accl      x-coor      y-coor      z-coor
    22626 -3.21702E-03-5.00827E-02-8.42944E+00-6.35603E-03 1.30209E-02-3.15423E+00-1.14951E-02 3.63655E-02-3.43714E-02 4.79610E+01-2.20799E+01-1.09094E+00



 n o d a l   p r i n t   o u t   f o r   t i m e  s t e p    5401                              ( at time 2.6997298E+00 )

 nodal point  x-rot      y-rot       z-rot       x-rot vel   y-rot vel   z-rot vel   x-rot acc   y-rot acc   z-rot acc
    22626 -1.15624E-07 5.01602E-05 8.48495E-05-1.40484E-06-4.05752E-05-6.61281E-05 2.40102E-05-5.67873E-05-4.75781E-05



 n o d a l   p r i n t   o u t   f o r   t i m e  s t e p    5601                              ( at time 2.7997198E+00 )

 nodal point  x-disp     y-disp      z-disp      x-vel       y-vel       z-vel      x-accl      y-accl      z-accl      x-coor      y-coor      z-coor
    22626 -3.92288E-03-4.86572E-02-8.74495E+00-7.58186E-03 1.51760E-02-3.15641E+00-1.22595E-02 2.15536E-02-2.18270E-02 4.79603E+01-2.20784E+01-1.40645E+00



 n o d a l   p r i n t   o u t   f o r   t i m e  s t e p    5601                              ( at time 2.7997198E+00 )

 nodal point  x-rot      y-rot       z-rot       x-rot vel   y-rot vel   z-rot vel   x-rot acc   y-rot acc   z-rot acc
    22626 -1.80353E-07 4.53506E-05 7.68235E-05 1.09684E-06-5.63166E-05-9.72505E-05 2.50194E-05-1.57429E-04-3.11255E-04



 n o d a l   p r i n t   o u t   f o r   t i m e  s t e p    5801                              ( at time 2.8997098E+00 )

 nodal point  x-disp     y-disp      z-disp      x-vel       y-vel       z-vel      x-accl      y-accl      z-accl      x-coor      y-coor      z-coor
    22626 -4.68590E-03-4.70839E-02-9.06065E+00-7.77021E-03 1.61863E-02-3.15811E+00-1.88366E-03 1.01034E-02-1.70534E-02 4.79595E+01-2.20769E+01-1.72215E+00



 n o d a l   p r i n t   o u t   f o r   t i m e  s t e p    5801                              ( at time 2.8997098E+00 )

 nodal point  x-rot      y-rot       z-rot       x-rot vel   y-rot vel   z-rot vel   x-rot acc   y-rot acc   z-rot acc
    22626  9.05874E-08 3.90192E-05 6.60313E-05 3.07800E-06-6.58932E-05-1.14987E-04 1.98136E-05-9.57758E-05-1.77383E-04



 n o d a l   p r i n t   o u t   f o r   t i m e  s t e p    6001                              ( at time 2.9996998E+00 )

 nodal point  x-disp     y-disp      z-disp      x-vel       y-vel       z-vel      x-accl      y-accl      z-accl      x-coor      y-coor      z-coor
    22626 -5.50275E-03-4.53508E-02-9.37653E+00-8.80557E-03 1.86518E-02-3.16046E+00-1.03547E-02 2.46579E-02-2.34389E-02 4.79587E+01-2.20751E+01-2.03803E+00



 n o d a l   p r i n t   o u t   f o r   t i m e  s t e p    6001                              ( at time 2.9996998E+00 )

 nodal point  x-rot      y-rot       z-rot       x-rot vel   y-rot vel   z-rot vel   x-rot acc   y-rot acc   z-rot acc
    22626  4.00260E-07 3.22124E-05 5.45045E-05 1.48685E-06-7.02023E-05-1.20339E-04-1.59131E-05-4.30955E-05-5.35284E-05



 n o d a l   p r i n t   o u t   f o r   t i m e  s t e p    6201                              ( at time 3.0996898E+00 )

 nodal point  x-disp     y-disp      z-disp      x-vel       y-vel       z-vel      x-accl      y-accl      z-accl      x-coor      y-coor      z-coor
    22626 -6.45972E-03-4.33616E-02-9.69266E+00-1.02615E-02 2.06781E-02-3.16245E+00-1.45612E-02 2.02653E-02-1.99600E-02 4.79577E+01-2.20732E+01-2.35416E+00



 n o d a l   p r i n t   o u t   f o r   t i m e  s t e p    6201                              ( at time 3.0996898E+00 )

 nodal point  x-rot      y-rot       z-rot       x-rot vel   y-rot vel   z-rot vel   x-rot acc   y-rot acc   z-rot acc
    22626  4.02683E-07 2.49982E-05 4.20480E-05-1.75001E-06-7.37778E-05-1.31049E-04-3.23719E-05-3.57588E-05-1.07104E-04



 n o d a l   p r i n t   o u t   f o r   t i m e  s t e p    6401                              ( at time 3.1996798E+00 )

 nodal point  x-disp     y-disp      z-disp      x-vel       y-vel       z-vel      x-accl      y-accl      z-accl      x-coor      y-coor      z-coor
    22626 -7.51898E-03-4.13227E-02-1.00089E+01-1.08535E-02 1.97933E-02-3.16305E+00-5.91998E-03-8.84898E-03-5.95628E-03 4.79567E+01-2.20711E+01-2.67042E+00



 n o d a l   p r i n t   o u t   f o r   t i m e  s t e p    6401                              ( at time 3.1996798E+00 )

 nodal point  x-rot      y-rot       z-rot       x-rot vel   y-rot vel   z-rot vel   x-rot acc   y-rot acc   z-rot acc
    22626  3.02273E-07 1.70380E-05 2.85875E-05-1.06467E-06-8.49439E-05-1.43376E-04 6.85414E-06-1.11672E-04-1.23282E-04



 n o d a l   p r i n t   o u t   f o r   t i m e  s t e p    6601                              ( at time 3.2996698E+00 )

 nodal point  x-disp     y-disp      z-disp      x-vel       y-vel       z-vel      x-accl      y-accl      z-accl      x-coor      y-coor      z-coor
    22626 -8.61747E-03-3.94393E-02-1.03252E+01-1.10788E-02 1.78713E-02-3.16274E+00-2.25346E-03-1.92226E-02 3.07591E-03 4.79556E+01-2.20692E+01-2.98667E+00



 n o d a l   p r i n t   o u t   f o r   t i m e  s t e p    6601                              ( at time 3.2996698E+00 )

 nodal point  x-rot      y-rot       z-rot       x-rot vel   y-rot vel   z-rot vel   x-rot acc   y-rot acc   z-rot acc
    22626  7.62739E-08 8.41439E-06 1.39026E-05-2.42675E-06-8.81086E-05-1.50049E-04-1.36222E-05-3.16505E-05-6.67443E-05



 n o d a l   p r i n t   o u t   f o r   t i m e  s t e p    6801                              ( at time 3.3996598E+00 )

 nodal point  x-disp     y-disp      z-disp      x-vel       y-vel       z-vel      x-accl      y-accl      z-accl      x-coor      y-coor      z-coor
    22626 -9.75436E-03-3.77417E-02-1.06414E+01-1.15804E-02 1.60983E-02-3.16267E+00-5.01596E-03-1.77317E-02 7.41555E-04 4.79544E+01-2.20675E+01-3.30291E+00



 n o d a l   p r i n t   o u t   f o r   t i m e  s t e p    6801                              ( at time 3.3996598E+00 )

 nodal point  x-rot      y-rot       z-rot       x-rot vel   y-rot vel   z-rot vel   x-rot acc   y-rot acc   z-rot acc
    22626  4.27533E-08-3.39132E-07-1.22751E-06-2.06904E-06-8.73295E-05-1.51856E-04 3.57742E-06 7.79201E-06-1.80632E-05



 n o d a l   p r i n t   o u t   f o r   t i m e  s t e p    7001                              ( at time 3.4996498E+00 )

 nodal point  x-disp     y-disp      z-disp      x-vel       y-vel       z-vel      x-accl      y-accl      z-accl      x-coor      y-coor      z-coor
    22626 -1.09463E-02-3.62015E-02-1.09577E+01-1.22692E-02 1.46785E-02-3.16295E+00-6.88902E-03-1.41990E-02-2.81124E-03 4.79532E+01-2.20660E+01-3.61917E+00



 n o d a l   p r i n t   o u t   f o r   t i m e  s t e p    7001                              ( at time 3.4996498E+00 )

 nodal point  x-rot      y-rot       z-rot       x-rot vel   y-rot vel   z-rot vel   x-rot acc   y-rot acc   z-rot acc
    22626  9.82632E-08-8.93476E-06-1.59407E-05 8.68207E-07-8.63898E-05-1.46084E-04 2.93755E-05 9.39734E-06 5.77179E-05



 n o d a l   p r i n t   o u t   f o r   t i m e  s t e p    7201                              ( at time 3.5996397E+00 )

 nodal point  x-disp     y-disp      z-disp      x-vel       y-vel       z-vel      x-accl      y-accl      z-accl      x-coor      y-coor      z-coor
    22626 -1.21897E-02-3.48430E-02-1.12739E+01-1.22668E-02 1.21573E-02-3.16265E+00 2.37884E-05-2.52147E-02 3.02345E-03 4.79520E+01-2.20646E+01-3.93542E+00



 n o d a l   p r i n t   o u t   f o r   t i m e  s t e p    7201                              ( at time 3.5996397E+00 )

 nodal point  x-rot      y-rot       z-rot       x-rot vel   y-rot vel   z-rot vel   x-rot acc   y-rot acc   z-rot acc
    22626  6.74243E-08-1.73930E-05-3.01990E-05 1.68582E-06-8.31869E-05-1.36839E-04 8.17694E-06 3.20330E-05 9.24639E-05



 n o d a l   p r i n t   o u t   f o r   t i m e  s t e p    7401                              ( at time 3.6996297E+00 )

 nodal point  x-disp     y-disp      z-disp      x-vel       y-vel       z-vel      x-accl      y-accl      z-accl      x-coor      y-coor      z-coor
    22626 -1.34039E-02-3.37965E-02-1.15901E+01-1.19768E-02 8.79552E-03-3.16166E+00 2.90083E-03-3.36212E-02 9.84289E-03 4.79508E+01-2.20636E+01-4.25160E+00



 n o d a l   p r i n t   o u t   f o r   t i m e  s t e p    7401                              ( at time 3.6996297E+00 )

 nodal point  x-rot      y-rot       z-rot       x-rot vel   y-rot vel   z-rot vel   x-rot acc   y-rot acc   z-rot acc
    22626  3.62937E-07-2.55907E-05-4.38601E-05 4.53719E-06-8.04954E-05-1.35455E-04 2.85165E-05 2.69169E-05 1.38423E-05



 n o d a l   p r i n t   o u t   f o r   t i m e  s t e p    7601                              ( at time 3.7996197E+00 )

 nodal point  x-disp     y-disp      z-disp      x-vel       y-vel       z-vel      x-accl      y-accl      z-accl      x-coor      y-coor      z-coor
    22626 -1.45759E-02-3.30475E-02-1.19062E+01-1.14970E-02 6.15349E-03-3.16097E+00 4.79769E-03-2.64230E-02 6.88622E-03 4.79496E+01-2.20628E+01-4.56770E+00



 n o d a l   p r i n t   o u t   f o r   t i m e  s t e p    7601                              ( at time 3.7996197E+00 )

 nodal point  x-rot      y-rot       z-rot       x-rot vel   y-rot vel   z-rot vel   x-rot acc   y-rot acc   z-rot acc
    22626  8.41800E-07-3.33029E-05-5.69800E-05 5.31354E-06-7.10846E-05-1.20056E-04 7.76429E-06 9.41179E-05 1.53998E-04



 n o d a l   p r i n t   o u t   f o r   t i m e  s t e p    7801                              ( at time 3.8996097E+00 )

 nodal point  x-disp     y-disp      z-disp      x-vel       y-vel       z-vel      x-accl      y-accl      z-accl      x-coor      y-coor      z-coor
    22626 -1.56945E-02-3.25365E-02-1.22223E+01-1.08508E-02 4.32525E-03-3.16090E+00 6.46317E-03-1.82843E-02 7.27248E-04 4.79485E+01-2.20623E+01-4.88376E+00



 n o d a l   p r i n t   o u t   f o r   t i m e  s t e p    7801                              ( at time 3.8996097E+00 )

 nodal point  x-rot      y-rot       z-rot       x-rot vel   y-rot vel   z-rot vel   x-rot acc   y-rot acc   z-rot acc
    22626  1.20800E-06-3.98018E-05-6.79400E-05 1.00996E-06-5.68278E-05-9.42929E-05-4.30400E-05 1.42582E-04 2.57662E-04



 n o d a l   p r i n t   o u t   f o r   t i m e  s t e p    8001                              ( at time 3.9995997E+00 )

 nodal point  x-disp     y-disp      z-disp      x-vel       y-vel       z-vel      x-accl      y-accl      z-accl      x-coor      y-coor      z-coor
    22626 -1.67513E-02-3.21481E-02-1.25383E+01-1.02508E-02 3.33987E-03-3.16123E+00 6.00017E-03-9.85479E-03-3.26666E-03 4.79474E+01-2.20619E+01-5.19984E+00



 n o d a l   p r i n t   o u t   f o r   t i m e  s t e p    8001                              ( at time 3.9995997E+00 )

 nodal point  x-rot      y-rot       z-rot       x-rot vel   y-rot vel   z-rot vel   x-rot acc   y-rot acc   z-rot acc
    22626  1.35849E-06-4.49261E-05-7.64294E-05-2.25199E-07-4.47694E-05-7.77670E-05-1.23528E-05 1.20596E-04 1.65276E-04



 n o d a l   p r i n t   o u t   f o r   t i m e  s t e p    8201                              ( at time 4.0995897E+00 )

 nodal point  x-disp     y-disp      z-disp      x-vel       y-vel       z-vel      x-accl      y-accl      z-accl      x-coor      y-coor      z-coor
    22626 -1.76931E-02-3.19354E-02-1.28544E+01-8.44641E-03 7.27890E-04-3.16075E+00 1.80459E-02-2.61223E-02 4.75692E-03 4.79465E+01-2.20617E+01-5.51591E+00



 n o d a l   p r i n t   o u t   f o r   t i m e  s t e p    8201                              ( at time 4.0995897E+00 )

 nodal point  x-rot      y-rot       z-rot       x-rot vel   y-rot vel   z-rot vel   x-rot acc   y-rot acc   z-rot acc
    22626  1.37894E-06-4.89220E-05-8.32221E-05 3.91247E-07-3.16427E-05-5.53079E-05 6.16508E-06 1.31280E-04 2.24612E-04



 n o d a l   p r i n t   o u t   f o r   t i m e  s t e p    8401                              ( at time 4.1995797E+00 )

 nodal point  x-disp     y-disp      z-disp      x-vel       y-vel       z-vel      x-accl      y-accl      z-accl      x-coor      y-coor      z-coor
    22626 -1.84581E-02-3.19847E-02-1.31704E+01-6.83298E-03-1.60931E-03-3.16018E+00 1.61359E-02-2.33743E-02 5.69640E-03 4.79457E+01-2.20618E+01-5.83192E+00



 n o d a l   p r i n t   o u t   f o r   t i m e  s t e p    8401                              ( at time 4.1995797E+00 )

 nodal point  x-rot      y-rot       z-rot       x-rot vel   y-rot vel   z-rot vel   x-rot acc   y-rot acc   z-rot acc
    22626  1.42146E-06-5.12001E-05-8.70118E-05-5.29194E-07-1.28250E-05-2.08822E-05-9.20534E-06 1.88196E-04 3.44292E-04



 n o d a l   p r i n t   o u t   f o r   t i m e  s t e p    8601                              ( at time 4.2995697E+00 )

 nodal point  x-disp     y-disp      z-disp      x-vel       y-vel       z-vel      x-accl      y-accl      z-accl      x-coor      y-coor      z-coor
    22626 -1.90799E-02-3.22623E-02-1.34864E+01-5.47071E-03-3.67209E-03-3.15994E+00 1.36241E-02-2.06299E-02 2.42735E-03 4.79451E+01-2.20621E+01-6.14789E+00



 n o d a l   p r i n t   o u t   f o r   t i m e  s t e p    8601                              ( at time 4.2995697E+00 )

 nodal point  x-rot      y-rot       z-rot       x-rot vel   y-rot vel   z-rot vel   x-rot acc   y-rot acc   z-rot acc
    22626  1.33035E-06-5.15411E-05-8.76650E-05-1.20283E-06 3.84066E-06 6.95579E-06-6.73704E-06 1.66673E-04 2.78408E-04



 n o d a l   p r i n t   o u t   f o r   t i m e  s t e p    8801                              ( at time 4.3995597E+00 )

 nodal point  x-disp     y-disp      z-disp      x-vel       y-vel       z-vel      x-accl      y-accl      z-accl      x-coor      y-coor      z-coor
    22626 -1.95401E-02-3.26630E-02-1.38024E+01-3.73353E-03-4.40020E-03-3.16060E+00 1.73736E-02-7.28180E-03-6.63348E-03 4.79446E+01-2.20625E+01-6.46388E+00



 n o d a l   p r i n t   o u t   f o r   t i m e  s t e p    8801                              ( at time 4.3995597E+00 )

 nodal point  x-rot      y-rot       z-rot       x-rot vel   y-rot vel   z-rot vel   x-rot acc   y-rot acc   z-rot acc
    22626  1.23988E-06-5.01926E-05-8.51299E-05-1.11884E-06 2.29538E-05 4.23742E-05 8.39932E-07 1.91150E-04 3.54220E-04



 n o d a l   p r i n t   o u t   f o r   t i m e  s t e p    9001                              ( at time 4.4995497E+00 )

 nodal point  x-disp     y-disp      z-disp      x-vel       y-vel       z-vel      x-accl      y-accl      z-accl      x-coor      y-coor      z-coor
    22626 -1.98292E-02-3.32020E-02-1.41184E+01-1.93768E-03-6.71694E-03-3.16015E+00 1.79602E-02-2.31696E-02 4.51847E-03 4.79444E+01-2.20630E+01-6.77989E+00



 n o d a l   p r i n t   o u t   f o r   t i m e  s t e p    9001                              ( at time 4.4995497E+00 )

 nodal point  x-rot      y-rot       z-rot       x-rot vel   y-rot vel   z-rot vel   x-rot acc   y-rot acc   z-rot acc
    22626  1.13060E-06-4.66272E-05-7.87421E-05 7.14094E-07 4.43786E-05 7.88668E-05 1.83312E-05 2.14269E-04 3.64961E-04



 n o d a l   p r i n t   o u t   f o r   t i m e  s t e p    9201                              ( at time 4.5995397E+00 )

 nodal point  x-disp     y-disp      z-disp      x-vel       y-vel       z-vel      x-accl      y-accl      z-accl      x-coor      y-coor      z-coor
    22626 -1.99274E-02-3.40307E-02-1.44343E+01 5.51110E-07-9.65075E-03-3.15957E+00 1.93843E-02-2.93411E-02 5.76793E-03 4.79443E+01-2.20638E+01-7.09584E+00



 n o d a l   p r i n t   o u t   f o r   t i m e  s t e p    9201                              ( at time 4.5995397E+00 )

 nodal point  x-rot      y-rot       z-rot       x-rot vel   y-rot vel   z-rot vel   x-rot acc   y-rot acc   z-rot acc
    22626  1.18554E-06-4.13882E-05-6.94507E-05 1.67937E-06 6.04093E-05 1.04980E-04 9.65376E-06 1.60324E-04 2.61159E-04



 n o d a l   p r i n t   o u t   f o r   t i m e  s t e p    9401                              ( at time 4.6995297E+00 )

 nodal point  x-disp     y-disp      z-disp      x-vel       y-vel       z-vel      x-accl      y-accl      z-accl      x-coor      y-coor      z-coor
    22626 -1.98134E-02-3.50724E-02-1.47503E+01 2.15866E-03-1.11620E-02-3.15943E+00 2.15833E-02-1.51138E-02 1.40681E-03 4.79444E+01-2.20649E+01-7.41176E+00



 n o d a l   p r i n t   o u t   f o r   t i m e  s t e p    9401                              ( at time 4.6995297E+00 )

 nodal point  x-rot      y-rot       z-rot       x-rot vel   y-rot vel   z-rot vel   x-rot acc   y-rot acc   z-rot acc
    22626  1.30722E-06-3.42066E-05-5.67813E-05 2.15222E-08 8.55754E-05 1.48579E-04-1.65802E-05 2.51686E-04 4.36038E-04



 n o d a l   p r i n t   o u t   f o r   t i m e  s t e p    9601                              ( at time 4.7995197E+00 )

 nodal point  x-disp     y-disp      z-disp      x-vel       y-vel       z-vel      x-accl      y-accl      z-accl      x-coor      y-coor      z-coor
    22626 -1.94983E-02-3.62572E-02-1.50662E+01 4.04757E-03-1.23700E-02-3.15977E+00 1.88910E-02-1.20818E-02-3.39304E-03 4.79447E+01-2.20660E+01-7.72768E+00



 n o d a l   p r i n t   o u t   f o r   t i m e  s t e p    9601                              ( at time 4.7995197E+00 )

 nodal point  x-rot      y-rot       z-rot       x-rot vel   y-rot vel   z-rot vel   x-rot acc   y-rot acc   z-rot acc
    22626  1.28371E-06-2.44375E-05-3.98652E-05-3.52391E-06 1.10009E-04 1.90473E-04-3.54579E-05 2.44361E-04 4.18981E-04



 n o d a l   p r i n t   o u t   f o r   t i m e  s t e p    9801                              ( at time 4.8995097E+00 )

 nodal point  x-disp     y-disp      z-disp      x-vel       y-vel       z-vel      x-accl      y-accl      z-accl      x-coor      y-coor      z-coor
    22626 -1.90023E-02-3.75394E-02-1.53821E+01 5.85056E-03-1.33758E-02-3.15995E+00 1.80317E-02-1.00583E-02-1.74302E-03 4.79452E+01-2.20673E+01-8.04365E+00



 n o d a l   p r i n t   o u t   f o r   t i m e  s t e p    9801                              ( at time 4.8995097E+00 )

 nodal point  x-rot      y-rot       z-rot       x-rot vel   y-rot vel   z-rot vel   x-rot acc   y-rot acc   z-rot acc
    22626  8.40673E-07-1.25289E-05-1.91592E-05-6.87140E-06 1.26822E-04 2.20194E-04-3.34782E-05 1.68150E-04 2.97241E-04



 n o d a l   p r i n t   o u t   f o r   t i m e  s t e p   10001                              ( at time 4.9994997E+00 )

 nodal point  x-disp     y-disp      z-disp      x-vel       y-vel       z-vel      x-accl      y-accl      z-accl      x-coor      y-coor      z-coor
    22626 -1.82992E-02-3.89707E-02-1.56981E+01 8.31662E-03-1.54496E-02-3.15952E+00 2.46630E-02-2.07400E-02 4.30864E-03 4.79459E+01-2.20688E+01-8.35960E+00



 n o d a l   p r i n t   o u t   f o r   t i m e  s t e p   10001                              ( at time 4.9994997E+00 )

 nodal point  x-rot      y-rot       z-rot       x-rot vel   y-rot vel   z-rot vel   x-rot acc   y-rot acc   z-rot acc
    22626 -1.04388E-09 1.08202E-06 4.52410E-06-1.22559E-05 1.46895E-04 2.57113E-04-5.38498E-05 2.00742E-04 3.69217E-04



 n o d a l   p r i n t   o u t   f o r   t i m e  s t e p   10202                              ( at time 5.0999896E+00 )

 nodal point  x-disp     y-disp      z-disp      x-vel       y-vel       z-vel      x-accl      y-accl      z-accl      x-coor      y-coor      z-coor
    22626 -1.73602E-02-4.05874E-02-1.60155E+01 1.02137E-02-1.62294E-02-3.15769E+00 1.88782E-02-7.76030E-03 1.81834E-02 4.79468E+01-2.20704E+01-8.67700E+00



 n o d a l   p r i n t   o u t   f o r   t i m e  s t e p   10202                              ( at time 5.0999896E+00 )

 nodal point  x-rot      y-rot       z-rot       x-rot vel   y-rot vel   z-rot vel   x-rot acc   y-rot acc   z-rot acc
    22626 -1.39084E-06 1.77881E-05 3.19948E-05-1.18378E-05 1.82797E-04 2.87915E-04 4.15993E-06 3.57278E-04 3.06523E-04



 n o d a l   p r i n t   o u t   f o r   t i m e  s t e p   10402                              ( at time 5.1999796E+00 )

 nodal point  x-disp     y-disp      z-disp      x-vel       y-vel       z-vel      x-accl      y-accl      z-accl      x-coor      y-coor      z-coor
    22626 -1.62528E-02-4.22183E-02-1.63311E+01 1.17352E-02-1.58200E-02-3.15366E+00 1.52165E-02 4.09481E-03 4.03085E-02 4.79479E+01-2.20720E+01-8.99259E+00



 n o d a l   p r i n t   o u t   f o r   t i m e  s t e p   10402                              ( at time 5.1999796E+00 )

 nodal point  x-rot      y-rot       z-rot       x-rot vel   y-rot vel   z-rot vel   x-rot acc   y-rot acc   z-rot acc
    22626 -2.36947E-06 3.93815E-05 6.25212E-05-9.16219E-06 2.51357E-04 3.18874E-04 2.67590E-05 6.85659E-04 3.09620E-04



 n o d a l   p r i n t   o u t   f o r   t i m e  s t e p   10602                              ( at time 5.2999696E+00 )

 nodal point  x-disp     y-disp      z-disp      x-vel       y-vel       z-vel      x-accl      y-accl      z-accl      x-coor      y-coor      z-coor
    22626 -1.49916E-02-4.37112E-02-1.66461E+01 1.32331E-02-1.40025E-02-3.14540E+00 1.49807E-02 1.81763E-02 8.26347E-02 4.79492E+01-2.20735E+01-9.30758E+00



 n o d a l   p r i n t   o u t   f o r   t i m e  s t e p   10602                              ( at time 5.2999696E+00 )

 nodal point  x-rot      y-rot       z-rot       x-rot vel   y-rot vel   z-rot vel   x-rot acc   y-rot acc   z-rot acc
    22626 -1.70324E-06 6.89095E-05 9.45052E-05 2.80385E-05 3.58227E-04 3.24220E-04 3.72044E-04 1.06881E-03 5.34636E-05



 n o d a l   p r i n t   o u t   f o r   t i m e  s t e p   10802                              ( at time 5.3999596E+00 )

 nodal point  x-disp     y-disp      z-disp      x-vel       y-vel       z-vel      x-accl      y-accl      z-accl      x-coor      y-coor      z-coor
    22626 -1.36439E-02-4.49396E-02-1.69599E+01 1.43868E-02-1.12836E-02-3.13168E+00 1.15385E-02 2.71919E-02 1.37186E-01 4.79505E+01-2.20747E+01-9.62143E+00



 n o d a l   p r i n t   o u t   f o r   t i m e  s t e p   10802                              ( at time 5.3999596E+00 )

 nodal point  x-rot      y-rot       z-rot       x-rot vel   y-rot vel   z-rot vel   x-rot acc   y-rot acc   z-rot acc
    22626  4.98750E-06 1.12376E-04 1.25799E-04 1.00928E-04 5.14469E-04 3.07265E-04 7.28969E-04 1.56257E-03-1.69565E-04



 n o d a l   p r i n t   o u t   f o r   t i m e  s t e p   11002                              ( at time 5.4999496E+00 )

 nodal point  x-disp     y-disp      z-disp      x-vel       y-vel       z-vel      x-accl      y-accl      z-accl      x-coor      y-coor      z-coor
    22626 -1.20661E-02-4.58221E-02-1.72721E+01 1.70718E-02-7.02915E-03-3.11167E+00 2.68521E-02 4.25488E-02 2.00089E-01 4.79521E+01-2.20756E+01-9.93356E+00



 n o d a l   p r i n t   o u t   f o r   t i m e  s t e p   11002                              ( at time 5.4999496E+00 )

 nodal point  x-rot      y-rot       z-rot       x-rot vel   y-rot vel   z-rot vel   x-rot acc   y-rot acc   z-rot acc
    22626  1.97895E-05 1.72930E-04 1.54596E-04 1.99890E-04 6.99432E-04 2.71727E-04 9.89720E-04 1.84982E-03-3.55417E-04



 n o d a l   p r i n t   o u t   f o r   t i m e  s t e p   11202                              ( at time 5.5999396E+00 )

 nodal point  x-disp     y-disp      z-disp      x-vel       y-vel       z-vel      x-accl      y-accl      z-accl      x-coor      y-coor      z-coor
    22626 -1.02213E-02-4.62598E-02-1.75821E+01 1.93494E-02-1.14251E-03-3.08845E+00 2.27790E-02 5.88723E-02 2.32198E-01 4.79540E+01-2.20760E+01-1.02436E+01



 n o d a l   p r i n t   o u t   f o r   t i m e  s t e p   11202                              ( at time 5.5999396E+00 )

 nodal point  x-rot      y-rot       z-rot       x-rot vel   y-rot vel   z-rot vel   x-rot acc   y-rot acc   z-rot acc
    22626  4.47424E-05 2.53954E-04 1.80287E-04 3.09871E-04 9.26715E-04 2.36668E-04 1.09993E-03 2.27306E-03-3.50624E-04



 n o d a l   p r i n t   o u t   f o r   t i m e  s t e p   11402                              ( at time 5.6999296E+00 )

 nodal point  x-disp     y-disp      z-disp      x-vel       y-vel       z-vel      x-accl      y-accl      z-accl      x-coor      y-coor      z-coor
    22626 -8.17127E-03-4.60739E-02-1.78896E+01 2.12974E-02 5.23084E-03-3.06210E+00 1.94813E-02 6.37397E-02 2.63540E-01 4.79560E+01-2.20759E+01-1.05511E+01



 n o d a l   p r i n t   o u t   f o r   t i m e  s t e p   11402                              ( at time 5.6999296E+00 )

 nodal point  x-rot      y-rot       z-rot       x-rot vel   y-rot vel   z-rot vel   x-rot acc   y-rot acc   z-rot acc
    22626  8.18923E-05 3.59289E-04 2.01732E-04 4.33314E-04 1.18941E-03 1.84027E-04 1.23455E-03 2.62724E-03-5.26465E-04



 n o d a l   p r i n t   o u t   f o r   t i m e  s t e p   11602                              ( at time 5.7999195E+00 )

 nodal point  x-disp     y-disp      z-disp      x-vel       y-vel       z-vel      x-accl      y-accl      z-accl      x-coor      y-coor      z-coor
    22626 -5.90718E-03-4.52522E-02-1.81943E+01 2.42179E-02 1.20292E-02-3.03144E+00 2.92081E-02 6.79907E-02 3.06652E-01 4.79583E+01-2.20750E+01-1.08558E+01



 n o d a l   p r i n t   o u t   f o r   t i m e  s t e p   11602                              ( at time 5.7999195E+00 )

 nodal point  x-rot      y-rot       z-rot       x-rot vel   y-rot vel   z-rot vel   x-rot acc   y-rot acc   z-rot acc
    22626  1.31991E-04 4.92202E-04 2.17611E-04 5.83397E-04 1.46390E-03 1.14623E-04 1.50098E-03 2.74517E-03-6.94106E-04



 n o d a l   p r i n t   o u t   f o r   t i m e  s t e p   11802                              ( at time 5.8999095E+00 )

 nodal point  x-disp     y-disp      z-disp      x-vel       y-vel       z-vel      x-accl      y-accl      z-accl      x-coor      y-coor      z-coor
    22626 -3.35258E-03-4.38612E-02-1.84958E+01 2.69628E-02 1.64211E-02-2.99744E+00 2.74520E-02 4.39234E-02 3.40072E-01 4.79608E+01-2.20737E+01-1.11573E+01



 n o d a l   p r i n t   o u t   f o r   t i m e  s t e p   11802                              ( at time 5.8999095E+00 )

 nodal point  x-rot      y-rot       z-rot       x-rot vel   y-rot vel   z-rot vel   x-rot acc   y-rot acc   z-rot acc
    22626  1.97292E-04 6.53855E-04 2.26282E-04 7.23873E-04 1.78140E-03 4.88320E-05 1.40490E-03 3.17530E-03-6.57976E-04



 n o d a l   p r i n t   o u t   f o r   t i m e  s t e p   12002                              ( at time 5.9998995E+00 )

 nodal point  x-disp     y-disp      z-disp      x-vel       y-vel       z-vel      x-accl      y-accl      z-accl      x-coor      y-coor      z-coor
    22626 -5.24691E-04-4.18305E-02-1.87937E+01 2.97338E-02 2.30224E-02-2.96278E+00 2.77131E-02 6.60196E-02 3.46607E-01 4.79637E+01-2.20716E+01-1.14552E+01



 n o d a l   p r i n t   o u t   f o r   t i m e  s t e p   12002                              ( at time 5.9998995E+00 )

 nodal point  x-rot      y-rot       z-rot       x-rot vel   y-rot vel   z-rot vel   x-rot acc   y-rot acc   z-rot acc
    22626  2.78868E-04 8.47664E-04 2.26449E-04 8.93653E-04 2.09445E-03-2.88043E-05 1.69797E-03 3.13079E-03-7.76441E-04



 n o d a l   p r i n t   o u t   f o r   t i m e  s t e p   12202                              ( at time 6.0998895E+00 )

 nodal point  x-disp     y-disp      z-disp      x-vel       y-vel       z-vel      x-accl      y-accl      z-accl      x-coor      y-coor      z-coor
    22626  2.57843E-03-3.91773E-02-1.90880E+01 3.23566E-02 2.94671E-02-2.92523E+00 2.62297E-02 6.44530E-02 3.75510E-01 4.79668E+01-2.20690E+01-1.17495E+01



 n o d a l   p r i n t   o u t   f o r   t i m e  s t e p   12202                              ( at time 6.0998895E+00 )

 nodal point  x-rot      y-rot       z-rot       x-rot vel   y-rot vel   z-rot vel   x-rot acc   y-rot acc   z-rot acc
    22626  3.76426E-04 1.07418E-03 2.18679E-04 1.05097E-03 2.42719E-03-1.17342E-04 1.57335E-03 3.32772E-03-8.85466E-04



 n o d a l   p r i n t   o u t   f o r   t i m e  s t e p   12402                              ( at time 6.1998795E+00 )

 nodal point  x-disp     y-disp      z-disp      x-vel       y-vel       z-vel      x-accl      y-accl      z-accl      x-coor      y-coor      z-coor
    22626  6.06666E-03-3.58374E-02-1.93786E+01 3.68226E-02 3.77632E-02-2.88533E+00 4.46647E-02 8.29700E-02 3.99070E-01 4.79702E+01-2.20656E+01-1.20401E+01



 n o d a l   p r i n t   o u t   f o r   t i m e  s t e p   12402                              ( at time 6.1998795E+00 )

 nodal point  x-rot      y-rot       z-rot       x-rot vel   y-rot vel   z-rot vel   x-rot acc   y-rot acc   z-rot acc
    22626  4.90577E-04 1.33282E-03 2.01229E-04 1.24796E-03 2.75566E-03-2.39132E-04 1.97009E-03 3.28509E-03-1.21802E-03



 n o d a l   p r i n t   o u t   f o r   t i m e  s t e p   12602                              ( at time 6.2998695E+00 )

 nodal point  x-disp     y-disp      z-disp      x-vel       y-vel       z-vel      x-accl      y-accl      z-accl      x-coor      y-coor      z-coor
    22626  9.98151E-03-3.17575E-02-1.96650E+01 4.15683E-02 4.40629E-02-2.84328E+00 4.74620E-02 6.30024E-02 4.20491E-01 4.79742E+01-2.20615E+01-1.23265E+01



 n o d a l   p r i n t   o u t   f o r   t i m e  s t e p   12602                              ( at time 6.2998695E+00 )

 nodal point  x-rot      y-rot       z-rot       x-rot vel   y-rot vel   z-rot vel   x-rot acc   y-rot acc   z-rot acc
    22626  6.24990E-04 1.62548E-03 1.72606E-04 1.42305E-03 3.09718E-03-3.42933E-04 1.75105E-03 3.41555E-03-1.03811E-03



 n o d a l   p r i n t   o u t   f o r   t i m e  s t e p   12802                              ( at time 6.3998595E+00 )

 nodal point  x-disp     y-disp      z-disp      x-vel       y-vel       z-vel      x-accl      y-accl      z-accl      x-coor      y-coor      z-coor
    22626  1.43954E-02-2.70782E-02-1.99471E+01 4.69223E-02 5.01926E-02-2.80041E+00 5.35458E-02 6.13034E-02 4.28775E-01 4.79786E+01-2.20569E+01-1.26086E+01



 n o d a l   p r i n t   o u t   f o r   t i m e  s t e p   12802                              ( at time 6.3998595E+00 )

 nodal point  x-rot      y-rot       z-rot       x-rot vel   y-rot vel   z-rot vel   x-rot acc   y-rot acc   z-rot acc
    22626  7.75898E-04 1.95204E-03 1.33392E-04 1.60127E-03 3.43269E-03-4.53313E-04 1.78236E-03 3.35543E-03-1.10391E-03



 n o d a l   p r i n t   o u t   f o r   t i m e  s t e p   13002                              ( at time 6.4998495E+00 )

 nodal point  x-disp     y-disp      z-disp      x-vel       y-vel       z-vel      x-accl      y-accl      z-accl      x-coor      y-coor      z-coor
    22626  1.94070E-02-2.16387E-02-2.02249E+01 5.35295E-02 5.87169E-02-2.75498E+00 6.60781E-02 8.52517E-02 4.54326E-01 4.79836E+01-2.20514E+01-1.28864E+01



 n o d a l   p r i n t   o u t   f o r   t i m e  s t e p   13002                              ( at time 6.4998495E+00 )

 nodal point  x-rot      y-rot       z-rot       x-rot vel   y-rot vel   z-rot vel   x-rot acc   y-rot acc   z-rot acc
    22626  9.47182E-04 2.31260E-03 8.26805E-05 1.81863E-03 3.78425E-03-5.62273E-04 2.17381E-03 3.51597E-03-1.08971E-03



 n o d a l   p r i n t   o u t   f o r   t i m e  s t e p   13202                              ( at time 6.5998395E+00 )

 nodal point  x-disp     y-disp      z-disp      x-vel       y-vel       z-vel      x-accl      y-accl      z-accl      x-coor      y-coor      z-coor
    22626  2.51217E-02-1.53156E-02-2.04980E+01 6.08001E-02 6.63216E-02-2.70855E+00 7.27132E-02 7.60548E-02 4.64417E-01 4.79893E+01-2.20451E+01-1.31595E+01



 n o d a l   p r i n t   o u t   f o r   t i m e  s t e p   13202                              ( at time 6.5998395E+00 )

 nodal point  x-rot      y-rot       z-rot       x-rot vel   y-rot vel   z-rot vel   x-rot acc   y-rot acc   z-rot acc
    22626  1.13972E-03 2.70712E-03 1.99191E-05 2.03639E-03 4.10057E-03-6.80018E-04 2.17789E-03 3.16342E-03-1.17756E-03



 n o d a l   p r i n t   o u t   f o r   t i m e  s t e p   13402                              ( at time 6.6998295E+00 )

 nodal point  x-disp     y-disp      z-disp      x-vel       y-vel       z-vel      x-accl      y-accl      z-accl      x-coor      y-coor      z-coor
    22626  3.15506E-02-8.33062E-03-2.07665E+01 6.87570E-02 7.33825E-02-2.66057E+00 7.95766E-02 7.06156E-02 4.79856E-01 4.79957E+01-2.20381E+01-1.34280E+01



 n o d a l   p r i n t   o u t   f o r   t i m e  s t e p   13402                              ( at time 6.6998295E+00 )

 nodal point  x-rot      y-rot       z-rot       x-rot vel   y-rot vel   z-rot vel   x-rot acc   y-rot acc   z-rot acc
    22626  1.35229E-03 3.13323E-03-5.42809E-05 2.23139E-03 4.40988E-03-8.02259E-04 1.95016E-03 3.09348E-03-1.22253E-03



 n o d a l   p r i n t   o u t   f o r   t i m e  s t e p   13602                              ( at time 6.7998195E+00 )

 nodal point  x-disp     y-disp      z-disp      x-vel       y-vel       z-vel      x-accl      y-accl      z-accl      x-coor      y-coor      z-coor
    22626  3.88329E-02-5.75310E-04-2.10300E+01 7.77619E-02 8.18901E-02-2.60952E+00 9.00588E-02 8.50845E-02 5.10520E-01 4.80030E+01-2.20304E+01-1.36915E+01



 n o d a l   p r i n t   o u t   f o r   t i m e  s t e p   13602                              ( at time 6.7998195E+00 )

 nodal point  x-rot      y-rot       z-rot       x-rot vel   y-rot vel   z-rot vel   x-rot acc   y-rot acc   z-rot acc
    22626  1.58656E-03 3.59014E-03-1.41118E-04 2.46487E-03 4.73034E-03-9.41417E-04 2.33501E-03 3.20492E-03-1.39172E-03



 n o d a l   p r i n t   o u t   f o r   t i m e  s t e p   13802                              ( at time 6.8998095E+00 )

 nodal point  x-disp     y-disp      z-disp      x-vel       y-vel       z-vel      x-accl      y-accl      z-accl      x-coor      y-coor      z-coor
    22626  4.70262E-02 7.99588E-03-2.12883E+01 8.68341E-02 8.92534E-02-2.55858E+00 9.07309E-02 7.36410E-02 5.09402E-01 4.80112E+01-2.20218E+01-1.39498E+01



 n o d a l   p r i n t   o u t   f o r   t i m e  s t e p   13802                              ( at time 6.8998095E+00 )

 nodal point  x-rot      y-rot       z-rot       x-rot vel   y-rot vel   z-rot vel   x-rot acc   y-rot acc   z-rot acc
    22626  1.84517E-03 4.07857E-03-2.40797E-04 2.68328E-03 5.02845E-03-1.05810E-03 2.18433E-03 2.98136E-03-1.16696E-03



 n o d a l   p r i n t   o u t   f o r   t i m e  s t e p   14002                              ( at time 6.9997995E+00 )

 nodal point  x-disp     y-disp      z-disp      x-vel       y-vel       z-vel      x-accl      y-accl      z-accl      x-coor      y-coor      z-coor
    22626  5.61174E-02 1.73358E-02-2.15415E+01 9.54692E-02 9.72908E-02-2.50566E+00 8.63603E-02 8.03816E-02 5.29302E-01 4.80203E+01-2.20125E+01-1.42030E+01



 n o d a l   p r i n t   o u t   f o r   t i m e  s t e p   14002                              ( at time 6.9997995E+00 )

 nodal point  x-rot      y-rot       z-rot       x-rot vel   y-rot vel   z-rot vel   x-rot acc   y-rot acc   z-rot acc
    22626  2.12492E-03 4.59669E-03-3.53055E-04 2.91358E-03 5.33225E-03-1.18297E-03 2.30328E-03 3.03832E-03-1.24882E-03



 n o d a l   p r i n t   o u t   f o r   t i m e  s t e p   14202                              ( at time 7.0997895E+00 )

 nodal point  x-disp     y-disp      z-disp      x-vel       y-vel       z-vel      x-accl      y-accl      z-accl      x-coor      y-coor      z-coor
    22626  6.61223E-02 2.75182E-02-2.17894E+01 1.04918E-01 1.05404E-01-2.45278E+00 9.44938E-02 8.11411E-02 5.28880E-01 4.80303E+01-2.20023E+01-1.44509E+01



 n o d a l   p r i n t   o u t   f o r   t i m e  s t e p   14202                              ( at time 7.0997895E+00 )

 nodal point  x-rot      y-rot       z-rot       x-rot vel   y-rot vel   z-rot vel   x-rot acc   y-rot acc   z-rot acc
    22626  2.42834E-03 5.14382E-03-4.77557E-04 3.15498E-03 5.62685E-03-1.30432E-03 2.41426E-03 2.94631E-03-1.21360E-03



 n o d a l   p r i n t   o u t   f o r   t i m e  s t e p   14402                              ( at time 7.1997794E+00 )

 nodal point  x-disp     y-disp      z-disp      x-vel       y-vel       z-vel      x-accl      y-accl      z-accl      x-coor      y-coor      z-coor
    22626  7.70902E-02 3.84599E-02-2.20318E+01 1.14596E-01 1.12651E-01-2.39567E+00 9.67946E-02 7.24801E-02 5.71101E-01 4.80413E+01-2.19913E+01-1.46933E+01



 n o d a l   p r i n t   o u t   f o r   t i m e  s t e p   14402                              ( at time 7.1997794E+00 )

 nodal point  x-rot      y-rot       z-rot       x-rot vel   y-rot vel   z-rot vel   x-rot acc   y-rot acc   z-rot acc
    22626  2.75579E-03 5.72186E-03-6.14484E-04 3.38673E-03 5.92013E-03-1.42861E-03 2.31766E-03 2.93306E-03-1.24303E-03



 n o d a l   p r i n t   o u t   f o r   t i m e  s t e p   14602                              ( at time 7.2997694E+00 )

 nodal point  x-disp     y-disp      z-disp      x-vel       y-vel       z-vel      x-accl      y-accl      z-accl      x-coor      y-coor      z-coor
    22626  8.89902E-02 5.00316E-02-2.22686E+01 1.22667E-01 1.19435E-01-2.34132E+00 8.07163E-02 6.78407E-02 5.43540E-01 4.80532E+01-2.19798E+01-1.49301E+01



 n o d a l   p r i n t   o u t   f o r   t i m e  s t e p   14602                              ( at time 7.2997694E+00 )

 nodal point  x-rot      y-rot       z-rot       x-rot vel   y-rot vel   z-rot vel   x-rot acc   y-rot acc   z-rot acc
    22626  3.10559E-03 6.32837E-03-7.61983E-04 3.61477E-03 6.19945E-03-1.53244E-03 2.28068E-03 2.79353E-03-1.03839E-03



 n o d a l   p r i n t   o u t   f o r   t i m e  s t e p   14802                              ( at time 7.3997594E+00 )

 nodal point  x-disp     y-disp      z-disp      x-vel       y-vel       z-vel      x-accl      y-accl      z-accl      x-coor      y-coor      z-coor
    22626  1.01725E-01 6.23558E-02-2.24998E+01 1.31657E-01 1.26768E-01-2.28366E+00 8.99044E-02 7.33411E-02 5.76662E-01 4.80659E+01-2.19674E+01-1.51613E+01



 n o d a l   p r i n t   o u t   f o r   t i m e  s t e p   14802                              ( at time 7.3997594E+00 )

 nodal point  x-rot      y-rot       z-rot       x-rot vel   y-rot vel   z-rot vel   x-rot acc   y-rot acc   z-rot acc
    22626  3.47895E-03 6.96310E-03-9.20532E-04 3.85290E-03 6.48506E-03-1.63827E-03 2.38154E-03 2.85640E-03-1.05846E-03



 n o d a l   p r i n t   o u t   f o r   t i m e  s t e p   15002                              ( at time 7.4997494E+00 )

 nodal point  x-disp     y-disp      z-disp      x-vel       y-vel       z-vel      x-accl      y-accl      z-accl      x-coor      y-coor      z-coor
    22626  1.15323E-01 7.52620E-02-2.27252E+01 1.39957E-01 1.32011E-01-2.22452E+00 8.30085E-02 5.24300E-02 5.91521E-01 4.80795E+01-2.19545E+01-1.53867E+01



 n o d a l   p r i n t   o u t   f o r   t i m e  s t e p   15002                              ( at time 7.4997494E+00 )

 nodal point  x-rot      y-rot       z-rot       x-rot vel   y-rot vel   z-rot vel   x-rot acc   y-rot acc   z-rot acc
    22626  3.87650E-03 7.62677E-03-1.08852E-03 4.10283E-03 6.78175E-03-1.72509E-03 2.49949E-03 2.96709E-03-8.68200E-04



 n o d a l   p r i n t   o u t   f o r   t i m e  s t e p   15202                              ( at time 7.5997394E+00 )

 nodal point  x-disp     y-disp      z-disp      x-vel       y-vel       z-vel      x-accl      y-accl      z-accl      x-coor      y-coor      z-coor
    22626  1.29629E-01 8.86762E-02-2.29446E+01 1.46507E-01 1.36320E-01-2.16224E+00 6.55130E-02 4.30975E-02 6.22838E-01 4.80938E+01-2.19411E+01-1.56061E+01



 n o d a l   p r i n t   o u t   f o r   t i m e  s t e p   15202                              ( at time 7.5997394E+00 )

 nodal point  x-rot      y-rot       z-rot       x-rot vel   y-rot vel   z-rot vel   x-rot acc   y-rot acc   z-rot acc
    22626  4.29773E-03 8.31938E-03-1.26556E-03 4.33265E-03 7.06931E-03-1.82286E-03 2.29845E-03 2.87596E-03-9.77863E-04



 n o d a l   p r i n t   o u t   f o r   t i m e  s t e p   15402                              ( at time 7.6997294E+00 )

 nodal point  x-disp     y-disp      z-disp      x-vel       y-vel       z-vel      x-accl      y-accl      z-accl      x-coor      y-coor      z-coor
    22626  1.44664E-01 1.02516E-01-2.31577E+01 1.54386E-01 1.40521E-01-2.09921E+00 7.87982E-02 4.20146E-02 6.30357E-01 4.81088E+01-2.19273E+01-1.58192E+01



 n o d a l   p r i n t   o u t   f o r   t i m e  s t e p   15402                              ( at time 7.6997294E+00 )

 nodal point  x-rot      y-rot       z-rot       x-rot vel   y-rot vel   z-rot vel   x-rot acc   y-rot acc   z-rot acc
    22626  4.74514E-03 9.03834E-03-1.45216E-03 4.61402E-03 7.32529E-03-1.90975E-03 2.81403E-03 2.56004E-03-8.69011E-04



 n o d a l   p r i n t   o u t   f o r   t i m e  s t e p   15602                              ( at time 7.7997194E+00 )

 nodal point  x-disp     y-disp      z-disp      x-vel       y-vel       z-vel      x-accl      y-accl      z-accl      x-coor      y-coor      z-coor
    22626  1.60417E-01 1.16708E-01-2.33643E+01 1.60985E-01 1.42485E-01-2.03419E+00 6.59929E-02 1.96462E-02 6.50243E-01 4.81246E+01-2.19131E+01-1.60258E+01



 n o d a l   p r i n t   o u t   f o r   t i m e  s t e p   15602                              ( at time 7.7997194E+00 )

 nodal point  x-rot      y-rot       z-rot       x-rot vel   y-rot vel   z-rot vel   x-rot acc   y-rot acc   z-rot acc
    22626  5.21919E-03 9.78563E-03-1.64650E-03 4.85476E-03 7.60150E-03-1.98209E-03 2.40757E-03 2.76234E-03-7.23485E-04



 n o d a l   p r i n t   o u t   f o r   t i m e  s t e p   15802                              ( at time 7.8997094E+00 )

 nodal point  x-disp     y-disp      z-disp      x-vel       y-vel       z-vel      x-accl      y-accl      z-accl      x-coor      y-coor      z-coor
    22626  1.76891E-01 1.31094E-01-2.35644E+01 1.68237E-01 1.45448E-01-1.96890E+00 7.25299E-02 2.96340E-02 6.52990E-01 4.81411E+01-2.18987E+01-1.62259E+01



 n o d a l   p r i n t   o u t   f o r   t i m e  s t e p   15802                              ( at time 7.8997094E+00 )

 nodal point  x-rot      y-rot       z-rot       x-rot vel   y-rot vel   z-rot vel   x-rot acc   y-rot acc   z-rot acc
    22626  5.71799E-03 1.05567E-02-1.84782E-03 5.13881E-03 7.81984E-03-2.05480E-03 2.84079E-03 2.18369E-03-7.27097E-04



 n o d a l   p r i n t   o u t   f o r   t i m e  s t e p   16002                              ( at time 7.9996994E+00 )

 nodal point  x-disp     y-disp      z-disp      x-vel       y-vel       z-vel      x-accl      y-accl      z-accl      x-coor      y-coor      z-coor
    22626  1.94024E-01 1.45702E-01-2.37579E+01 1.75507E-01 1.46089E-01-1.90084E+00 7.27016E-02 6.40454E-03 6.80636E-01 4.81582E+01-2.18841E+01-1.64194E+01



 n o d a l   p r i n t   o u t   f o r   t i m e  s t e p   16002                              ( at time 7.9996994E+00 )

 nodal point  x-rot      y-rot       z-rot       x-rot vel   y-rot vel   z-rot vel   x-rot acc   y-rot acc   z-rot acc
    22626  6.24598E-03 1.13515E-02-2.05676E-03 5.42550E-03 8.06819E-03-2.13978E-03 2.86721E-03 2.48375E-03-8.49886E-04



 n o d a l   p r i n t   o u t   f o r   t i m e  s t e p   16202                              ( at time 8.0996894E+00 )

 nodal point  x-disp     y-disp      z-disp      x-vel       y-vel       z-vel      x-accl      y-accl      z-accl      x-coor      y-coor      z-coor
    22626  2.11962E-01 1.60334E-01-2.39443E+01 1.82999E-01 1.46016E-01-1.82971E+00 7.49296E-02-7.27548E-04 7.11414E-01 4.81761E+01-2.18695E+01-1.66058E+01



 n o d a l   p r i n t   o u t   f o r   t i m e  s t e p   16202                              ( at time 8.0996894E+00 )

 nodal point  x-rot      y-rot       z-rot       x-rot vel   y-rot vel   z-rot vel   x-rot acc   y-rot acc   z-rot acc
    22626  6.80366E-03 1.21697E-02-2.27253E-03 5.71920E-03 8.26948E-03-2.19449E-03 2.93730E-03 2.01310E-03-5.47154E-04



 n o d a l   p r i n t   o u t   f o r   t i m e  s t e p   16402                              ( at time 8.1996794E+00 )

 nodal point  x-disp     y-disp      z-disp      x-vel       y-vel       z-vel      x-accl      y-accl      z-accl      x-coor      y-coor      z-coor
    22626  2.30612E-01 1.74936E-01-2.41237E+01 1.89858E-01 1.46466E-01-1.75780E+00 6.86017E-02 4.49941E-03 7.19175E-01 4.81948E+01-2.18549E+01-1.67852E+01



 n o d a l   p r i n t   o u t   f o r   t i m e  s t e p   16402                              ( at time 8.1996794E+00 )

 nodal point  x-rot      y-rot       z-rot       x-rot vel   y-rot vel   z-rot vel   x-rot acc   y-rot acc   z-rot acc
    22626  7.39098E-03 1.30075E-02-2.49428E-03 6.01965E-03 8.49279E-03-2.26526E-03 3.00481E-03 2.23325E-03-7.07791E-04



 n o d a l   p r i n t   o u t   f o r   t i m e  s t e p   16602                              ( at time 8.2996694E+00 )

 nodal point  x-disp     y-disp      z-disp      x-vel       y-vel       z-vel      x-accl      y-accl      z-accl      x-coor      y-coor      z-coor
    22626  2.49968E-01 1.89515E-01-2.42959E+01 1.96645E-01 1.45145E-01-1.68626E+00 6.78764E-02-1.32111E-02 7.15469E-01 4.82141E+01-2.18403E+01-1.69574E+01



 n o d a l   p r i n t   o u t   f o r   t i m e  s t e p   16602                              ( at time 8.2996694E+00 )

 nodal point  x-rot      y-rot       z-rot       x-rot vel   y-rot vel   z-rot vel   x-rot acc   y-rot acc   z-rot acc
    22626  8.01063E-03 1.38657E-02-2.72247E-03 6.36152E-03 8.65071E-03-2.31321E-03 3.41906E-03 1.57938E-03-4.79507E-04



 n o d a l   p r i n t   o u t   f o r   t i m e  s t e p   16802                              ( at time 8.3996594E+00 )

 nodal point  x-disp     y-disp      z-disp      x-vel       y-vel       z-vel      x-accl      y-accl      z-accl      x-coor      y-coor      z-coor
    22626  2.70077E-01 2.03849E-01-2.44608E+01 2.04929E-01 1.41246E-01-1.61218E+00 8.28412E-02-3.89925E-02 7.40818E-01 4.82343E+01-2.18259E+01-1.71223E+01



 n o d a l   p r i n t   o u t   f o r   t i m e  s t e p   16802                              ( at time 8.3996594E+00 )

 nodal point  x-rot      y-rot       z-rot       x-rot vel   y-rot vel   z-rot vel   x-rot acc   y-rot acc   z-rot acc
    22626  8.66207E-03 1.47393E-02-2.95602E-03 6.69121E-03 8.80910E-03-2.37343E-03 3.29720E-03 1.58407E-03-6.02310E-04



 n o d a l   p r i n t   o u t   f o r   t i m e  s t e p   17002                              ( at time 8.4996494E+00 )

 nodal point  x-disp     y-disp      z-disp      x-vel       y-vel       z-vel      x-accl      y-accl      z-accl      x-coor      y-coor      z-coor
    22626  2.90870E-01 2.17703E-01-2.46181E+01 2.11133E-01 1.36392E-01-1.53572E+00 6.20496E-02-4.85468E-02 7.64752E-01 4.82551E+01-2.18121E+01-1.72796E+01



 n o d a l   p r i n t   o u t   f o r   t i m e  s t e p   17002                              ( at time 8.4996494E+00 )

 nodal point  x-rot      y-rot       z-rot       x-rot vel   y-rot vel   z-rot vel   x-rot acc   y-rot acc   z-rot acc
    22626  9.35013E-03 1.56299E-02-3.19729E-03 7.07571E-03 8.97522E-03-2.44845E-03 3.84545E-03 1.66133E-03-7.50256E-04



 n o d a l   p r i n t   o u t   f o r   t i m e  s t e p   17202                              ( at time 8.5996394E+00 )

 nodal point  x-disp     y-disp      z-disp      x-vel       y-vel       z-vel      x-accl      y-accl      z-accl      x-coor      y-coor      z-coor
    22626  3.12343E-01 2.31154E-01-2.47679E+01 2.18921E-01 1.30954E-01-1.46028E+00 7.78858E-02-5.43882E-02 7.54460E-01 4.82765E+01-2.17986E+01-1.74294E+01



 n o d a l   p r i n t   o u t   f o r   t i m e  s t e p   17202                              ( at time 8.5996394E+00 )

 nodal point  x-rot      y-rot       z-rot       x-rot vel   y-rot vel   z-rot vel   x-rot acc   y-rot acc   z-rot acc
    22626  1.00755E-02 1.65323E-02-3.44399E-03 7.42216E-03 9.09044E-03-2.48162E-03 3.46480E-03 1.15240E-03-3.31787E-04



 n o d a l   p r i n t   o u t   f o r   t i m e  s t e p   17402                              ( at time 8.6996293E+00 )

 nodal point  x-disp     y-disp      z-disp      x-vel       y-vel       z-vel      x-accl      y-accl      z-accl      x-coor      y-coor      z-coor
    22626  3.34565E-01 2.43905E-01-2.49100E+01 2.25627E-01 1.24280E-01-1.38280E+00 6.70654E-02-6.67449E-02 7.74819E-01 4.82987E+01-2.17859E+01-1.75715E+01



 n o d a l   p r i n t   o u t   f o r   t i m e  s t e p   17402                              ( at time 8.6996293E+00 )

 nodal point  x-rot      y-rot       z-rot       x-rot vel   y-rot vel   z-rot vel   x-rot acc   y-rot acc   z-rot acc
    22626  1.08372E-02 1.74495E-02-3.69663E-03 7.81627E-03 9.24858E-03-2.56513E-03 3.94151E-03 1.58153E-03-8.35179E-04



 n o d a l   p r i n t   o u t   f o r   t i m e  s t e p   17602                              ( at time 8.7996193E+00 )

 nodal point  x-disp     y-disp      z-disp      x-vel       y-vel       z-vel      x-accl      y-accl      z-accl      x-coor      y-coor      z-coor
    22626  3.57507E-01 2.56107E-01-2.50444E+01 2.33608E-01 1.20651E-01-1.30421E+00 7.98236E-02-3.62938E-02 7.85969E-01 4.83217E+01-2.17737E+01-1.77059E+01



 n o d a l   p r i n t   o u t   f o r   t i m e  s t e p   17602                              ( at time 8.7996193E+00 )

 nodal point  x-rot      y-rot       z-rot       x-rot vel   y-rot vel   z-rot vel   x-rot acc   y-rot acc   z-rot acc
    22626  1.16390E-02 1.83775E-02-3.95504E-03 8.22758E-03 9.32933E-03-2.60310E-03 4.11344E-03 8.07529E-04-3.79676E-04



 n o d a l   p r i n t   o u t   f o r   t i m e  s t e p   17802                              ( at time 8.8996093E+00 )

 nodal point  x-disp     y-disp      z-disp      x-vel       y-vel       z-vel      x-accl      y-accl      z-accl      x-coor      y-coor      z-coor
    22626  3.81196E-01 2.67881E-01-2.51709E+01 2.40929E-01 1.13872E-01-1.22694E+00 7.32204E-02-6.77926E-02 7.72808E-01 4.83454E+01-2.17619E+01-1.78324E+01



 n o d a l   p r i n t   o u t   f o r   t i m e  s t e p   17802                              ( at time 8.8996093E+00 )

 nodal point  x-rot      y-rot       z-rot       x-rot vel   y-rot vel   z-rot vel   x-rot acc   y-rot acc   z-rot acc
    22626  1.24824E-02 1.93144E-02-4.21953E-03 8.63696E-03 9.41635E-03-2.68680E-03 4.09427E-03 8.70297E-04-8.37115E-04



 n o d a l   p r i n t   o u t   f o r   t i m e  s t e p   18002                              ( at time 8.9995993E+00 )

 nodal point  x-disp     y-disp      z-disp      x-vel       y-vel       z-vel      x-accl      y-accl      z-accl      x-coor      y-coor      z-coor
    22626  4.05738E-01 2.78846E-01-2.52898E+01 2.48958E-01 1.06363E-01-1.15096E+00 8.02972E-02-7.50957E-02 7.59879E-01 4.83699E+01-2.17509E+01-1.79513E+01



 n o d a l   p r i n t   o u t   f o r   t i m e  s t e p   18002                              ( at time 8.9995993E+00 )

 nodal point  x-rot      y-rot       z-rot       x-rot vel   y-rot vel   z-rot vel   x-rot acc   y-rot acc   z-rot acc
    22626  1.33637E-02 2.02629E-02-4.48978E-03 9.02076E-03 9.54400E-03-2.72870E-03 3.83831E-03 1.27666E-03-4.19056E-04



 n o d a l   p r i n t   o u t   f o r   t i m e  s t e p   18202                              ( at time 9.0995893E+00 )

 nodal point  x-disp     y-disp      z-disp      x-vel       y-vel       z-vel      x-accl      y-accl      z-accl      x-coor      y-coor      z-coor
    22626  4.30899E-01 2.89303E-01-2.54012E+01 2.55041E-01 1.02936E-01-1.07734E+00 6.08370E-02-3.42819E-02 7.36319E-01 4.83951E+01-2.17405E+01-1.80627E+01



 n o d a l   p r i n t   o u t   f o r   t i m e  s t e p   18202                              ( at time 9.0995893E+00 )

 nodal point  x-rot      y-rot       z-rot       x-rot vel   y-rot vel   z-rot vel   x-rot acc   y-rot acc   z-rot acc
    22626  1.42868E-02 2.12216E-02-4.76414E-03 9.44026E-03 9.61911E-03-2.79310E-03 4.19545E-03 7.51188E-04-6.44079E-04



 n o d a l   p r i n t   o u t   f o r   t i m e  s t e p   18402                              ( at time 9.1995793E+00 )

 nodal point  x-disp     y-disp      z-disp      x-vel       y-vel       z-vel      x-accl      y-accl      z-accl      x-coor      y-coor      z-coor
    22626  4.56897E-01 2.99387E-01-2.55051E+01 2.65321E-01 9.80255E-02-1.00360E+00 1.02807E-01-4.91058E-02 7.37475E-01 4.84211E+01-2.17304E+01-1.81666E+01



 n o d a l   p r i n t   o u t   f o r   t i m e  s t e p   18402                              ( at time 9.1995793E+00 )

 nodal point  x-rot      y-rot       z-rot       x-rot vel   y-rot vel   z-rot vel   x-rot acc   y-rot acc   z-rot acc
    22626  1.52512E-02 2.21889E-02-5.04601E-03 9.84409E-03 9.71132E-03-2.85586E-03 4.03868E-03 9.22168E-04-6.27658E-04



 n o d a l   p r i n t   o u t   f o r   t i m e  s t e p   18602                              ( at time 9.2995693E+00 )

 nodal point  x-disp     y-disp      z-disp      x-vel       y-vel       z-vel      x-accl      y-accl      z-accl      x-coor      y-coor      z-coor
    22626  4.83734E-01 3.08859E-01-2.56018E+01 2.73202E-01 9.22783E-02-9.30719E-01 7.88160E-02-5.74785E-02 7.28849E-01 4.84479E+01-2.17209E+01-1.82633E+01



 n o d a l   p r i n t   o u t   f o r   t i m e  s t e p   18602                              ( at time 9.2995693E+00 )

 nodal point  x-rot      y-rot       z-rot       x-rot vel   y-rot vel   z-rot vel   x-rot acc   y-rot acc   z-rot acc
    22626  1.62567E-02 2.31653E-02-5.33120E-03 1.02655E-02 9.81252E-03-2.85578E-03 4.21451E-03 1.01215E-03 8.40604E-07



 n o d a l   p r i n t   o u t   f o r   t i m e  s t e p   18802                              ( at time 9.3995593E+00 )

 nodal point  x-disp     y-disp      z-disp      x-vel       y-vel       z-vel      x-accl      y-accl      z-accl      x-coor      y-coor      z-coor
    22626  5.11373E-01 3.17838E-01-2.56912E+01 2.79424E-01 8.81564E-02-8.57978E-01 6.22258E-02-4.12229E-02 7.27487E-01 4.84756E+01-2.17120E+01-1.83527E+01



 n o d a l   p r i n t   o u t   f o r   t i m e  s t e p   18802                              ( at time 9.3995593E+00 )

 nodal point  x-rot      y-rot       z-rot       x-rot vel   y-rot vel   z-rot vel   x-rot acc   y-rot acc   z-rot acc
    22626  1.73038E-02 2.41502E-02-5.62094E-03 1.06963E-02 9.88600E-03-2.94613E-03 4.30801E-03 7.34860E-04-9.03579E-04



 n o d a l   p r i n t   o u t   f o r   t i m e  s t e p   19002                              ( at time 9.4995493E+00 )

 nodal point  x-disp     y-disp      z-disp      x-vel       y-vel       z-vel      x-accl      y-accl      z-accl      x-coor      y-coor      z-coor
    22626  5.39731E-01 3.26559E-01-2.57735E+01 2.88145E-01 8.64556E-02-7.90013E-01 8.72220E-02-1.70093E-02 6.79712E-01 4.85039E+01-2.17032E+01-1.84350E+01



 n o d a l   p r i n t   o u t   f o r   t i m e  s t e p   19002                              ( at time 9.4995493E+00 )

 nodal point  x-rot      y-rot       z-rot       x-rot vel   y-rot vel   z-rot vel   x-rot acc   y-rot acc   z-rot acc
    22626  1.83954E-02 2.51435E-02-5.91845E-03 1.11104E-02 9.97033E-03-2.99015E-03 4.14208E-03 8.43389E-04-4.40260E-04



 n o d a l   p r i n t   o u t   f o r   t i m e  s t e p   19202                              ( at time 9.5995393E+00 )

 nodal point  x-disp     y-disp      z-disp      x-vel       y-vel       z-vel      x-accl      y-accl      z-accl      x-coor      y-coor      z-coor
    22626  5.69021E-01 3.34904E-01-2.58490E+01 2.96934E-01 8.03633E-02-7.19474E-01 8.78987E-02-6.09285E-02 7.05456E-01 4.85332E+01-2.16949E+01-1.85105E+01



 n o d a l   p r i n t   o u t   f o r   t i m e  s t e p   19202                              ( at time 9.5995393E+00 )

 nodal point  x-rot      y-rot       z-rot       x-rot vel   y-rot vel   z-rot vel   x-rot acc   y-rot acc   z-rot acc
    22626  1.95243E-02 2.61439E-02-6.21835E-03 1.14702E-02 1.00380E-02-2.99797E-03 3.59823E-03 6.76342E-04-7.82220E-05



 n o d a l   p r i n t   o u t   f o r   t i m e  s t e p   19402                              ( at time 9.6995293E+00 )

 nodal point  x-disp     y-disp      z-disp      x-vel       y-vel       z-vel      x-accl      y-accl      z-accl      x-coor      y-coor      z-coor
    22626  5.99010E-01 3.42976E-01-2.59174E+01 3.02974E-01 8.11010E-02-6.49245E-01 6.04020E-02 7.37712E-03 7.02363E-01 4.85632E+01-2.16868E+01-1.85789E+01



 n o d a l   p r i n t   o u t   f o r   t i m e  s t e p   19402                              ( at time 9.6995293E+00 )

 nodal point  x-rot      y-rot       z-rot       x-rot vel   y-rot vel   z-rot vel   x-rot acc   y-rot acc   z-rot acc
    22626  2.06953E-02 2.71502E-02-6.52401E-03 1.19556E-02 1.01248E-02-3.09243E-03 4.85459E-03 8.68658E-04-9.44652E-04



 n o d a l   p r i n t   o u t   f o r   t i m e  s t e p   19602                              ( at time 9.7995193E+00 )

 nodal point  x-disp     y-disp      z-disp      x-vel       y-vel       z-vel      x-accl      y-accl      z-accl      x-coor      y-coor      z-coor
    22626  6.29773E-01 3.51041E-01-2.59789E+01 3.11685E-01 7.87233E-02-5.81231E-01 8.71192E-02-2.37789E-02 6.80209E-01 4.85940E+01-2.16787E+01-1.86404E+01



 n o d a l   p r i n t   o u t   f o r   t i m e  s t e p   19602                              ( at time 9.7995193E+00 )

 nodal point  x-rot      y-rot       z-rot       x-rot vel   y-rot vel   z-rot vel   x-rot acc   y-rot acc   z-rot acc
    22626  2.19093E-02 2.81649E-02-6.83705E-03 1.23124E-02 1.01871E-02-3.15624E-03 3.56818E-03 6.23174E-04-6.38186E-04



 n o d a l   p r i n t   o u t   f o r   t i m e  s t e p   19802                              ( at time 9.8995093E+00 )

 nodal point  x-disp     y-disp      z-disp      x-vel       y-vel       z-vel      x-accl      y-accl      z-accl      x-coor      y-coor      z-coor
    22626  6.61518E-01 3.58906E-01-2.60336E+01 3.21447E-01 8.00975E-02-5.16098E-01 9.76274E-02 1.37435E-02 6.51396E-01 4.86257E+01-2.16709E+01-1.86951E+01



 n o d a l   p r i n t   o u t   f o r   t i m e  s t e p   19802                              ( at time 9.8995093E+00 )

 nodal point  x-rot      y-rot       z-rot       x-rot vel   y-rot vel   z-rot vel   x-rot acc   y-rot acc   z-rot acc
    22626  2.31608E-02 2.91841E-02-7.15370E-03 1.27375E-02 1.02009E-02-3.20734E-03 4.25099E-03 1.37766E-04-5.11103E-04



 n o d a l   p r i n t   o u t   f o r   t i m e  s t e p   20003                              ( at time 9.9999992E+00 )

 nodal point  x-disp     y-disp      z-disp      x-vel       y-vel       z-vel      x-accl      y-accl      z-accl      x-coor      y-coor      z-coor
[...]
    22626  2.48137E-01 1.49765E-01-6.68341E-02 1.59158E-02 6.98730E-03-4.88921E-03-1.01134E-03-2.86333E-04 8.21707E-04



 n o d a l   p r i n t   o u t   f o r   t i m e  s t e p   45205                              ( at time 2.2599738E+01 )

 nodal point  x-disp     y-disp      z-disp      x-vel       y-vel       z-vel      x-accl      y-accl      z-accl      x-coor      y-coor      z-coor
    22626  4.64701E+00 7.03920E-01-2.04780E+01 2.81661E-01-7.47865E-02 4.44055E-01 2.60162E-02 1.06679E-02 1.56417E-03 5.26112E+01-2.13259E+01-1.31395E+01



 n o d a l   p r i n t   o u t   f o r   t i m e  s t e p   45205                              ( at time 2.2599738E+01 )

 nodal point  x-rot      y-rot       z-rot       x-rot vel   y-rot vel   z-rot vel   x-rot acc   y-rot acc   z-rot acc
    22626  2.49726E-01 1.50463E-01-6.73202E-02 1.58640E-02 6.97724E-03-4.81819E-03-5.18403E-04-1.00629E-04 7.10259E-04



 n o d a l   p r i n t   o u t   f o r   t i m e  s t e p   45405                              ( at time 2.2699728E+01 )

 nodal point  x-disp     y-disp      z-disp      x-vel       y-vel       z-vel      x-accl      y-accl      z-accl      x-coor      y-coor      z-coor
    22626  4.67523E+00 6.96361E-01-2.04337E+01 2.83556E-01-7.55181E-02 4.43394E-01 1.89570E-02-7.31631E-03-6.61804E-03 5.26394E+01-2.13334E+01-1.30952E+01



 n o d a l   p r i n t   o u t   f o r   t i m e  s t e p   45405                              ( at time 2.2699728E+01 )

 nodal point  x-rot      y-rot       z-rot       x-rot vel   y-rot vel   z-rot vel   x-rot acc   y-rot acc   z-rot acc
    22626  2.51310E-01 1.51159E-01-6.77984E-02 1.58019E-02 6.94841E-03-4.75643E-03-6.20665E-04-2.88388E-04 6.17721E-04



 n o d a l   p r i n t   o u t   f o r   t i m e  s t e p   45605                              ( at time 2.2799718E+01 )

 nodal point  x-disp     y-disp      z-disp      x-vel       y-vel       z-vel      x-accl      y-accl      z-accl      x-coor      y-coor      z-coor
    22626  4.70361E+00 6.88754E-01-2.03894E+01 2.83167E-01-7.68973E-02 4.43384E-01-3.89612E-03-1.37933E-02-9.89528E-05 5.26678E+01-2.13410E+01-1.30509E+01



 n o d a l   p r i n t   o u t   f o r   t i m e  s t e p   45605                              ( at time 2.2799718E+01 )

 nodal point  x-rot      y-rot       z-rot       x-rot vel   y-rot vel   z-rot vel   x-rot acc   y-rot acc   z-rot acc
    22626  2.52889E-01 1.51853E-01-6.82707E-02 1.57710E-02 6.93085E-03-4.69214E-03-3.09153E-04-1.75580E-04 6.42923E-04



 n o d a l   p r i n t   o u t   f o r   t i m e  s t e p   45805                              ( at time 2.2899708E+01 )

 nodal point  x-disp     y-disp      z-disp      x-vel       y-vel       z-vel      x-accl      y-accl      z-accl      x-coor      y-coor      z-coor
    22626  4.73209E+00 6.80983E-01-2.03451E+01 2.86307E-01-7.83914E-02 4.42363E-01 3.14050E-02-1.49426E-02-1.02138E-02 5.26963E+01-2.13488E+01-1.30066E+01



 n o d a l   p r i n t   o u t   f o r   t i m e  s t e p   45805                              ( at time 2.2899708E+01 )

 nodal point  x-rot      y-rot       z-rot       x-rot vel   y-rot vel   z-rot vel   x-rot acc   y-rot acc   z-rot acc
    22626  2.54464E-01 1.52545E-01-6.87373E-02 1.57429E-02 6.92190E-03-4.63861E-03-2.80545E-04-8.95426E-05 5.35360E-04



 n o d a l   p r i n t   o u t   f o r   t i m e  s t e p   46005                              ( at time 2.2999698E+01 )

 nodal point  x-disp     y-disp      z-disp      x-vel       y-vel       z-vel      x-accl      y-accl      z-accl      x-coor      y-coor      z-coor
    22626  4.76080E+00 6.73058E-01-2.03009E+01 2.87233E-01-8.05450E-02 4.41496E-01 9.26281E-03-2.15383E-02-8.66671E-03 5.27250E+01-2.13567E+01-1.29624E+01



 n o d a l   p r i n t   o u t   f o r   t i m e  s t e p   46005                              ( at time 2.2999698E+01 )

 nodal point  x-rot      y-rot       z-rot       x-rot vel   y-rot vel   z-rot vel   x-rot acc   y-rot acc   z-rot acc
    22626  2.56037E-01 1.53237E-01-6.91981E-02 1.57147E-02 6.90599E-03-4.57680E-03-2.82161E-04-1.59052E-04 6.18194E-04



 n o d a l   p r i n t   o u t   f o r   t i m e  s t e p   46205                              ( at time 2.3099688E+01 )

 nodal point  x-disp     y-disp      z-disp      x-vel       y-vel       z-vel      x-accl      y-accl      z-accl      x-coor      y-coor      z-coor
    22626  4.78969E+00 6.64977E-01-2.02568E+01 2.90482E-01-8.16910E-02 4.40966E-01 3.24929E-02-1.14615E-02-5.29825E-03 5.27539E+01-2.13648E+01-1.29183E+01



 n o d a l   p r i n t   o u t   f o r   t i m e  s t e p   46205                              ( at time 2.3099688E+01 )

 nodal point  x-rot      y-rot       z-rot       x-rot vel   y-rot vel   z-rot vel   x-rot acc   y-rot acc   z-rot acc
    22626  2.57607E-01 1.53927E-01-6.96533E-02 1.56810E-02 6.89193E-03-4.51685E-03-3.37102E-04-1.40645E-04 5.99512E-04



 n o d a l   p r i n t   o u t   f o r   t i m e  s t e p   46405                              ( at time 2.3199678E+01 )

 nodal point  x-disp     y-disp      z-disp      x-vel       y-vel       z-vel      x-accl      y-accl      z-accl      x-coor      y-coor      z-coor
    22626  4.81873E+00 6.56818E-01-2.02127E+01 2.91340E-01-8.21494E-02 4.40339E-01 8.57611E-03-4.58402E-03-6.27039E-03 5.27829E+01-2.13730E+01-1.28742E+01



 n o d a l   p r i n t   o u t   f o r   t i m e  s t e p   46405                              ( at time 2.3199678E+01 )

 nodal point  x-rot      y-rot       z-rot       x-rot vel   y-rot vel   z-rot vel   x-rot acc   y-rot acc   z-rot acc
    22626  2.59173E-01 1.54615E-01-7.01024E-02 1.56508E-02 6.86989E-03-4.45777E-03-3.02130E-04-2.20436E-04 5.90904E-04



 n o d a l   p r i n t   o u t   f o r   t i m e  s t e p   46605                              ( at time 2.3299668E+01 )

 nodal point  x-disp     y-disp      z-disp      x-vel       y-vel       z-vel      x-accl      y-accl      z-accl      x-coor      y-coor      z-coor
    22626  4.84793E+00 6.48564E-01-2.01686E+01 2.93615E-01-8.20679E-02 4.41316E-01 2.27533E-02 8.14811E-04 9.77237E-03 5.28121E+01-2.13812E+01-1.28301E+01



 n o d a l   p r i n t   o u t   f o r   t i m e  s t e p   46605                              ( at time 2.3299668E+01 )

 nodal point  x-rot      y-rot       z-rot       x-rot vel   y-rot vel   z-rot vel   x-rot acc   y-rot acc   z-rot acc
    22626  2.60736E-01 1.55301E-01-7.05457E-02 1.56306E-02 6.85995E-03-4.41267E-03-2.02362E-04-9.93598E-05 4.51020E-04



 n o d a l   p r i n t   o u t   f o r   t i m e  s t e p   46805                              ( at time 2.3399658E+01 )

 nodal point  x-disp     y-disp      z-disp      x-vel       y-vel       z-vel      x-accl      y-accl      z-accl      x-coor      y-coor      z-coor
    22626  4.87732E+00 6.40301E-01-2.01247E+01 2.94348E-01-8.35972E-02 4.38833E-01 7.33145E-03-1.52948E-02-2.48392E-02 5.28415E+01-2.13895E+01-1.27862E+01



 n o d a l   p r i n t   o u t   f o r   t i m e  s t e p   46805                              ( at time 2.3399658E+01 )

 nodal point  x-rot      y-rot       z-rot       x-rot vel   y-rot vel   z-rot vel   x-rot acc   y-rot acc   z-rot acc
    22626  2.62297E-01 1.55984E-01-7.09836E-02 1.55947E-02 6.81278E-03-4.33663E-03-3.58210E-04-4.71809E-04 7.60508E-04



 n o d a l   p r i n t   o u t   f o r   t i m e  s t e p   47005                              ( at time 2.3499648E+01 )

 nodal point  x-disp     y-disp      z-disp      x-vel       y-vel       z-vel      x-accl      y-accl      z-accl      x-coor      y-coor      z-coor
    22626  4.90686E+00 6.31998E-01-2.00808E+01 2.96365E-01-8.26194E-02 4.37771E-01 2.01777E-02 9.77919E-03-1.06142E-02 5.28710E+01-2.13978E+01-1.27423E+01



 n o d a l   p r i n t   o u t   f o r   t i m e  s t e p   47005                              ( at time 2.3499648E+01 )

 nodal point  x-rot      y-rot       z-rot       x-rot vel   y-rot vel   z-rot vel   x-rot acc   y-rot acc   z-rot acc
    22626  2.63856E-01 1.56666E-01-7.14144E-02 1.56010E-02 6.82768E-03-4.27580E-03 6.28141E-05 1.49016E-04 6.08302E-04



 n o d a l   p r i n t   o u t   f o r   t i m e  s t e p   47205                              ( at time 2.3599638E+01 )

 nodal point  x-disp     y-disp      z-disp      x-vel       y-vel       z-vel      x-accl      y-accl      z-accl      x-coor      y-coor      z-coor
    22626  4.93656E+00 6.23710E-01-2.00372E+01 2.97363E-01-8.35627E-02 4.35077E-01 9.97862E-03-9.43363E-03-2.69467E-02 5.29007E+01-2.14061E+01-1.26987E+01



 n o d a l   p r i n t   o u t   f o r   t i m e  s t e p   47205                              ( at time 2.3599638E+01 )

 nodal point  x-rot      y-rot       z-rot       x-rot vel   y-rot vel   z-rot vel   x-rot acc   y-rot acc   z-rot acc
    22626  2.65415E-01 1.57345E-01-7.18408E-02 1.55855E-02 6.75223E-03-4.24939E-03-1.55529E-04-7.54539E-04 2.64129E-04



 n o d a l   p r i n t   o u t   f o r   t i m e  s t e p   47405                              ( at time 2.3699628E+01 )

 nodal point  x-disp     y-disp      z-disp      x-vel       y-vel       z-vel      x-accl      y-accl      z-accl      x-coor      y-coor      z-coor
    22626  4.96637E+00 6.15324E-01-1.99936E+01 2.98577E-01-8.36862E-02 4.35968E-01 1.21399E-02-1.23534E-03 8.90992E-03 5.29305E+01-2.14145E+01-1.26551E+01



 n o d a l   p r i n t   o u t   f o r   t i m e  s t e p   47405                              ( at time 2.3699628E+01 )

 nodal point  x-rot      y-rot       z-rot       x-rot vel   y-rot vel   z-rot vel   x-rot acc   y-rot acc   z-rot acc
    22626  2.66974E-01 1.58021E-01-7.22630E-02 1.56177E-02 6.75601E-03-4.19669E-03 3.21829E-04 3.77546E-05 5.27102E-04



 n o d a l   p r i n t   o u t   f o r   t i m e  s t e p   47605                              ( at time 2.3799618E+01 )

 nodal point  x-disp     y-disp      z-disp      x-vel       y-vel       z-vel      x-accl      y-accl      z-accl      x-coor      y-coor      z-coor
    22626  4.99631E+00 6.06894E-01-1.99502E+01 2.99812E-01-8.42422E-02 4.31417E-01 1.23514E-02-5.56069E-03-4.55141E-02 5.29605E+01-2.14229E+01-1.26117E+01



 n o d a l   p r i n t   o u t   f o r   t i m e  s t e p   47605                              ( at time 2.3799618E+01 )

 nodal point  x-rot      y-rot       z-rot       x-rot vel   y-rot vel   z-rot vel   x-rot acc   y-rot acc   z-rot acc
    22626  2.68536E-01 1.58696E-01-7.26808E-02 1.56149E-02 6.72309E-03-4.16910E-03-2.72442E-05-3.29208E-04 2.75926E-04



 n o d a l   p r i n t   o u t   f o r   t i m e  s t e p   47805                              ( at time 2.3899608E+01 )

 nodal point  x-disp     y-disp      z-disp      x-vel       y-vel       z-vel      x-accl      y-accl      z-accl      x-coor      y-coor      z-coor
    22626  5.02634E+00 5.98439E-01-1.99072E+01 3.01245E-01-8.48417E-02 4.30544E-01 1.43291E-02-5.99536E-03-8.72990E-03 5.29905E+01-2.14314E+01-1.25687E+01



 n o d a l   p r i n t   o u t   f o r   t i m e  s t e p   47805                              ( at time 2.3899608E+01 )

 nodal point  x-rot      y-rot       z-rot       x-rot vel   y-rot vel   z-rot vel   x-rot acc   y-rot acc   z-rot acc
    22626  2.70098E-01 1.59367E-01-7.30946E-02 1.56406E-02 6.71049E-03-4.12168E-03 2.56594E-04-1.26043E-04 4.74240E-04



 n o d a l   p r i n t   o u t   f o r   t i m e  s t e p   48005                              ( at time 2.3999598E+01 )

 nodal point  x-disp     y-disp      z-disp      x-vel       y-vel       z-vel      x-accl      y-accl      z-accl      x-coor      y-coor      z-coor
    22626  5.05656E+00 5.89925E-01-1.98643E+01 3.03450E-01-8.56927E-02 4.26768E-01 2.20600E-02-8.51070E-03-3.77700E-02 5.30207E+01-2.14399E+01-1.25258E+01



 n o d a l   p r i n t   o u t   f o r   t i m e  s t e p   48005                              ( at time 2.3999598E+01 )

 nodal point  x-rot      y-rot       z-rot       x-rot vel   y-rot vel   z-rot vel   x-rot acc   y-rot acc   z-rot acc
    22626  2.71665E-01 1.60037E-01-7.35053E-02 1.56715E-02 6.69419E-03-4.08671E-03 3.09587E-04-1.63027E-04 3.49699E-04



 n o d a l   p r i n t   o u t   f o r   t i m e  s t e p   48205                              ( at time 2.4099588E+01 )

 nodal point  x-disp     y-disp      z-disp      x-vel       y-vel       z-vel      x-accl      y-accl      z-accl      x-coor      y-coor      z-coor
    22626  5.08689E+00 5.81390E-01-1.98217E+01 3.03526E-01-8.53301E-02 4.24271E-01 7.55260E-04 3.62578E-03-2.49701E-02 5.30511E+01-2.14484E+01-1.24832E+01



 n o d a l   p r i n t   o u t   f o r   t i m e  s t e p   48205                              ( at time 2.4099588E+01 )

 nodal point  x-rot      y-rot       z-rot       x-rot vel   y-rot vel   z-rot vel   x-rot acc   y-rot acc   z-rot acc
    22626  2.73232E-01 1.60705E-01-7.39120E-02 1.56993E-02 6.66585E-03-4.05997E-03 2.77969E-04-2.83385E-04 2.67496E-04



 n o d a l   p r i n t   o u t   f o r   t i m e  s t e p   48405                              ( at time 2.4199578E+01 )

 nodal point  x-disp     y-disp      z-disp      x-vel       y-vel       z-vel      x-accl      y-accl      z-accl      x-coor      y-coor      z-coor
    22626  5.11732E+00 5.72841E-01-1.97793E+01 3.04648E-01-8.52513E-02 4.23336E-01 1.12257E-02 7.87837E-04-9.34645E-03 5.30815E+01-2.14569E+01-1.24408E+01



 n o d a l   p r i n t   o u t   f o r   t i m e  s t e p   48405                              ( at time 2.4199578E+01 )

 nodal point  x-rot      y-rot       z-rot       x-rot vel   y-rot vel   z-rot vel   x-rot acc   y-rot acc   z-rot acc
    22626  2.74804E-01 1.61371E-01-7.43168E-02 1.57441E-02 6.64473E-03-4.04088E-03 4.47401E-04-2.11187E-04 1.90914E-04



 n o d a l   p r i n t   o u t   f o r   t i m e  s t e p   48605                              ( at time 2.4299568E+01 )

 nodal point  x-disp     y-disp      z-disp      x-vel       y-vel       z-vel      x-accl      y-accl      z-accl      x-coor      y-coor      z-coor
    22626  5.14774E+00 5.64344E-01-1.97372E+01 3.04251E-01-8.45940E-02 4.19276E-01-3.97421E-03 6.57403E-03-4.06085E-02 5.31119E+01-2.14654E+01-1.23987E+01



 n o d a l   p r i n t   o u t   f o r   t i m e  s t e p   48605                              ( at time 2.4299568E+01 )

 nodal point  x-rot      y-rot       z-rot       x-rot vel   y-rot vel   z-rot vel   x-rot acc   y-rot acc   z-rot acc
    22626  2.76378E-01 1.62034E-01-7.47188E-02 1.57320E-02 6.61550E-03-4.01010E-03-1.20673E-04-2.92374E-04 3.07779E-04



 n o d a l   p r i n t   o u t   f o r   t i m e  s t e p   48805                              ( at time 2.4399558E+01 )

 nodal point  x-disp     y-disp      z-disp      x-vel       y-vel       z-vel      x-accl      y-accl      z-accl      x-coor      y-coor      z-coor
    22626  5.17825E+00 5.55914E-01-1.96953E+01 3.05687E-01-8.41997E-02 4.18722E-01 1.43607E-02 3.94336E-03-5.53599E-03 5.31424E+01-2.14739E+01-1.23568E+01



 n o d a l   p r i n t   o u t   f o r   t i m e  s t e p   48805                              ( at time 2.4399558E+01 )

 nodal point  x-rot      y-rot       z-rot       x-rot vel   y-rot vel   z-rot vel   x-rot acc   y-rot acc   z-rot acc
    22626  2.77954E-01 1.62694E-01-7.51188E-02 1.58035E-02 6.59044E-03-3.99778E-03 7.14986E-04-2.50586E-04 1.23253E-04



 n o d a l   p r i n t   o u t   f o r   t i m e  s t e p   49006                              ( at time 2.4500048E+01 )

 nodal point  x-disp     y-disp      z-disp      x-vel       y-vel       z-vel      x-accl      y-accl      z-accl      x-coor      y-coor      z-coor
    22626  5.20893E+00 5.47491E-01-1.96535E+01 3.05433E-01-8.30765E-02 4.13782E-01-2.53185E-03 1.11774E-02-4.91598E-02 5.31731E+01-2.14823E+01-1.23150E+01



 n o d a l   p r i n t   o u t   f o r   t i m e  s t e p   49006                              ( at time 2.4500048E+01 )

 nodal point  x-rot      y-rot       z-rot       x-rot vel   y-rot vel   z-rot vel   x-rot acc   y-rot acc   z-rot acc
    22626  2.79546E-01 1.63356E-01-7.55200E-02 1.58512E-02 6.57452E-03-3.98476E-03 4.75037E-04-1.58440E-04 1.29543E-04



 n o d a l   p r i n t   o u t   f o r   t i m e  s t e p   49206                              ( at time 2.4600038E+01 )

 nodal point  x-disp     y-disp      z-disp      x-vel       y-vel       z-vel      x-accl      y-accl      z-accl      x-coor      y-coor      z-coor
    22626  5.23948E+00 5.39182E-01-1.96123E+01 3.05300E-01-8.35634E-02 4.10468E-01-1.32811E-03-4.86918E-03-3.31414E-02 5.32037E+01-2.14906E+01-1.22738E+01



 n o d a l   p r i n t   o u t   f o r   t i m e  s t e p   49206                              ( at time 2.4600038E+01 )

 nodal point  x-rot      y-rot       z-rot       x-rot vel   y-rot vel   z-rot vel   x-rot acc   y-rot acc   z-rot acc
    22626  2.81133E-01 1.64012E-01-7.59182E-02 1.59071E-02 6.54772E-03-3.98514E-03 5.58658E-04-2.68036E-04-3.80480E-06



 n o d a l   p r i n t   o u t   f o r   t i m e  s t e p   49406                              ( at time 2.4700028E+01 )

 nodal point  x-disp     y-disp      z-disp      x-vel       y-vel       z-vel      x-accl      y-accl      z-accl      x-coor      y-coor      z-coor
    22626  5.27007E+00 5.30884E-01-1.95715E+01 3.06054E-01-8.16271E-02 4.05783E-01 7.54231E-03 1.93649E-02-4.68568E-02 5.32342E+01-2.14989E+01-1.22330E+01



 n o d a l   p r i n t   o u t   f o r   t i m e  s t e p   49406                              ( at time 2.4700028E+01 )

 nodal point  x-rot      y-rot       z-rot       x-rot vel   y-rot vel   z-rot vel   x-rot acc   y-rot acc   z-rot acc
    22626  2.82728E-01 1.64666E-01-7.63160E-02 1.59871E-02 6.52721E-03-3.97162E-03 8.00486E-04-2.05170E-04 1.35248E-04



 n o d a l   p r i n t   o u t   f o r   t i m e  s t e p   49606                              ( at time 2.4800018E+01 )

 nodal point  x-disp     y-disp      z-disp      x-vel       y-vel       z-vel      x-accl      y-accl      z-accl      x-coor      y-coor      z-coor
    22626  5.30067E+00 5.22822E-01-1.95311E+01 3.06179E-01-8.05479E-02 4.03587E-01 1.25062E-03 1.07932E-02-2.19624E-02 5.32648E+01-2.15070E+01-1.21926E+01



 n o d a l   p r i n t   o u t   f o r   t i m e  s t e p   49606                              ( at time 2.4800018E+01 )

 nodal point  x-rot      y-rot       z-rot       x-rot vel   y-rot vel   z-rot vel   x-rot acc   y-rot acc   z-rot acc
    22626  2.84328E-01 1.65319E-01-7.67126E-02 1.60177E-02 6.52378E-03-3.97096E-03 3.05427E-04-3.42618E-05 6.51985E-06



 n o d a l   p r i n t   o u t   f o r   t i m e  s t e p   49806                              ( at time 2.4900008E+01 )

 nodal point  x-disp     y-disp      z-disp      x-vel       y-vel       z-vel      x-accl      y-accl      z-accl      x-coor      y-coor      z-coor
    22626  5.33120E+00 5.14819E-01-1.94909E+01 3.05178E-01-7.88815E-02 3.99689E-01-1.00075E-02 1.66657E-02-3.89825E-02 5.32954E+01-2.15150E+01-1.21524E+01



 n o d a l   p r i n t   o u t   f o r   t i m e  s t e p   49806                              ( at time 2.4900008E+01 )

 nodal point  x-rot      y-rot       z-rot       x-rot vel   y-rot vel   z-rot vel   x-rot acc   y-rot acc   z-rot acc
    22626  2.85933E-01 1.65969E-01-7.71098E-02 1.60685E-02 6.49379E-03-3.96324E-03 5.08745E-04-2.99886E-04 7.72990E-05



 n o d a l   p r i n t   o u t   f o r   t i m e  s t e p   50006                              ( at time 2.4999998E+01 )

 nodal point  x-disp     y-disp      z-disp      x-vel       y-vel       z-vel      x-accl      y-accl      z-accl      x-coor      y-coor      z-coor
    22626  5.36173E+00 5.07032E-01-1.94510E+01 3.06039E-01-7.78160E-02 3.98601E-01 8.61008E-03 1.06557E-02-1.08854E-02 5.33259E+01-2.15228E+01-1.21125E+01



 n o d a l   p r i n t   o u t   f o r   t i m e  s t e p   50006                              ( at time 2.4999998E+01 )

 nodal point  x-rot      y-rot       z-rot       x-rot vel   y-rot vel   z-rot vel   x-rot acc   y-rot acc   z-rot acc
    22626  2.87540E-01 1.66618E-01-7.75057E-02 1.60825E-02 6.47913E-03-3.95839E-03 1.39581E-04-1.46706E-04 4.84705E-05
