 LSTC 50th% Full_FE H-III Dummy (Beta Version, February 17, 2019)        
                    ls-dyna smp s R16 R16.0_619_d222963 date 03/18/2025

{BEGIN LEGEND}
 Entity #        Title
    22626                                                                                     
{END LEGEND}




 n o d a l   p r i n t   o u t   f o r   t i m e  s t e p       1                              ( at time 0.0000000E+00 )

 nodal point  x-disp     y-disp      z-disp      x-vel       y-vel       z-vel      x-accl      y-accl      z-accl      x-coor      y-coor      z-coor
    22626  0.00000E+00 0.00000E+00 0.00000E+00 0.00000E+00 0.00000E+00 0.00000E+00 0.00000E+00 0.00000E+00 0.00000E+00 4.65938E+00-2.81908E+01-4.49817E+01



 n o d a l   p r i n t   o u t   f o r   t i m e  s t e p       1                              ( at time 0.0000000E+00 )

 nodal point  x-rot      y-rot       z-rot       x-rot vel   y-rot vel   z-rot vel   x-rot acc   y-rot acc   z-rot acc
    22626  0.00000E+00 0.00000E+00 0.00000E+00 0.00000E+00 0.00000E+00 0.00000E+00 0.00000E+00 0.00000E+00 0.00000E+00



 n o d a l   p r i n t   o u t   f o r   t i m e  s t e p     201                              ( at time 9.9989993E-02 )

 nodal point  x-disp     y-disp      z-disp      x-vel       y-vel       z-vel      x-accl      y-accl      z-accl      x-coor      y-coor      z-coor
    22626  2.73614E-07 1.73582E-06-5.34268E-05 4.19759E-05 2.55516E-04-1.46809E-03 4.19801E-04 2.55542E-03-1.46823E-02 4.65938E+00-2.81908E+01-4.49818E+01



 n o d a l   p r i n t   o u t   f o r   t i m e  s t e p     201                              ( at time 9.9989993E-02 )

 nodal point  x-rot      y-rot       z-rot       x-rot vel   y-rot vel   z-rot vel   x-rot acc   y-rot acc   z-rot acc
    22626 -5.99152E-08-8.38959E-09-5.46379E-09-5.87021E-06-9.70231E-07-9.27488E-07-5.87080E-05-9.70329E-06-9.27581E-06



 n o d a l   p r i n t   o u t   f o r   t i m e  s t e p     401                              ( at time 1.9997999E-01 )

 nodal point  x-disp     y-disp      z-disp      x-vel       y-vel       z-vel      x-accl      y-accl      z-accl      x-coor      y-coor      z-coor
    22626  1.73044E-05 3.61703E-04-6.67530E-04 3.05978E-05 7.81025E-03-1.21536E-02-1.13792E-04 7.55549E-02-1.06866E-01 4.65939E+00-2.81905E+01-4.49824E+01



 n o d a l   p r i n t   o u t   f o r   t i m e  s t e p     401                              ( at time 1.9997999E-01 )

 nodal point  x-rot      y-rot       z-rot       x-rot vel   y-rot vel   z-rot vel   x-rot acc   y-rot acc   z-rot acc
    22626 -2.82052E-06-3.37126E-07-3.34600E-07-3.95028E-05-1.76787E-06-2.29072E-06-3.36360E-04-7.97719E-06-1.36337E-05



 n o d a l   p r i n t   o u t   f o r   t i m e  s t e p     601                              ( at time 2.9996998E-01 )

 nodal point  x-disp     y-disp      z-disp      x-vel       y-vel       z-vel      x-accl      y-accl      z-accl      x-coor      y-coor      z-coor
    22626  2.74047E-05 1.23918E-03-2.33772E-03 4.21226E-04 8.42524E-03-1.92406E-02 3.90668E-03 6.15056E-03-7.08769E-02 4.65940E+00-2.81896E+01-4.49841E+01



 n o d a l   p r i n t   o u t   f o r   t i m e  s t e p     601                              ( at time 2.9996998E-01 )

 nodal point  x-rot      y-rot       z-rot       x-rot vel   y-rot vel   z-rot vel   x-rot acc   y-rot acc   z-rot acc
    22626 -5.38995E-06-3.90337E-07-6.42060E-07-1.54903E-05-5.46736E-06-6.66743E-06 2.40150E-04-3.69986E-05-4.37715E-05



 n o d a l   p r i n t   o u t   f o r   t i m e  s t e p     801                              ( at time 3.9995997E-01 )

 nodal point  x-disp     y-disp      z-disp      x-vel       y-vel       z-vel      x-accl      y-accl      z-accl      x-coor      y-coor      z-coor
    22626  2.62592E-05 2.15602E-03-4.27970E-03-3.10682E-04 1.06460E-02-2.10544E-02-7.31981E-03 2.22102E-02-1.81395E-02 4.65940E+00-2.81887E+01-4.49860E+01



 n o d a l   p r i n t   o u t   f o r   t i m e  s t e p     801                              ( at time 3.9995997E-01 )

 nodal point  x-rot      y-rot       z-rot       x-rot vel   y-rot vel   z-rot vel   x-rot acc   y-rot acc   z-rot acc
    22626 -7.56880E-06-1.25293E-06-9.80234E-07-4.35092E-05-6.29791E-06-1.51109E-06-2.80217E-04-8.30635E-06 5.15686E-05



 n o d a l   p r i n t   o u t   f o r   t i m e  s t e p    1001                              ( at time 4.9994997E-01 )

 nodal point  x-disp     y-disp      z-disp      x-vel       y-vel       z-vel      x-accl      y-accl      z-accl      x-coor      y-coor      z-coor
    22626  3.78904E-06 3.41670E-03-6.73407E-03-2.51060E-04 1.39800E-02-2.85640E-02 5.96273E-04 3.33431E-02-7.51037E-02 4.65938E+00-2.81874E+01-4.49885E+01



 n o d a l   p r i n t   o u t   f o r   t i m e  s t e p    1001                              ( at time 4.9994997E-01 )

 nodal point  x-rot      y-rot       z-rot       x-rot vel   y-rot vel   z-rot vel   x-rot acc   y-rot acc   z-rot acc
    22626 -1.32003E-05-1.18556E-06-9.36126E-07-7.97861E-05 2.85489E-06 4.44506E-06-3.62806E-04 9.15371E-05 5.95674E-05



 n o d a l   p r i n t   o u t   f o r   t i m e  s t e p    1201                              ( at time 5.9993996E-01 )

 nodal point  x-disp     y-disp      z-disp      x-vel       y-vel       z-vel      x-accl      y-accl      z-accl      x-coor      y-coor      z-coor
    22626 -2.22636E-06 4.96562E-03-9.68761E-03 3.33187E-05 1.63065E-02-3.08237E-02 2.84407E-03 2.32668E-02-2.25995E-02 4.65937E+00-2.81859E+01-4.49914E+01



 n o d a l   p r i n t   o u t   f o r   t i m e  s t e p    1201                              ( at time 5.9993996E-01 )

 nodal point  x-rot      y-rot       z-rot       x-rot vel   y-rot vel   z-rot vel   x-rot acc   y-rot acc   z-rot acc
    22626 -1.93902E-05-9.38996E-07-9.02391E-07-5.22788E-05 3.46127E-06-1.76161E-06 2.75100E-04 6.06438E-06-6.20729E-05



 n o d a l   p r i n t   o u t   f o r   t i m e  s t e p    1401                              ( at time 6.9992995E-01 )

 nodal point  x-disp     y-disp      z-disp      x-vel       y-vel       z-vel      x-accl      y-accl      z-accl      x-coor      y-coor      z-coor
    22626 -5.21368E-05 6.76355E-03-1.31291E-02-4.76490E-04 1.92853E-02-3.88128E-02-5.09860E-03 2.97912E-02-7.98990E-02 4.65932E+00-2.81841E+01-4.49949E+01



 n o d a l   p r i n t   o u t   f o r   t i m e  s t e p    1401                              ( at time 6.9992995E-01 )

 nodal point  x-rot      y-rot       z-rot       x-rot vel   y-rot vel   z-rot vel   x-rot acc   y-rot acc   z-rot acc
    22626 -2.45082E-05-1.00273E-06-5.58941E-07-6.11052E-05-3.46256E-07 4.09642E-06-8.82720E-05-3.80790E-05 5.85862E-05



 n o d a l   p r i n t   o u t   f o r   t i m e  s t e p    1601                              ( at time 7.9991994E-01 )

 nodal point  x-disp     y-disp      z-disp      x-vel       y-vel       z-vel      x-accl      y-accl      z-accl      x-coor      y-coor      z-coor
    22626 -8.09031E-05 8.85108E-03-1.73936E-02-4.83359E-04 2.15525E-02-4.46820E-02-6.87001E-05 2.26740E-02-5.86976E-02 4.65929E+00-2.81820E+01-4.49991E+01



 n o d a l   p r i n t   o u t   f o r   t i m e  s t e p    1601                              ( at time 7.9991994E-01 )

 nodal point  x-rot      y-rot       z-rot       x-rot vel   y-rot vel   z-rot vel   x-rot acc   y-rot acc   z-rot acc
    22626 -3.14636E-05-1.07016E-06-3.87935E-07-7.64359E-05-5.64523E-06 2.21343E-06-1.53323E-04-5.29950E-05-1.88318E-05



 n o d a l   p r i n t   o u t   f o r   t i m e  s t e p    1801                              ( at time 8.9990994E-01 )

 nodal point  x-disp     y-disp      z-disp      x-vel       y-vel       z-vel      x-accl      y-accl      z-accl      x-coor      y-coor      z-coor
    22626 -1.16244E-04 1.10414E-02-2.18685E-02-2.91056E-04 2.31228E-02-4.50388E-02 1.92323E-03 1.57053E-02-3.56874E-03 4.65926E+00-2.81798E+01-4.50036E+01



 n o d a l   p r i n t   o u t   f o r   t i m e  s t e p    1801                              ( at time 8.9990994E-01 )

 nodal point  x-rot      y-rot       z-rot       x-rot vel   y-rot vel   z-rot vel   x-rot acc   y-rot acc   z-rot acc
    22626 -3.79990E-05-1.22226E-06-3.21094E-07-6.05969E-05 8.59521E-07 3.70645E-08 1.58407E-04 6.50540E-05-2.17658E-05



 n o d a l   p r i n t   o u t   f o r   t i m e  s t e p    2001                              ( at time 9.9989993E-01 )

 nodal point  x-disp     y-disp      z-disp      x-vel       y-vel       z-vel      x-accl      y-accl      z-accl      x-coor      y-coor      z-coor
    22626 -1.48680E-04 1.34759E-02-2.65508E-02 1.34137E-05 2.53997E-02-4.93865E-02 3.04500E-03 2.27712E-02-4.34810E-02 4.65923E+00-2.81774E+01-4.50083E+01



 n o d a l   p r i n t   o u t   f o r   t i m e  s t e p    2001                              ( at time 9.9989993E-01 )

 nodal point  x-rot      y-rot       z-rot       x-rot vel   y-rot vel   z-rot vel   x-rot acc   y-rot acc   z-rot acc
    22626 -4.46063E-05-1.31886E-06-1.75145E-07-7.93133E-05-6.10448E-07-2.49038E-06-1.87183E-04-1.47012E-05-2.52770E-05



 n o d a l   p r i n t   o u t   f o r   t i m e  s t e p    2201                              ( at time 1.0998899E+00 )

 nodal point  x-disp     y-disp      z-disp      x-vel       y-vel       z-vel      x-accl      y-accl      z-accl      x-coor      y-coor      z-coor
    22626 -1.55804E-04 1.60973E-02-3.18062E-02-3.37725E-04 2.75610E-02-5.53484E-02-3.51174E-03 2.16145E-02-5.96247E-02 4.65922E+00-2.81747E+01-4.50135E+01



 n o d a l   p r i n t   o u t   f o r   t i m e  s t e p    2201                              ( at time 1.0998899E+00 )

 nodal point  x-rot      y-rot       z-rot       x-rot vel   y-rot vel   z-rot vel   x-rot acc   y-rot acc   z-rot acc
    22626 -5.26179E-05-1.63200E-06-3.87627E-07-6.82547E-05-9.49624E-06-8.01960E-07 1.10597E-04-8.88669E-05 1.68859E-05



 n o d a l   p r i n t   o u t   f o r   t i m e  s t e p    2401                              ( at time 1.1998799E+00 )

 nodal point  x-disp     y-disp      z-disp      x-vel       y-vel       z-vel      x-accl      y-accl      z-accl      x-coor      y-coor      z-coor
    22626 -1.83220E-04 1.88975E-02-3.75983E-02-1.75025E-04 2.86755E-02-6.01499E-02 1.62716E-03 1.11460E-02-4.80200E-02 4.65919E+00-2.81719E+01-4.50193E+01



 n o d a l   p r i n t   o u t   f o r   t i m e  s t e p    2401                              ( at time 1.1998799E+00 )

 nodal point  x-rot      y-rot       z-rot       x-rot vel   y-rot vel   z-rot vel   x-rot acc   y-rot acc   z-rot acc
    22626 -5.87552E-05-2.44899E-06-5.10805E-07-5.91027E-05-9.38301E-06-1.83512E-06 9.15286E-05 1.13245E-06-1.03326E-05



 n o d a l   p r i n t   o u t   f o r   t i m e  s t e p    2601                              ( at time 1.2998699E+00 )

 nodal point  x-disp     y-disp      z-disp      x-vel       y-vel       z-vel      x-accl      y-accl      z-accl      x-coor      y-coor      z-coor
    22626 -2.11848E-04 2.18731E-02-4.37515E-02-1.88535E-04 3.06834E-02-6.27409E-02-1.35115E-04 2.00820E-02-2.59126E-02 4.65916E+00-2.81690E+01-4.50255E+01



 n o d a l   p r i n t   o u t   f o r   t i m e  s t e p    2601                              ( at time 1.2998699E+00 )

 nodal point  x-rot      y-rot       z-rot       x-rot vel   y-rot vel   z-rot vel   x-rot acc   y-rot acc   z-rot acc
    22626 -6.51286E-05-3.20898E-06-6.64809E-07-7.85656E-05-2.48495E-06-2.65433E-07-1.94648E-04 6.89875E-05 1.56984E-05



 n o d a l   p r i n t   o u t   f o r   t i m e  s t e p    2801                              ( at time 1.3998599E+00 )

 nodal point  x-disp     y-disp      z-disp      x-vel       y-vel       z-vel      x-accl      y-accl      z-accl      x-coor      y-coor      z-coor
    22626 -2.35325E-04 2.50394E-02-5.01205E-02-3.88157E-04 3.23822E-02-6.53032E-02-1.99642E-03 1.69895E-02-2.56260E-02 4.65914E+00-2.81658E+01-4.50318E+01



 n o d a l   p r i n t   o u t   f o r   t i m e  s t e p    2801                              ( at time 1.3998599E+00 )

 nodal point  x-rot      y-rot       z-rot       x-rot vel   y-rot vel   z-rot vel   x-rot acc   y-rot acc   z-rot acc
    22626 -7.29890E-05-3.38955E-06-5.79106E-07-7.72396E-05-3.80632E-06 3.43692E-06 1.32610E-05-1.32150E-05 3.70273E-05



 n o d a l   p r i n t   o u t   f o r   t i m e  s t e p    3001                              ( at time 1.4998499E+00 )

 nodal point  x-disp     y-disp      z-disp      x-vel       y-vel       z-vel      x-accl      y-accl      z-accl      x-coor      y-coor      z-coor
    22626 -2.75664E-04 2.84146E-02-5.69943E-02-4.06090E-04 3.49535E-02-7.25268E-02-1.79340E-04 2.57153E-02-7.22432E-02 4.65910E+00-2.81624E+01-4.50387E+01



 n o d a l   p r i n t   o u t   f o r   t i m e  s t e p    3001                              ( at time 1.4998499E+00 )

 nodal point  x-rot      y-rot       z-rot       x-rot vel   y-rot vel   z-rot vel   x-rot acc   y-rot acc   z-rot acc
    22626 -7.99573E-05-3.79866E-06-3.31536E-07-6.09829E-05-5.19682E-06-2.40440E-07 1.62584E-04-1.39065E-05-3.67773E-05



 n o d a l   p r i n t   o u t   f o r   t i m e  s t e p    3201                              ( at time 1.5998399E+00 )

 nodal point  x-disp     y-disp      z-disp      x-vel       y-vel       z-vel      x-accl      y-accl      z-accl      x-coor      y-coor      z-coor
    22626 -3.31840E-04 3.20762E-02-6.45498E-02-5.08175E-04 3.80969E-02-7.77779E-02-1.02096E-03 3.14373E-02-5.25163E-02 4.65904E+00-2.81588E+01-4.50463E+01



 n o d a l   p r i n t   o u t   f o r   t i m e  s t e p    3201                              ( at time 1.5998399E+00 )

 nodal point  x-rot      y-rot       z-rot       x-rot vel   y-rot vel   z-rot vel   x-rot acc   y-rot acc   z-rot acc
    22626 -8.54133E-05-4.31916E-06-9.24220E-09-5.86492E-05-6.64617E-06 4.89409E-06 2.33389E-05-1.44949E-05 5.13504E-05



 n o d a l   p r i n t   o u t   f o r   t i m e  s t e p    3401                              ( at time 1.6998299E+00 )

 nodal point  x-disp     y-disp      z-disp      x-vel       y-vel       z-vel      x-accl      y-accl      z-accl      x-coor      y-coor      z-coor
    22626 -3.84526E-04 3.59647E-02-7.24847E-02-6.34454E-04 3.94936E-02-8.05397E-02-1.26291E-03 1.39681E-02-2.76201E-02 4.65899E+00-2.81549E+01-4.50542E+01



 n o d a l   p r i n t   o u t   f o r   t i m e  s t e p    3401                              ( at time 1.6998299E+00 )

 nodal point  x-rot      y-rot       z-rot       x-rot vel   y-rot vel   z-rot vel   x-rot acc   y-rot acc   z-rot acc
    22626 -9.16905E-05-4.72647E-06 3.91892E-07-6.42419E-05-2.84546E-06 6.27368E-06-5.59327E-05 3.80109E-05 1.37972E-05



 n o d a l   p r i n t   o u t   f o r   t i m e  s t e p    3601                              ( at time 1.7998199E+00 )

 nodal point  x-disp     y-disp      z-disp      x-vel       y-vel       z-vel      x-accl      y-accl      z-accl      x-coor      y-coor      z-coor
    22626 -4.40661E-04 3.99501E-02-8.06541E-02-4.55612E-04 4.06389E-02-8.27332E-02 1.78860E-03 1.14538E-02-2.19380E-02 4.65893E+00-2.81509E+01-4.50624E+01



 n o d a l   p r i n t   o u t   f o r   t i m e  s t e p    3601                              ( at time 1.7998199E+00 )

 nodal point  x-rot      y-rot       z-rot       x-rot vel   y-rot vel   z-rot vel   x-rot acc   y-rot acc   z-rot acc
    22626 -9.82951E-05-5.17898E-06 7.53322E-07-6.18195E-05-4.79692E-06 1.06145E-06 2.42269E-05-1.95166E-05-5.21275E-05



 n o d a l   p r i n t   o u t   f o r   t i m e  s t e p    3801                              ( at time 1.8998099E+00 )

 nodal point  x-disp     y-disp      z-disp      x-vel       y-vel       z-vel      x-accl      y-accl      z-accl      x-coor      y-coor      z-coor
    22626 -4.89062E-04 4.41674E-02-8.91044E-02-3.67061E-04 4.35189E-02-8.65132E-02 8.85591E-04 2.88029E-02-3.78030E-02 4.65889E+00-2.81467E+01-4.50708E+01



 n o d a l   p r i n t   o u t   f o r   t i m e  s t e p    3801                              ( at time 1.8998099E+00 )

 nodal point  x-rot      y-rot       z-rot       x-rot vel   y-rot vel   z-rot vel   x-rot acc   y-rot acc   z-rot acc
    22626 -1.04115E-04-5.64584E-06 1.11740E-06-5.74590E-05-8.47076E-06 1.71300E-06 4.36090E-05-3.67421E-05 6.51611E-06



 n o d a l   p r i n t   o u t   f o r   t i m e  s t e p    4001                              ( at time 1.9997999E+00 )

 nodal point  x-disp     y-disp      z-disp      x-vel       y-vel       z-vel      x-accl      y-accl      z-accl      x-coor      y-coor      z-coor
    22626 -5.24338E-04 4.85690E-02-9.79634E-02-4.19950E-04 4.47405E-02-9.04259E-02-5.28938E-04 1.22179E-02-3.91310E-02 4.65885E+00-2.81423E+01-4.50797E+01



 n o d a l   p r i n t   o u t   f o r   t i m e  s t e p    4001                              ( at time 1.9997999E+00 )

 nodal point  x-rot      y-rot       z-rot       x-rot vel   y-rot vel   z-rot vel   x-rot acc   y-rot acc   z-rot acc
    22626 -1.09642E-04-6.60046E-06 1.31605E-06-5.71265E-05-1.22967E-05 2.44575E-06 3.32483E-06-3.82632E-05 7.32832E-06



 n o d a l   p r i n t   o u t   f o r   t i m e  s t e p    4201                              ( at time 2.0997899E+00 )

 nodal point  x-disp     y-disp      z-disp      x-vel       y-vel       z-vel      x-accl      y-accl      z-accl      x-coor      y-coor      z-coor
    22626 -5.64782E-04 5.30971E-02-1.07096E-01-4.12927E-04 4.60445E-02-9.22662E-02 7.02410E-05 1.30406E-02-1.84051E-02 4.65881E+00-2.81377E+01-4.50888E+01



 n o d a l   p r i n t   o u t   f o r   t i m e  s t e p    4201                              ( at time 2.0997899E+00 )

 nodal point  x-rot      y-rot       z-rot       x-rot vel   y-rot vel   z-rot vel   x-rot acc   y-rot acc   z-rot acc
    22626 -1.14926E-04-7.88766E-06 1.49730E-06-4.97057E-05-1.24356E-05 6.02134E-06 7.42159E-05-1.38896E-06 3.57594E-05



 n o d a l   p r i n t   o u t   f o r   t i m e  s t e p    4401                              ( at time 2.1997798E+00 )

 nodal point  x-disp     y-disp      z-disp      x-vel       y-vel       z-vel      x-accl      y-accl      z-accl      x-coor      y-coor      z-coor
    22626 -6.06837E-04 5.77864E-02-1.16371E-01-2.89073E-04 4.75150E-02-9.31919E-02 1.23866E-03 1.47071E-02-9.25813E-03 4.65877E+00-2.81330E+01-4.50981E+01



 n o d a l   p r i n t   o u t   f o r   t i m e  s t e p    4401                              ( at time 2.1997798E+00 )

 nodal point  x-rot      y-rot       z-rot       x-rot vel   y-rot vel   z-rot vel   x-rot acc   y-rot acc   z-rot acc
    22626 -1.20221E-04-9.13093E-06 1.95477E-06-5.73373E-05-1.30376E-05 4.36503E-06-7.63240E-05-6.02072E-06-1.65647E-05



 n o d a l   p r i n t   o u t   f o r   t i m e  s t e p    4601                              ( at time 2.2997698E+00 )

 nodal point  x-disp     y-disp      z-disp      x-vel       y-vel       z-vel      x-accl      y-accl      z-accl      x-coor      y-coor      z-coor
    22626 -6.33883E-04 6.25945E-02-1.25736E-01-3.03621E-04 4.90552E-02-9.46225E-02-1.45497E-04 1.54031E-02-1.43077E-02 4.65874E+00-2.81282E+01-4.51075E+01



 n o d a l   p r i n t   o u t   f o r   t i m e  s t e p    4601                              ( at time 2.2997698E+00 )

 nodal point  x-rot      y-rot       z-rot       x-rot vel   y-rot vel   z-rot vel   x-rot acc   y-rot acc   z-rot acc
    22626 -1.26462E-04-1.03073E-05 2.60857E-06-5.75142E-05-1.28751E-05 8.04510E-06-1.76871E-06 1.62474E-06 3.68043E-05



 n o d a l   p r i n t   o u t   f o r   t i m e  s t e p    4801                              ( at time 2.3997598E+00 )

 nodal point  x-disp     y-disp      z-disp      x-vel       y-vel       z-vel      x-accl      y-accl      z-accl      x-coor      y-coor      z-coor
    22626 -6.71427E-04 6.76529E-02-1.35402E-01-4.17387E-04 5.19147E-02-9.87621E-02-1.13777E-03 2.85977E-02-4.13992E-02 4.65870E+00-2.81232E+01-4.51171E+01



 n o d a l   p r i n t   o u t   f o r   t i m e  s t e p    4801                              ( at time 2.3997598E+00 )

 nodal point  x-rot      y-rot       z-rot       x-rot vel   y-rot vel   z-rot vel   x-rot acc   y-rot acc   z-rot acc
    22626 -1.32122E-04-1.18133E-05 3.90676E-06-5.83731E-05-1.67349E-05 1.63559E-05-8.59017E-06-3.86011E-05 8.31163E-05



 n o d a l   p r i n t   o u t   f o r   t i m e  s t e p    5001                              ( at time 2.4997498E+00 )

 nodal point  x-disp     y-disp      z-disp      x-vel       y-vel       z-vel      x-accl      y-accl      z-accl      x-coor      y-coor      z-coor
    22626 -7.13215E-04 7.29946E-02-1.45402E-01-4.67486E-04 5.44221E-02-1.00455E-01-5.01038E-04 2.50767E-02-1.69345E-02 4.65866E+00-2.81178E+01-4.51271E+01



 n o d a l   p r i n t   o u t   f o r   t i m e  s t e p    5001                              ( at time 2.4997498E+00 )

 nodal point  x-rot      y-rot       z-rot       x-rot vel   y-rot vel   z-rot vel   x-rot acc   y-rot acc   z-rot acc
    22626 -1.37956E-04-1.33762E-05 5.62936E-06-5.78115E-05-1.40668E-05 2.08462E-05 5.61647E-06 2.66836E-05 4.49077E-05



 n o d a l   p r i n t   o u t   f o r   t i m e  s t e p    5201                              ( at time 2.5997398E+00 )

 nodal point  x-disp     y-disp      z-disp      x-vel       y-vel       z-vel      x-accl      y-accl      z-accl      x-coor      y-coor      z-coor
    22626 -7.44973E-04 7.85208E-02-1.55425E-01-2.45012E-04 5.62236E-02-9.99613E-02 2.22497E-03 1.80166E-02 4.94076E-03 4.65863E+00-2.81123E+01-4.51371E+01



 n o d a l   p r i n t   o u t   f o r   t i m e  s t e p    5201                              ( at time 2.5997398E+00 )

 nodal point  x-rot      y-rot       z-rot       x-rot vel   y-rot vel   z-rot vel   x-rot acc   y-rot acc   z-rot acc
    22626 -1.43963E-04-1.47612E-05 8.06759E-06-5.84709E-05-1.23199E-05 2.96553E-05-6.59454E-06 1.74702E-05 8.80997E-05



 n o d a l   p r i n t   o u t   f o r   t i m e  s t e p    5401                              ( at time 2.6997298E+00 )

 nodal point  x-disp     y-disp      z-disp      x-vel       y-vel       z-vel      x-accl      y-accl      z-accl      x-coor      y-coor      z-coor
    22626 -7.62215E-04 8.42521E-02-1.65423E-01 8.95374E-05 5.88669E-02-1.00208E-01 3.34582E-03 2.64361E-02-2.46870E-03 4.65861E+00-2.81066E+01-4.51471E+01



 n o d a l   p r i n t   o u t   f o r   t i m e  s t e p    5401                              ( at time 2.6997298E+00 )

 nodal point  x-rot      y-rot       z-rot       x-rot vel   y-rot vel   z-rot vel   x-rot acc   y-rot acc   z-rot acc
    22626 -1.50976E-04-1.63478E-05 1.16749E-05-7.95381E-05-1.73145E-05 3.93049E-05-2.10692E-04-4.99511E-05 9.65059E-05



 n o d a l   p r i n t   o u t   f o r   t i m e  s t e p    5601                              ( at time 2.7997198E+00 )

 nodal point  x-disp     y-disp      z-disp      x-vel       y-vel       z-vel      x-accl      y-accl      z-accl      x-coor      y-coor      z-coor
    22626 -7.45148E-04 9.03207E-02-1.75482E-01 1.00066E-04 6.24947E-02-1.01300E-01 1.05295E-04 3.62817E-02-1.09178E-02 4.65863E+00-2.81005E+01-4.51572E+01



 n o d a l   p r i n t   o u t   f o r   t i m e  s t e p    5601                              ( at time 2.7997198E+00 )

 nodal point  x-rot      y-rot       z-rot       x-rot vel   y-rot vel   z-rot vel   x-rot acc   y-rot acc   z-rot acc
    22626 -1.58465E-04-1.82865E-05 1.58629E-05-6.61648E-05-2.38045E-05 4.73780E-05 1.33746E-04-6.49061E-05 8.07389E-05



 n o d a l   p r i n t   o u t   f o r   t i m e  s t e p    5801                              ( at time 2.8997098E+00 )

 nodal point  x-disp     y-disp      z-disp      x-vel       y-vel       z-vel      x-accl      y-accl      z-accl      x-coor      y-coor      z-coor
    22626 -7.14696E-04 9.67813E-02-1.85747E-01 5.30698E-04 6.70090E-02-1.04037E-01 4.30675E-03 4.51475E-02-2.73702E-02 4.65866E+00-2.80940E+01-4.51675E+01



 n o d a l   p r i n t   o u t   f o r   t i m e  s t e p    5801                              ( at time 2.8997098E+00 )

 nodal point  x-rot      y-rot       z-rot       x-rot vel   y-rot vel   z-rot vel   x-rot acc   y-rot acc   z-rot acc
    22626 -1.64958E-04-2.07189E-05 2.08501E-05-6.93086E-05-2.58752E-05 5.41457E-05-3.14408E-05-2.07093E-05 6.76835E-05



 n o d a l   p r i n t   o u t   f o r   t i m e  s t e p    6001                              ( at time 2.9996998E+00 )

 nodal point  x-disp     y-disp      z-disp      x-vel       y-vel       z-vel      x-accl      y-accl      z-accl      x-coor      y-coor      z-coor
    22626 -6.56806E-04 1.03699E-01-1.96193E-01 9.44378E-04 7.12925E-02-1.04183E-01 4.13721E-03 4.28388E-02-1.46679E-03 4.65872E+00-2.80871E+01-4.51779E+01



 n o d a l   p r i n t   o u t   f o r   t i m e  s t e p    6001                              ( at time 2.9996998E+00 )

 nodal point  x-rot      y-rot       z-rot       x-rot vel   y-rot vel   z-rot vel   x-rot acc   y-rot acc   z-rot acc
    22626 -1.72861E-04-2.36517E-05 2.68537E-05-8.48087E-05-3.59626E-05 6.70075E-05-1.55016E-04-1.00884E-04 1.28631E-04



 n o d a l   p r i n t   o u t   f o r   t i m e  s t e p    6201                              ( at time 3.0996898E+00 )

 nodal point  x-disp     y-disp      z-disp      x-vel       y-vel       z-vel      x-accl      y-accl      z-accl      x-coor      y-coor      z-coor
    22626 -5.92187E-04 1.11130E-01-2.06636E-01 6.09282E-04 7.79304E-02-1.05270E-01-3.35130E-03 6.63862E-02-1.08640E-02 4.65878E+00-2.80797E+01-4.51884E+01



 n o d a l   p r i n t   o u t   f o r   t i m e  s t e p    6201                              ( at time 3.0996898E+00 )

 nodal point  x-rot      y-rot       z-rot       x-rot vel   y-rot vel   z-rot vel   x-rot acc   y-rot acc   z-rot acc
    22626 -1.82753E-04-2.74406E-05 3.43374E-05-1.16606E-04-3.97744E-05 8.03168E-05-3.18005E-04-3.81218E-05 1.33107E-04



 n o d a l   p r i n t   o u t   f o r   t i m e  s t e p    6401                              ( at time 3.1996798E+00 )

 nodal point  x-disp     y-disp      z-disp      x-vel       y-vel       z-vel      x-accl      y-accl      z-accl      x-coor      y-coor      z-coor
    22626 -5.23678E-04 1.19252E-01-2.17285E-01 6.09668E-04 8.49251E-02-1.07893E-01 3.86537E-06 6.99538E-02-2.62359E-02 4.65885E+00-2.80716E+01-4.51990E+01



 n o d a l   p r i n t   o u t   f o r   t i m e  s t e p    6401                              ( at time 3.1996798E+00 )

 nodal point  x-rot      y-rot       z-rot       x-rot vel   y-rot vel   z-rot vel   x-rot acc   y-rot acc   z-rot acc
    22626 -1.93955E-04-3.13104E-05 4.27203E-05-1.13910E-04-4.01828E-05 8.87059E-05 2.69596E-05-4.08425E-06 8.38987E-05



 n o d a l   p r i n t   o u t   f o r   t i m e  s t e p    6601                              ( at time 3.2996698E+00 )

 nodal point  x-disp     y-disp      z-disp      x-vel       y-vel       z-vel      x-accl      y-accl      z-accl      x-coor      y-coor      z-coor
    22626 -4.82585E-04 1.28152E-01-2.28265E-01 1.29153E-04 9.32769E-02-1.11621E-01-4.80564E-03 8.35261E-02-3.72833E-02 4.65889E+00-2.80627E+01-4.52100E+01



 n o d a l   p r i n t   o u t   f o r   t i m e  s t e p    6601                              ( at time 3.2996698E+00 )

 nodal point  x-rot      y-rot       z-rot       x-rot vel   y-rot vel   z-rot vel   x-rot acc   y-rot acc   z-rot acc
    22626 -2.07262E-04-3.56947E-05 5.26586E-05-1.62601E-04-4.40111E-05 1.12279E-04-4.86959E-04-3.82866E-05 2.35757E-04



 n o d a l   p r i n t   o u t   f o r   t i m e  s t e p    6801                              ( at time 3.3996598E+00 )

 nodal point  x-disp     y-disp      z-disp      x-vel       y-vel       z-vel      x-accl      y-accl      z-accl      x-coor      y-coor      z-coor
    22626 -4.22706E-04 1.37911E-01-2.39461E-01 9.45179E-04 1.02022E-01-1.11795E-01 8.16107E-03 8.74618E-02-1.73921E-03 4.65895E+00-2.80529E+01-4.52212E+01



 n o d a l   p r i n t   o u t   f o r   t i m e  s t e p    6801                              ( at time 3.3996598E+00 )

 nodal point  x-rot      y-rot       z-rot       x-rot vel   y-rot vel   z-rot vel   x-rot acc   y-rot acc   z-rot acc
    22626 -2.24991E-04-4.03683E-05 6.42269E-05-1.88179E-04-3.96885E-05 1.19660E-04-2.55799E-04 4.32299E-05 7.38192E-05



 n o d a l   p r i n t   o u t   f o r   t i m e  s t e p    7001                              ( at time 3.4996498E+00 )

 nodal point  x-disp     y-disp      z-disp      x-vel       y-vel       z-vel      x-accl      y-accl      z-accl      x-coor      y-coor      z-coor
    22626 -3.70205E-04 1.48599E-01-2.50681E-01 5.99503E-04 1.11981E-01-1.11942E-01-3.45711E-03 9.96018E-02-1.47007E-03 4.65900E+00-2.80422E+01-4.52324E+01



 n o d a l   p r i n t   o u t   f o r   t i m e  s t e p    7001                              ( at time 3.4996498E+00 )

 nodal point  x-rot      y-rot       z-rot       x-rot vel   y-rot vel   z-rot vel   x-rot acc   y-rot acc   z-rot acc
    22626 -2.47288E-04-4.47650E-05 7.82032E-05-2.49931E-04-4.76841E-05 1.50733E-04-6.17585E-04-7.99638E-05 3.10753E-04



 n o d a l   p r i n t   o u t   f o r   t i m e  s t e p    7201                              ( at time 3.5996397E+00 )

 nodal point  x-disp     y-disp      z-disp      x-vel       y-vel       z-vel      x-accl      y-accl      z-accl      x-coor      y-coor      z-coor
    22626 -2.85592E-04 1.60223E-01-2.61832E-01-4.68321E-04 1.21233E-01-1.12010E-01-1.06793E-02 9.25274E-02-6.82319E-04 4.65909E+00-2.80306E+01-4.52436E+01



 n o d a l   p r i n t   o u t   f o r   t i m e  s t e p    7201                              ( at time 3.5996397E+00 )

 nodal point  x-rot      y-rot       z-rot       x-rot vel   y-rot vel   z-rot vel   x-rot acc   y-rot acc   z-rot acc
    22626 -2.76058E-04-4.80016E-05 9.33676E-05-3.33485E-04-3.49229E-05 1.68324E-04-8.35622E-04 1.27625E-04 1.75931E-04



 n o d a l   p r i n t   o u t   f o r   t i m e  s t e p    7401                              ( at time 3.6996297E+00 )

 nodal point  x-disp     y-disp      z-disp      x-vel       y-vel       z-vel      x-accl      y-accl      z-accl      x-coor      y-coor      z-coor
    22626 -2.21676E-04 1.72982E-01-2.73003E-01 1.61332E-03 1.32818E-01-1.10718E-01 2.08185E-02 1.15855E-01 1.29173E-02 4.65915E+00-2.80178E+01-4.52547E+01



 n o d a l   p r i n t   o u t   f o r   t i m e  s t e p    7401                              ( at time 3.6996297E+00 )

 nodal point  x-rot      y-rot       z-rot       x-rot vel   y-rot vel   z-rot vel   x-rot acc   y-rot acc   z-rot acc
    22626 -3.11631E-04-5.15741E-05 1.10508E-04-3.67290E-04-2.68869E-05 1.80189E-04-3.38086E-04 8.03676E-05 1.18664E-04



 n o d a l   p r i n t   o u t   f o r   t i m e  s t e p    7601                              ( at time 3.7996197E+00 )

 nodal point  x-disp     y-disp      z-disp      x-vel       y-vel       z-vel      x-accl      y-accl      z-accl      x-coor      y-coor      z-coor
    22626 -1.36432E-04 1.86791E-01-2.84117E-01 2.25941E-03 1.44413E-01-1.10692E-01 6.46153E-03 1.15969E-01 2.64299E-04 4.65924E+00-2.80040E+01-4.52658E+01



 n o d a l   p r i n t   o u t   f o r   t i m e  s t e p    7601                              ( at time 3.7996197E+00 )

 nodal point  x-rot      y-rot       z-rot       x-rot vel   y-rot vel   z-rot vel   x-rot acc   y-rot acc   z-rot acc
    22626 -3.55324E-04-5.53886E-05 1.29843E-04-4.93284E-04-2.54258E-05 1.83874E-04-1.26007E-03 1.46122E-05 3.68516E-05



 n o d a l   p r i n t   o u t   f o r   t i m e  s t e p    7801                              ( at time 3.8996097E+00 )

 nodal point  x-disp     y-disp      z-disp      x-vel       y-vel       z-vel      x-accl      y-accl      z-accl      x-coor      y-coor      z-coor
    22626  7.08381E-05 2.01782E-01-2.95062E-01 4.44126E-04 1.54901E-01-1.08020E-01-1.81546E-02 1.04892E-01 2.67205E-02 4.65945E+00-2.79890E+01-4.52768E+01



 n o d a l   p r i n t   o u t   f o r   t i m e  s t e p    7801                              ( at time 3.8996097E+00 )

 nodal point  x-rot      y-rot       z-rot       x-rot vel   y-rot vel   z-rot vel   x-rot acc   y-rot acc   z-rot acc
    22626 -4.10492E-04-5.85558E-05 1.49123E-04-6.02043E-04-5.56452E-05 2.23064E-04-1.08770E-03-3.02224E-04 3.91939E-04



 n o d a l   p r i n t   o u t   f o r   t i m e  s t e p    8001                              ( at time 3.9995997E+00 )

 nodal point  x-disp     y-disp      z-disp      x-vel       y-vel       z-vel      x-accl      y-accl      z-accl      x-coor      y-coor      z-coor
    22626  3.38849E-04 2.17962E-01-3.05640E-01 2.05073E-03 1.67555E-01-1.04315E-01 1.60677E-02 1.26544E-01 3.70597E-02 4.65971E+00-2.79729E+01-4.52874E+01



 n o d a l   p r i n t   o u t   f o r   t i m e  s t e p    8001                              ( at time 3.9995997E+00 )

 nodal point  x-rot      y-rot       z-rot       x-rot vel   y-rot vel   z-rot vel   x-rot acc   y-rot acc   z-rot acc
    22626 -4.76765E-04-6.17515E-05 1.67630E-04-7.18320E-04-3.17657E-05 1.91438E-04-1.16289E-03 2.38820E-04-3.16294E-04



 n o d a l   p r i n t   o u t   f o r   t i m e  s t e p    8201                              ( at time 4.0995897E+00 )

 nodal point  x-disp     y-disp      z-disp      x-vel       y-vel       z-vel      x-accl      y-accl      z-accl      x-coor      y-coor      z-coor
    22626  5.14940E-04 2.35494E-01-3.15966E-01 5.41775E-03 1.82268E-01-1.03479E-01 3.36735E-02 1.47150E-01 8.35419E-03 4.65989E+00-2.79553E+01-4.52977E+01



 n o d a l   p r i n t   o u t   f o r   t i m e  s t e p    8201                              ( at time 4.0995897E+00 )

 nodal point  x-rot      y-rot       z-rot       x-rot vel   y-rot vel   z-rot vel   x-rot acc   y-rot acc   z-rot acc
    22626 -5.54529E-04-6.49413E-05 1.89218E-04-8.43249E-04-1.23097E-05 1.94251E-04-1.24941E-03 1.94579E-04 2.81357E-05



 n o d a l   p r i n t   o u t   f o r   t i m e  s t e p    8401                              ( at time 4.1995797E+00 )

 nodal point  x-disp     y-disp      z-disp      x-vel       y-vel       z-vel      x-accl      y-accl      z-accl      x-coor      y-coor      z-coor
    22626  7.66246E-04 2.54440E-01-3.26120E-01 1.05613E-04 1.97254E-01-9.99735E-02-5.31267E-02 1.49876E-01 3.50601E-02 4.66014E+00-2.79364E+01-4.53078E+01



 n o d a l   p r i n t   o u t   f o r   t i m e  s t e p    8401                              ( at time 4.1995797E+00 )

 nodal point  x-rot      y-rot       z-rot       x-rot vel   y-rot vel   z-rot vel   x-rot acc   y-rot acc   z-rot acc
    22626 -6.43463E-04-6.75009E-05 2.10898E-04-9.53890E-04-1.97912E-05 2.31193E-04-1.10652E-03-7.48233E-05 3.69458E-04



 n o d a l   p r i n t   o u t   f o r   t i m e  s t e p    8601                              ( at time 4.2995697E+00 )

 nodal point  x-disp     y-disp      z-disp      x-vel       y-vel       z-vel      x-accl      y-accl      z-accl      x-coor      y-coor      z-coor
    22626  1.10118E-03 2.74893E-01-3.35892E-01 7.83977E-04 2.11057E-01-9.57562E-02 6.78433E-03 1.38041E-01 4.21772E-02 4.66048E+00-2.79159E+01-4.53176E+01



 n o d a l   p r i n t   o u t   f o r   t i m e  s t e p    8601                              ( at time 4.2995697E+00 )

 nodal point  x-rot      y-rot       z-rot       x-rot vel   y-rot vel   z-rot vel   x-rot acc   y-rot acc   z-rot acc
    22626 -7.47347E-04-6.86416E-05 2.30383E-04-1.12189E-03-1.62604E-05 2.17022E-04-1.68019E-03 3.53119E-05-1.41726E-04



 n o d a l   p r i n t   o u t   f o r   t i m e  s t e p    8801                              ( at time 4.3995597E+00 )

 nodal point  x-disp     y-disp      z-disp      x-vel       y-vel       z-vel      x-accl      y-accl      z-accl      x-coor      y-coor      z-coor
    22626  1.29040E-03 2.96990E-01-3.45178E-01 6.33779E-03 2.28049E-01-8.98838E-02 5.55437E-02 1.69940E-01 5.87298E-02 4.66067E+00-2.78938E+01-4.53269E+01



 n o d a l   p r i n t   o u t   f o r   t i m e  s t e p    8801                              ( at time 4.3995597E+00 )

 nodal point  x-rot      y-rot       z-rot       x-rot vel   y-rot vel   z-rot vel   x-rot acc   y-rot acc   z-rot acc
    22626 -8.68060E-04-7.02693E-05 2.52979E-04-1.27010E-03 1.32018E-05 1.73360E-04-1.48226E-03 2.94651E-04-4.36661E-04



 n o d a l   p r i n t   o u t   f o r   t i m e  s t e p    9001                              ( at time 4.4995497E+00 )

 nodal point  x-disp     y-disp      z-disp      x-vel       y-vel       z-vel      x-accl      y-accl      z-accl      x-coor      y-coor      z-coor
    22626  1.51939E-03 3.20483E-01-3.53939E-01 3.04121E-03 2.44600E-01-8.62104E-02-3.29690E-02 1.65522E-01 3.67380E-02 4.66089E+00-2.78703E+01-4.53357E+01



 n o d a l   p r i n t   o u t   f o r   t i m e  s t e p    9001                              ( at time 4.4995497E+00 )

 nodal point  x-rot      y-rot       z-rot       x-rot vel   y-rot vel   z-rot vel   x-rot acc   y-rot acc   z-rot acc
    22626 -1.00241E-03-7.16870E-05 2.76215E-04-1.40534E-03-1.74535E-05 2.39523E-04-1.35249E-03-3.06583E-04 6.61692E-04



 n o d a l   p r i n t   o u t   f o r   t i m e  s t e p    9201                              ( at time 4.5995397E+00 )

 nodal point  x-disp     y-disp      z-disp      x-vel       y-vel       z-vel      x-accl      y-accl      z-accl      x-coor      y-coor      z-coor
    22626  1.98058E-03 3.45782E-01-3.62392E-01 1.70134E-03 2.59734E-01-8.22282E-02-1.34000E-02 1.51358E-01 3.98266E-02 4.66136E+00-2.78450E+01-4.53441E+01



 n o d a l   p r i n t   o u t   f o r   t i m e  s t e p    9201                              ( at time 4.5995397E+00 )

 nodal point  x-rot      y-rot       z-rot       x-rot vel   y-rot vel   z-rot vel   x-rot acc   y-rot acc   z-rot acc
    22626 -1.15200E-03-7.13048E-05 2.95619E-04-1.57280E-03-2.00064E-05 2.19820E-04-1.67475E-03-2.55310E-05-1.97047E-04



 n o d a l   p r i n t   o u t   f o r   t i m e  s t e p    9401                              ( at time 4.6995297E+00 )

 nodal point  x-disp     y-disp      z-disp      x-vel       y-vel       z-vel      x-accl      y-accl      z-accl      x-coor      y-coor      z-coor
    22626  2.40479E-03 3.72748E-01-3.70299E-01 6.28765E-03 2.77658E-01-7.54229E-02 4.58678E-02 1.79255E-01 6.80592E-02 4.66178E+00-2.78181E+01-4.53520E+01



 n o d a l   p r i n t   o u t   f o r   t i m e  s t e p    9401                              ( at time 4.6995297E+00 )

 nodal point  x-rot      y-rot       z-rot       x-rot vel   y-rot vel   z-rot vel   x-rot acc   y-rot acc   z-rot acc
    22626 -1.32117E-03-7.03224E-05 3.13440E-04-1.76962E-03 1.67005E-05 1.61681E-04-1.96844E-03 3.67106E-04-5.81449E-04



 n o d a l   p r i n t   o u t   f o r   t i m e  s t e p    9601                              ( at time 4.7995197E+00 )

 nodal point  x-disp     y-disp      z-disp      x-vel       y-vel       z-vel      x-accl      y-accl      z-accl      x-coor      y-coor      z-coor
    22626  2.57825E-03 4.01401E-01-3.77673E-01 6.54991E-03 2.97181E-01-7.05948E-02 2.62290E-03 1.95255E-01 4.82858E-02 4.66195E+00-2.77894E+01-4.53594E+01



 n o d a l   p r i n t   o u t   f o r   t i m e  s t e p    9601                              ( at time 4.7995197E+00 )

 nodal point  x-rot      y-rot       z-rot       x-rot vel   y-rot vel   z-rot vel   x-rot acc   y-rot acc   z-rot acc
    22626 -1.50829E-03-7.01536E-05 3.35354E-04-1.96641E-03 4.48612E-05 1.49724E-04-1.96811E-03 2.81635E-04-1.19581E-04



 n o d a l   p r i n t   o u t   f o r   t i m e  s t e p    9801                              ( at time 4.8995097E+00 )

 nodal point  x-disp     y-disp      z-disp      x-vel       y-vel       z-vel      x-accl      y-accl      z-accl      x-coor      y-coor      z-coor
    22626  3.06577E-03 4.31775E-01-3.84325E-01 3.74317E-04 3.10040E-01-6.29104E-02-6.17622E-02 1.28604E-01 7.68520E-02 4.66244E+00-2.77591E+01-4.53660E+01



 n o d a l   p r i n t   o u t   f o r   t i m e  s t e p    9801                              ( at time 4.8995097E+00 )

 nodal point  x-rot      y-rot       z-rot       x-rot vel   y-rot vel   z-rot vel   x-rot acc   y-rot acc   z-rot acc
    22626 -1.71276E-03-6.57904E-05 3.50335E-04-2.09465E-03 2.04401E-05 1.94121E-04-1.28247E-03-2.44236E-04 4.44014E-04



 n o d a l   p r i n t   o u t   f o r   t i m e  s t e p   10001                              ( at time 4.9994997E+00 )

 nodal point  x-disp     y-disp      z-disp      x-vel       y-vel       z-vel      x-accl      y-accl      z-accl      x-coor      y-coor      z-coor
    22626  3.57696E-03 4.64032E-01-3.90406E-01 4.09245E-03 3.30229E-01-5.71534E-02 3.71849E-02 2.01903E-01 5.75755E-02 4.66295E+00-2.77268E+01-4.53721E+01



 n o d a l   p r i n t   o u t   f o r   t i m e  s t e p   10001                              ( at time 4.9994997E+00 )

 nodal point  x-rot      y-rot       z-rot       x-rot vel   y-rot vel   z-rot vel   x-rot acc   y-rot acc   z-rot acc
    22626 -1.93608E-03-6.15962E-05 3.66170E-04-2.33420E-03 4.96475E-05 1.20190E-04-2.39572E-03 2.92103E-04-7.39384E-04



 n o d a l   p r i n t   o u t   f o r   t i m e  s t e p   10202                              ( at time 5.0999896E+00 )

 nodal point  x-disp     y-disp      z-disp      x-vel       y-vel       z-vel      x-accl      y-accl      z-accl      x-coor      y-coor      z-coor
    22626  3.92728E-03 4.98277E-01-3.95779E-01 5.90283E-03 3.51509E-01-5.01365E-02 1.80156E-02 2.11763E-01 6.98268E-02 4.66330E+00-2.76926E+01-4.53775E+01



 n o d a l   p r i n t   o u t   f o r   t i m e  s t e p   10202                              ( at time 5.0999896E+00 )

 nodal point  x-rot      y-rot       z-rot       x-rot vel   y-rot vel   z-rot vel   x-rot acc   y-rot acc   z-rot acc
    22626 -2.18044E-03-5.54539E-05 3.81102E-04-2.51550E-03 6.88257E-05 1.14071E-04-1.80423E-03 1.90847E-04-6.08958E-05



 n o d a l   p r i n t   o u t   f o r   t i m e  s t e p   10402                              ( at time 5.1999796E+00 )

 nodal point  x-disp     y-disp      z-disp      x-vel       y-vel       z-vel      x-accl      y-accl      z-accl      x-coor      y-coor      z-coor
    22626  4.36350E-03 5.34031E-01-4.00445E-01 3.17747E-03 3.65890E-01-4.45030E-02-2.72563E-02 1.43827E-01 5.63411E-02 4.66374E+00-2.76568E+01-4.53822E+01



 n o d a l   p r i n t   o u t   f o r   t i m e  s t e p   10402                              ( at time 5.1999796E+00 )

 nodal point  x-rot      y-rot       z-rot       x-rot vel   y-rot vel   z-rot vel   x-rot acc   y-rot acc   z-rot acc
    22626 -2.44110E-03-4.98881E-05 3.93987E-04-2.71429E-03 7.26898E-05 1.40138E-04-1.98807E-03 3.86450E-05 2.60696E-04



 n o d a l   p r i n t   o u t   f o r   t i m e  s t e p   10602                              ( at time 5.2999696E+00 )

 nodal point  x-disp     y-disp      z-disp      x-vel       y-vel       z-vel      x-accl      y-accl      z-accl      x-coor      y-coor      z-coor
    22626  4.79866E-03 5.71746E-01-4.04311E-01 3.75845E-03 3.84435E-01-3.35048E-02 5.81044E-03 1.85467E-01 1.09993E-01 4.66417E+00-2.76191E+01-4.53860E+01



 n o d a l   p r i n t   o u t   f o r   t i m e  s t e p   10602                              ( at time 5.2999696E+00 )

 nodal point  x-rot      y-rot       z-rot       x-rot vel   y-rot vel   z-rot vel   x-rot acc   y-rot acc   z-rot acc
    22626 -2.72289E-03-4.26712E-05 4.05075E-04-2.88381E-03 6.66219E-05 8.97347E-05-1.69539E-03-6.06849E-05-5.04080E-04



 n o d a l   p r i n t   o u t   f o r   t i m e  s t e p   10802                              ( at time 5.3999596E+00 )

 nodal point  x-disp     y-disp      z-disp      x-vel       y-vel       z-vel      x-accl      y-accl      z-accl      x-coor      y-coor      z-coor
    22626  5.27586E-03 6.11067E-01-4.07431E-01 1.35965E-03 4.03134E-01-2.90217E-02-2.39904E-02 1.87010E-01 4.48349E-02 4.66465E+00-2.75798E+01-4.53892E+01



 n o d a l   p r i n t   o u t   f o r   t i m e  s t e p   10802                              ( at time 5.3999596E+00 )

 nodal point  x-rot      y-rot       z-rot       x-rot vel   y-rot vel   z-rot vel   x-rot acc   y-rot acc   z-rot acc
    22626 -3.02311E-03-3.59749E-05 4.13911E-04-3.11121E-03 7.96348E-05 1.39387E-04-2.27423E-03 1.30141E-04 4.96575E-04



 n o d a l   p r i n t   o u t   f o r   t i m e  s t e p   11002                              ( at time 5.4999496E+00 )

 nodal point  x-disp     y-disp      z-disp      x-vel       y-vel       z-vel      x-accl      y-accl      z-accl      x-coor      y-coor      z-coor
    22626  5.63886E-03 6.52114E-01-4.09914E-01 6.38963E-03 4.19416E-01-1.99301E-02 5.03049E-02 1.62841E-01 9.09254E-02 4.66501E+00-2.75387E+01-4.53916E+01



 n o d a l   p r i n t   o u t   f o r   t i m e  s t e p   11002                              ( at time 5.4999496E+00 )

 nodal point  x-rot      y-rot       z-rot       x-rot vel   y-rot vel   z-rot vel   x-rot acc   y-rot acc   z-rot acc
    22626 -3.34589E-03-2.59038E-05 4.22814E-04-3.31920E-03 8.24854E-05 5.91211E-05-2.08010E-03 2.85096E-05-8.02742E-04



 n o d a l   p r i n t   o u t   f o r   t i m e  s t e p   11202                              ( at time 5.5999396E+00 )

 nodal point  x-disp     y-disp      z-disp      x-vel       y-vel       z-vel      x-accl      y-accl      z-accl      x-coor      y-coor      z-coor
    22626  6.00591E-03 6.94943E-01-4.11484E-01 2.92284E-03 4.35232E-01-1.10843E-02-3.46714E-02 1.58171E-01 8.84673E-02 4.66538E+00-2.74959E+01-4.53932E+01



 n o d a l   p r i n t   o u t   f o r   t i m e  s t e p   11202                              ( at time 5.5999396E+00 )

 nodal point  x-rot      y-rot       z-rot       x-rot vel   y-rot vel   z-rot vel   x-rot acc   y-rot acc   z-rot acc
    22626 -3.68813E-03-1.74004E-05 4.28982E-04-3.50823E-03 9.86469E-05 2.49559E-05-1.89052E-03 1.61631E-04-3.41686E-04



 n o d a l   p r i n t   o u t   f o r   t i m e  s t e p   11402                              ( at time 5.6999296E+00 )

 nodal point  x-disp     y-disp      z-disp      x-vel       y-vel       z-vel      x-accl      y-accl      z-accl      x-coor      y-coor      z-coor
    22626  6.30326E-03 7.39388E-01-4.11935E-01 1.96599E-03 4.52877E-01-1.60979E-04-9.56936E-03 1.76468E-01 1.09243E-01 4.66568E+00-2.74514E+01-4.53937E+01



 n o d a l   p r i n t   o u t   f o r   t i m e  s t e p   11402                              ( at time 5.6999296E+00 )

 nodal point  x-rot      y-rot       z-rot       x-rot vel   y-rot vel   z-rot vel   x-rot acc   y-rot acc   z-rot acc
    22626 -4.04794E-03-5.47228E-06 4.32960E-04-3.73338E-03 7.35567E-05 5.02301E-05-2.25171E-03-2.50926E-04 2.52766E-04



 n o d a l   p r i n t   o u t   f o r   t i m e  s t e p   11602                              ( at time 5.7999195E+00 )

 nodal point  x-disp     y-disp      z-disp      x-vel       y-vel       z-vel      x-accl      y-accl      z-accl      x-coor      y-coor      z-coor
    22626  6.70876E-03 7.85549E-01-4.11499E-01 5.26241E-03 4.70727E-01 9.30103E-03 3.29675E-02 1.78515E-01 9.46297E-02 4.66608E+00-2.74053E+01-4.53932E+01



 n o d a l   p r i n t   o u t   f o r   t i m e  s t e p   11602                              ( at time 5.7999195E+00 )

 nodal point  x-rot      y-rot       z-rot       x-rot vel   y-rot vel   z-rot vel   x-rot acc   y-rot acc   z-rot acc
    22626 -4.42829E-03 5.22456E-06 4.33382E-04-3.89413E-03 1.45974E-04 3.73060E-06-1.60765E-03 7.24243E-04-4.65042E-04



 n o d a l   p r i n t   o u t   f o r   t i m e  s t e p   11802                              ( at time 5.8999095E+00 )

 nodal point  x-disp     y-disp      z-disp      x-vel       y-vel       z-vel      x-accl      y-accl      z-accl      x-coor      y-coor      z-coor
    22626  6.92899E-03 8.33325E-01-4.10031E-01 6.76239E-03 4.84852E-01 2.05216E-02 1.50013E-02 1.41265E-01 1.12217E-01 4.66630E+00-2.73575E+01-4.53918E+01



 n o d a l   p r i n t   o u t   f o r   t i m e  s t e p   11802                              ( at time 5.8999095E+00 )

 nodal point  x-rot      y-rot       z-rot       x-rot vel   y-rot vel   z-rot vel   x-rot acc   y-rot acc   z-rot acc
    22626 -4.82820E-03 1.87526E-05 4.35878E-04-4.07433E-03 1.49651E-04-4.04034E-05-1.80217E-03 3.67719E-05-4.41385E-04



 n o d a l   p r i n t   o u t   f o r   t i m e  s t e p   12002                              ( at time 5.9998995E+00 )

 nodal point  x-disp     y-disp      z-disp      x-vel       y-vel       z-vel      x-accl      y-accl      z-accl      x-coor      y-coor      z-coor
    22626  7.31027E-03 8.82726E-01-4.07618E-01-7.38227E-04 5.02283E-01 2.99917E-02-7.50137E-02 1.74328E-01 9.47101E-02 4.66669E+00-2.73081E+01-4.53893E+01



 n o d a l   p r i n t   o u t   f o r   t i m e  s t e p   12002                              ( at time 5.9998995E+00 )

 nodal point  x-rot      y-rot       z-rot       x-rot vel   y-rot vel   z-rot vel   x-rot acc   y-rot acc   z-rot acc
    22626 -5.24809E-03 3.24509E-05 4.31662E-04-4.28319E-03 1.45576E-04-3.19709E-06-2.08877E-03-4.07466E-05 3.72101E-04



 n o d a l   p r i n t   o u t   f o r   t i m e  s t e p   12202                              ( at time 6.0998895E+00 )

 nodal point  x-disp     y-disp      z-disp      x-vel       y-vel       z-vel      x-accl      y-accl      z-accl      x-coor      y-coor      z-coor
    22626  7.66584E-03 9.33883E-01-4.04107E-01 5.16007E-03 5.21238E-01 4.13064E-02 5.89886E-02 1.89572E-01 1.13158E-01 4.66704E+00-2.72569E+01-4.53858E+01



 n o d a l   p r i n t   o u t   f o r   t i m e  s t e p   12202                              ( at time 6.0998895E+00 )

 nodal point  x-rot      y-rot       z-rot       x-rot vel   y-rot vel   z-rot vel   x-rot acc   y-rot acc   z-rot acc
    22626 -5.68821E-03 4.95995E-05 4.25894E-04-4.51206E-03 1.78420E-04-7.88532E-05-2.28895E-03 3.28472E-04-7.56634E-04



 n o d a l   p r i n t   o u t   f o r   t i m e  s t e p   12402                              ( at time 6.1998795E+00 )

 nodal point  x-disp     y-disp      z-disp      x-vel       y-vel       z-vel      x-accl      y-accl      z-accl      x-coor      y-coor      z-coor
    22626  8.02263E-03 9.86477E-01-3.99444E-01 4.73444E-03 5.33487E-01 5.07363E-02-4.25674E-03 1.22502E-01 9.43086E-02 4.66740E+00-2.72044E+01-4.53812E+01



 n o d a l   p r i n t   o u t   f o r   t i m e  s t e p   12402                              ( at time 6.1998795E+00 )

 nodal point  x-rot      y-rot       z-rot       x-rot vel   y-rot vel   z-rot vel   x-rot acc   y-rot acc   z-rot acc
    22626 -6.14383E-03 6.61092E-05 4.21213E-04-4.67265E-03 1.66516E-04-4.74756E-05-1.60607E-03-1.19058E-04 3.13807E-04



 n o d a l   p r i n t   o u t   f o r   t i m e  s t e p   12602                              ( at time 6.2998695E+00 )

 nodal point  x-disp     y-disp      z-disp      x-vel       y-vel       z-vel      x-accl      y-accl      z-accl      x-coor      y-coor      z-coor
    22626  8.41577E-03 1.04097E+00-3.93825E-01 2.08083E-03 5.53603E-01 6.44334E-02-2.65388E-02 2.01176E-01 1.36985E-01 4.66779E+00-2.71499E+01-4.53755E+01



 n o d a l   p r i n t   o u t   f o r   t i m e  s t e p   12602                              ( at time 6.2998695E+00 )

 nodal point  x-rot      y-rot       z-rot       x-rot vel   y-rot vel   z-rot vel   x-rot acc   y-rot acc   z-rot acc
    22626 -6.62486E-03 8.52714E-05 4.12868E-04-4.87839E-03 2.07229E-04-9.29770E-05-2.05756E-03 4.07171E-04-4.55059E-04



 n o d a l   p r i n t   o u t   f o r   t i m e  s t e p   12802                              ( at time 6.3998595E+00 )

 nodal point  x-disp     y-disp      z-disp      x-vel       y-vel       z-vel      x-accl      y-accl      z-accl      x-coor      y-coor      z-coor
    22626  8.78219E-03 1.09695E+00-3.86829E-01 5.54663E-03 5.68105E-01 7.45430E-02 3.46615E-02 1.45033E-01 1.01106E-01 4.66816E+00-2.70939E+01-4.53685E+01



 n o d a l   p r i n t   o u t   f o r   t i m e  s t e p   12802                              ( at time 6.3998595E+00 )

 nodal point  x-rot      y-rot       z-rot       x-rot vel   y-rot vel   z-rot vel   x-rot acc   y-rot acc   z-rot acc
    22626 -7.11799E-03 1.06533E-04 4.00619E-04-5.01875E-03 2.17853E-04-1.49800E-04-1.40374E-03 1.06258E-04-5.68292E-04



 n o d a l   p r i n t   o u t   f o r   t i m e  s t e p   13002                              ( at time 6.4998495E+00 )

 nodal point  x-disp     y-disp      z-disp      x-vel       y-vel       z-vel      x-accl      y-accl      z-accl      x-coor      y-coor      z-coor
    22626  9.16208E-03 1.15445E+00-3.78678E-01 2.48961E-03 5.83834E-01 8.86210E-02-3.05732E-02 1.57310E-01 1.40794E-01 4.66854E+00-2.70364E+01-4.53604E+01



 n o d a l   p r i n t   o u t   f o r   t i m e  s t e p   13002                              ( at time 6.4998495E+00 )

 nodal point  x-rot      y-rot       z-rot       x-rot vel   y-rot vel   z-rot vel   x-rot acc   y-rot acc   z-rot acc
    22626 -7.63029E-03 1.29193E-04 3.91025E-04-5.27882E-03 2.24776E-04-7.74564E-05-2.60098E-03 6.92289E-05 7.23513E-04



 n o d a l   p r i n t   o u t   f o r   t i m e  s t e p   13202                              ( at time 6.5998395E+00 )

 nodal point  x-disp     y-disp      z-disp      x-vel       y-vel       z-vel      x-accl      y-accl      z-accl      x-coor      y-coor      z-coor
    22626  9.76772E-03 1.21355E+00-3.69033E-01 6.72099E-03 5.97897E-01 1.01485E-01 4.23179E-02 1.40641E-01 1.28653E-01 4.66914E+00-2.69773E+01-4.53508E+01



 n o d a l   p r i n t   o u t   f o r   t i m e  s t e p   13202                              ( at time 6.5998395E+00 )

 nodal point  x-rot      y-rot       z-rot       x-rot vel   y-rot vel   z-rot vel   x-rot acc   y-rot acc   z-rot acc
    22626 -8.16277E-03 1.54669E-04 3.73797E-04-5.42130E-03 2.45108E-04-1.89307E-04-1.42497E-03 2.03347E-04-1.11861E-03



 n o d a l   p r i n t   o u t   f o r   t i m e  s t e p   13402                              ( at time 6.6998295E+00 )

 nodal point  x-disp     y-disp      z-disp      x-vel       y-vel       z-vel      x-accl      y-accl      z-accl      x-coor      y-coor      z-coor
    22626  1.00401E-02 1.27407E+00-3.58209E-01 5.15083E-03 6.12884E-01 1.15054E-01-1.57032E-02 1.49889E-01 1.35705E-01 4.66941E+00-2.69168E+01-4.53399E+01



 n o d a l   p r i n t   o u t   f o r   t i m e  s t e p   13402                              ( at time 6.6998295E+00 )

 nodal point  x-rot      y-rot       z-rot       x-rot vel   y-rot vel   z-rot vel   x-rot acc   y-rot acc   z-rot acc
    22626 -8.70898E-03 1.78508E-04 3.58362E-04-5.60056E-03 2.86228E-04-1.82219E-04-1.79278E-03 4.11239E-04 7.08881E-05



 n o d a l   p r i n t   o u t   f o r   t i m e  s t e p   13602                              ( at time 6.7998195E+00 )

 nodal point  x-disp     y-disp      z-disp      x-vel       y-vel       z-vel      x-accl      y-accl      z-accl      x-coor      y-coor      z-coor
    22626  1.04997E-02 1.33620E+00-3.45890E-01 5.32632E-03 6.29698E-01 1.29759E-01 1.75503E-03 1.68155E-01 1.47064E-01 4.66987E+00-2.68546E+01-4.53276E+01



 n o d a l   p r i n t   o u t   f o r   t i m e  s t e p   13602                              ( at time 6.7998195E+00 )

 nodal point  x-rot      y-rot       z-rot       x-rot vel   y-rot vel   z-rot vel   x-rot acc   y-rot acc   z-rot acc
    22626 -9.27858E-03 2.08518E-04 3.40428E-04-5.79246E-03 3.11816E-04-1.88396E-04-1.91922E-03 2.55902E-04-6.17766E-05



 n o d a l   p r i n t   o u t   f o r   t i m e  s t e p   13802                              ( at time 6.8998095E+00 )

 nodal point  x-disp     y-disp      z-disp      x-vel       y-vel       z-vel      x-accl      y-accl      z-accl      x-coor      y-coor      z-coor
    22626  1.12801E-02 1.39983E+00-3.32275E-01 3.87965E-03 6.42247E-01 1.42441E-01-1.44682E-02 1.25498E-01 1.26831E-01 4.67066E+00-2.67910E+01-4.53140E+01



 n o d a l   p r i n t   o u t   f o r   t i m e  s t e p   13802                              ( at time 6.8998095E+00 )

 nodal point  x-rot      y-rot       z-rot       x-rot vel   y-rot vel   z-rot vel   x-rot acc   y-rot acc   z-rot acc
    22626 -9.85889E-03 2.38233E-04 3.16936E-04-5.91434E-03 2.96479E-04-1.81961E-04-1.21895E-03-1.53378E-04 6.43487E-05



 n o d a l   p r i n t   o u t   f o r   t i m e  s t e p   14002                              ( at time 6.9997995E+00 )

 nodal point  x-disp     y-disp      z-disp      x-vel       y-vel       z-vel      x-accl      y-accl      z-accl      x-coor      y-coor      z-coor
    22626  1.17205E-02 1.46500E+00-3.17078E-01 6.03479E-03 6.59006E-01 1.59454E-01 2.15536E-02 1.67609E-01 1.70145E-01 4.67110E+00-2.67258E+01-4.52988E+01



 n o d a l   p r i n t   o u t   f o r   t i m e  s t e p   14002                              ( at time 6.9997995E+00 )

 nodal point  x-rot      y-rot       z-rot       x-rot vel   y-rot vel   z-rot vel   x-rot acc   y-rot acc   z-rot acc
    22626 -1.04609E-02 2.69554E-04 2.97260E-04-6.14138E-03 3.24328E-04-2.62262E-04-2.27063E-03 2.78511E-04-8.03089E-04



 n o d a l   p r i n t   o u t   f o r   t i m e  s t e p   14202                              ( at time 7.0997895E+00 )

 nodal point  x-disp     y-disp      z-disp      x-vel       y-vel       z-vel      x-accl      y-accl      z-accl      x-coor      y-coor      z-coor
    22626  1.23307E-02 1.53178E+00-3.00453E-01 6.34340E-03 6.77449E-01 1.73156E-01 3.08641E-03 1.84454E-01 1.37037E-01 4.67171E+00-2.66591E+01-4.52822E+01



 n o d a l   p r i n t   o u t   f o r   t i m e  s t e p   14202                              ( at time 7.0997895E+00 )

 nodal point  x-rot      y-rot       z-rot       x-rot vel   y-rot vel   z-rot vel   x-rot acc   y-rot acc   z-rot acc
    22626 -1.10763E-02 3.04248E-04 2.74759E-04-6.22175E-03 3.49038E-04-2.06751E-04-8.03688E-04 2.47122E-04 5.55167E-04



 n o d a l   p r i n t   o u t   f o r   t i m e  s t e p   14402                              ( at time 7.1997794E+00 )

 nodal point  x-disp     y-disp      z-disp      x-vel       y-vel       z-vel      x-accl      y-accl      z-accl      x-coor      y-coor      z-coor
    22626  1.30031E-02 1.59996E+00-2.82198E-01 6.64825E-03 6.87029E-01 1.89291E-01 3.04875E-03 9.58104E-02 1.61363E-01 4.67238E+00-2.65909E+01-4.52639E+01



 n o d a l   p r i n t   o u t   f o r   t i m e  s t e p   14402                              ( at time 7.1997794E+00 )

 nodal point  x-rot      y-rot       z-rot       x-rot vel   y-rot vel   z-rot vel   x-rot acc   y-rot acc   z-rot acc
    22626 -1.17051E-02 3.40526E-04 2.51206E-04-6.42003E-03 3.66642E-04-2.23164E-04-1.98307E-03 1.76061E-04-1.64142E-04



 n o d a l   p r i n t   o u t   f o r   t i m e  s t e p   14602                              ( at time 7.2997694E+00 )

 nodal point  x-disp     y-disp      z-disp      x-vel       y-vel       z-vel      x-accl      y-accl      z-accl      x-coor      y-coor      z-coor
    22626  1.37535E-02 1.66968E+00-2.62481E-01 6.38580E-03 7.04740E-01 2.03500E-01-2.62474E-03 1.77128E-01 1.42113E-01 4.67313E+00-2.65212E+01-4.52442E+01



 n o d a l   p r i n t   o u t   f o r   t i m e  s t e p   14602                              ( at time 7.2997694E+00 )

 nodal point  x-rot      y-rot       z-rot       x-rot vel   y-rot vel   z-rot vel   x-rot acc   y-rot acc   z-rot acc
    22626 -1.23514E-02 3.77234E-04 2.25579E-04-6.55190E-03 3.86010E-04-2.72931E-04-1.31880E-03 1.93706E-04-4.97725E-04



 n o d a l   p r i n t   o u t   f o r   t i m e  s t e p   14802                              ( at time 7.3997594E+00 )

 nodal point  x-disp     y-disp      z-disp      x-vel       y-vel       z-vel      x-accl      y-accl      z-accl      x-coor      y-coor      z-coor
    22626  1.44308E-02 1.74091E+00-2.41084E-01 6.72830E-03 7.20589E-01 2.25134E-01 3.42538E-03 1.58507E-01 2.16360E-01 4.67381E+00-2.64499E+01-4.52228E+01



 n o d a l   p r i n t   o u t   f o r   t i m e  s t e p   14802                              ( at time 7.3997594E+00 )

 nodal point  x-rot      y-rot       z-rot       x-rot vel   y-rot vel   z-rot vel   x-rot acc   y-rot acc   z-rot acc
    22626 -1.30112E-02 4.18131E-04 1.99539E-04-6.68745E-03 4.06817E-04-2.41076E-04-1.35566E-03 2.08087E-04 3.18579E-04



 n o d a l   p r i n t   o u t   f o r   t i m e  s t e p   15002                              ( at time 7.4997494E+00 )

 nodal point  x-disp     y-disp      z-disp      x-vel       y-vel       z-vel      x-accl      y-accl      z-accl      x-coor      y-coor      z-coor
    22626  1.52080E-02 1.81349E+00-2.17855E-01 9.80731E-03 7.34760E-01 2.39440E-01 3.07930E-02 1.41718E-01 1.43070E-01 4.67458E+00-2.63773E+01-4.51996E+01



 n o d a l   p r i n t   o u t   f o r   t i m e  s t e p   15002                              ( at time 7.4997494E+00 )

 nodal point  x-rot      y-rot       z-rot       x-rot vel   y-rot vel   z-rot vel   x-rot acc   y-rot acc   z-rot acc
    22626 -1.36833E-02 4.59313E-04 1.71849E-04-6.79499E-03 4.38384E-04-2.96069E-04-1.07546E-03 3.15696E-04-5.49983E-04



 n o d a l   p r i n t   o u t   f o r   t i m e  s t e p   15202                              ( at time 7.5997394E+00 )

 nodal point  x-disp     y-disp      z-disp      x-vel       y-vel       z-vel      x-accl      y-accl      z-accl      x-coor      y-coor      z-coor
    22626  1.60111E-02 1.88762E+00-1.93021E-01 5.73191E-03 7.48969E-01 2.58813E-01-4.07581E-02 1.42109E-01 1.93746E-01 4.67539E+00-2.63032E+01-4.51747E+01



 n o d a l   p r i n t   o u t   f o r   t i m e  s t e p   15202                              ( at time 7.5997394E+00 )

 nodal point  x-rot      y-rot       z-rot       x-rot vel   y-rot vel   z-rot vel   x-rot acc   y-rot acc   z-rot acc
    22626 -1.43659E-02 5.00459E-04 1.45060E-04-6.89228E-03 4.02972E-04-2.41700E-04-9.73060E-04-3.54153E-04 5.43746E-04



 n o d a l   p r i n t   o u t   f o r   t i m e  s t e p   15402                              ( at time 7.6997294E+00 )

 nodal point  x-disp     y-disp      z-disp      x-vel       y-vel       z-vel      x-accl      y-accl      z-accl      x-coor      y-coor      z-coor
    22626  1.69565E-02 1.96320E+00-1.66339E-01 7.89607E-03 7.62607E-01 2.73241E-01 2.16438E-02 1.36393E-01 1.44299E-01 4.67633E+00-2.62276E+01-4.51481E+01



 n o d a l   p r i n t   o u t   f o r   t i m e  s t e p   15402                              ( at time 7.6997294E+00 )

 nodal point  x-rot      y-rot       z-rot       x-rot vel   y-rot vel   z-rot vel   x-rot acc   y-rot acc   z-rot acc
    22626 -1.50597E-02 5.43219E-04 1.15670E-04-7.03446E-03 4.50723E-04-2.85914E-04-1.42187E-03 4.77561E-04-4.42179E-04



 n o d a l   p r i n t   o u t   f o r   t i m e  s t e p   15602                              ( at time 7.7997194E+00 )

 nodal point  x-disp     y-disp      z-disp      x-vel       y-vel       z-vel      x-accl      y-accl      z-accl      x-coor      y-coor      z-coor
    22626  1.78217E-02 2.04025E+00-1.38029E-01 1.18016E-02 7.78454E-01 2.91128E-01 3.90594E-02 1.58482E-01 1.78888E-01 4.67720E+00-2.61506E+01-4.51197E+01



 n o d a l   p r i n t   o u t   f o r   t i m e  s t e p   15602                              ( at time 7.7997194E+00 )

 nodal point  x-rot      y-rot       z-rot       x-rot vel   y-rot vel   z-rot vel   x-rot acc   y-rot acc   z-rot acc
    22626 -1.57627E-02 5.86528E-04 8.68208E-05-7.11619E-03 4.44358E-04-3.19471E-04-8.17369E-04-6.36536E-05-3.35612E-04



 n o d a l   p r i n t   o u t   f o r   t i m e  s t e p   15802                              ( at time 7.8997094E+00 )

 nodal point  x-disp     y-disp      z-disp      x-vel       y-vel       z-vel      x-accl      y-accl      z-accl      x-coor      y-coor      z-coor
    22626  1.86351E-02 2.11886E+00-1.07965E-01 8.66969E-03 7.92183E-01 3.09116E-01-3.13223E-02 1.37302E-01 1.79902E-01 4.67801E+00-2.60720E+01-4.50897E+01



 n o d a l   p r i n t   o u t   f o r   t i m e  s t e p   15802                              ( at time 7.8997094E+00 )

 nodal point  x-rot      y-rot       z-rot       x-rot vel   y-rot vel   z-rot vel   x-rot acc   y-rot acc   z-rot acc
    22626 -1.64764E-02 6.29768E-04 5.87654E-05-7.16665E-03 4.26630E-04-3.22338E-04-5.04716E-04-1.77307E-04-2.86719E-05



 n o d a l   p r i n t   o u t   f o r   t i m e  s t e p   16002                              ( at time 7.9996994E+00 )

 nodal point  x-disp     y-disp      z-disp      x-vel       y-vel       z-vel      x-accl      y-accl      z-accl      x-coor      y-coor      z-coor
    22626  1.97601E-02 2.19904E+00-7.63055E-02 9.09033E-03 8.09068E-01 3.24403E-01 4.20674E-03 1.68873E-01 1.52885E-01 4.67914E+00-2.59918E+01-4.50580E+01



 n o d a l   p r i n t   o u t   f o r   t i m e  s t e p   16002                              ( at time 7.9996994E+00 )

 nodal point  x-rot      y-rot       z-rot       x-rot vel   y-rot vel   z-rot vel   x-rot acc   y-rot acc   z-rot acc
    22626 -1.71986E-02 6.74360E-04 2.55948E-05-7.27163E-03 4.57747E-04-2.98262E-04-1.04990E-03 3.11207E-04 2.40784E-04



 n o d a l   p r i n t   o u t   f o r   t i m e  s t e p   16202                              ( at time 8.0996894E+00 )

 nodal point  x-disp     y-disp      z-disp      x-vel       y-vel       z-vel      x-accl      y-accl      z-accl      x-coor      y-coor      z-coor
    22626  2.06351E-02 2.28061E+00-4.29181E-02 1.12014E-02 8.22177E-01 3.41368E-01 2.11125E-02 1.31104E-01 1.69663E-01 4.68001E+00-2.59102E+01-4.50246E+01



 n o d a l   p r i n t   o u t   f o r   t i m e  s t e p   16202                              ( at time 8.0996894E+00 )

 nodal point  x-rot      y-rot       z-rot       x-rot vel   y-rot vel   z-rot vel   x-rot acc   y-rot acc   z-rot acc
    22626 -1.79280E-02 7.18642E-04-1.51016E-06-7.34542E-03 4.51406E-04-3.16260E-04-7.37952E-04-6.34196E-05-1.80000E-04



 n o d a l   p r i n t   o u t   f o r   t i m e  s t e p   16402                              ( at time 8.1996794E+00 )

 nodal point  x-disp     y-disp      z-disp      x-vel       y-vel       z-vel      x-accl      y-accl      z-accl      x-coor      y-coor      z-coor
    22626  2.17990E-02 2.36375E+00-8.02842E-03 1.01738E-02 8.39268E-01 3.57251E-01-1.02770E-02 1.70929E-01 1.58846E-01 4.68117E+00-2.58271E+01-4.49897E+01



 n o d a l   p r i n t   o u t   f o r   t i m e  s t e p   16402                              ( at time 8.1996794E+00 )

 nodal point  x-rot      y-rot       z-rot       x-rot vel   y-rot vel   z-rot vel   x-rot acc   y-rot acc   z-rot acc
    22626 -1.86683E-02 7.64938E-04-3.49581E-05-7.45904E-03 4.60100E-04-3.33550E-04-1.13635E-03 8.69448E-05-1.72908E-04



 n o d a l   p r i n t   o u t   f o r   t i m e  s t e p   16602                              ( at time 8.2996694E+00 )

 nodal point  x-disp     y-disp      z-disp      x-vel       y-vel       z-vel      x-accl      y-accl      z-accl      x-coor      y-coor      z-coor
    22626  2.29154E-02 2.44831E+00 2.86469E-02 1.12394E-02 8.53946E-01 3.76540E-01 1.06573E-02 1.46789E-01 1.92914E-01 4.68229E+00-2.57425E+01-4.49531E+01



 n o d a l   p r i n t   o u t   f o r   t i m e  s t e p   16602                              ( at time 8.2996694E+00 )

 nodal point  x-rot      y-rot       z-rot       x-rot vel   y-rot vel   z-rot vel   x-rot acc   y-rot acc   z-rot acc
    22626 -1.94151E-02 8.11482E-04-6.40128E-05-7.49041E-03 4.41896E-04-2.44957E-04-3.13734E-04-1.82057E-04 8.86016E-04



 n o d a l   p r i n t   o u t   f o r   t i m e  s t e p   16802                              ( at time 8.3996594E+00 )

 nodal point  x-disp     y-disp      z-disp      x-vel       y-vel       z-vel      x-accl      y-accl      z-accl      x-coor      y-coor      z-coor
    22626  2.39625E-02 2.53445E+00 6.70493E-02 1.41557E-02 8.68313E-01 3.92015E-01 2.91658E-02 1.43681E-01 1.54760E-01 4.68334E+00-2.56564E+01-4.49147E+01



 n o d a l   p r i n t   o u t   f o r   t i m e  s t e p   16802                              ( at time 8.3996594E+00 )

 nodal point  x-rot      y-rot       z-rot       x-rot vel   y-rot vel   z-rot vel   x-rot acc   y-rot acc   z-rot acc
    22626 -2.01698E-02 8.55231E-04-9.07033E-05-7.58064E-03 4.99012E-04-3.41895E-04-9.02357E-04 5.71223E-04-9.69476E-04



 n o d a l   p r i n t   o u t   f o r   t i m e  s t e p   17002                              ( at time 8.4996494E+00 )

 nodal point  x-disp     y-disp      z-disp      x-vel       y-vel       z-vel      x-accl      y-accl      z-accl      x-coor      y-coor      z-coor
    22626  2.52859E-02 2.62203E+00 1.06948E-01 1.00290E-02 8.83943E-01 4.07493E-01-4.12708E-02 1.56319E-01 1.54799E-01 4.68466E+00-2.55688E+01-4.48748E+01



 n o d a l   p r i n t   o u t   f o r   t i m e  s t e p   17002                              ( at time 8.4996494E+00 )

 nodal point  x-rot      y-rot       z-rot       x-rot vel   y-rot vel   z-rot vel   x-rot acc   y-rot acc   z-rot acc
    22626 -2.09319E-02 9.04178E-04-1.24360E-04-7.64539E-03 4.87497E-04-2.31022E-04-6.47609E-04-1.15160E-04 1.10884E-03



 n o d a l   p r i n t   o u t   f o r   t i m e  s t e p   17202                              ( at time 8.5996394E+00 )

 nodal point  x-disp     y-disp      z-disp      x-vel       y-vel       z-vel      x-accl      y-accl      z-accl      x-coor      y-coor      z-coor
    22626  2.65679E-02 2.71103E+00 1.48538E-01 1.36953E-02 8.97076E-01 4.25998E-01 3.66669E-02 1.31344E-01 1.85063E-01 4.68594E+00-2.54798E+01-4.48332E+01



 n o d a l   p r i n t   o u t   f o r   t i m e  s t e p   17202                              ( at time 8.5996394E+00 )

 nodal point  x-rot      y-rot       z-rot       x-rot vel   y-rot vel   z-rot vel   x-rot acc   y-rot acc   z-rot acc
    22626 -2.16989E-02 9.50514E-04-1.50488E-04-7.69972E-03 4.75401E-04-2.91081E-04-5.43337E-04-1.20980E-04-6.00648E-04



 n o d a l   p r i n t   o u t   f o r   t i m e  s t e p   17402                              ( at time 8.6996293E+00 )

 nodal point  x-disp     y-disp      z-disp      x-vel       y-vel       z-vel      x-accl      y-accl      z-accl      x-coor      y-coor      z-coor
    22626  2.78177E-02 2.80159E+00 1.91877E-01 1.39148E-02 9.11429E-01 4.41735E-01 2.19440E-03 1.43543E-01 1.57387E-01 4.68719E+00-2.53892E+01-4.47898E+01



 n o d a l   p r i n t   o u t   f o r   t i m e  s t e p   17402                              ( at time 8.6996293E+00 )

 nodal point  x-rot      y-rot       z-rot       x-rot vel   y-rot vel   z-rot vel   x-rot acc   y-rot acc   z-rot acc
    22626 -2.24752E-02 9.97957E-04-1.80719E-04-7.77346E-03 4.54613E-04-3.45479E-04-7.37442E-04-2.07897E-04-5.44031E-04



 n o d a l   p r i n t   o u t   f o r   t i m e  s t e p   17602                              ( at time 8.7996193E+00 )

 nodal point  x-disp     y-disp      z-disp      x-vel       y-vel       z-vel      x-accl      y-accl      z-accl      x-coor      y-coor      z-coor
    22626  2.92320E-02 2.89334E+00 2.36844E-01 1.20414E-02 9.21255E-01 4.60590E-01-1.87357E-02 9.82652E-02 1.88566E-01 4.68861E+00-2.52975E+01-4.47449E+01



 n o d a l   p r i n t   o u t   f o r   t i m e  s t e p   17602                              ( at time 8.7996193E+00 )

 nodal point  x-rot      y-rot       z-rot       x-rot vel   y-rot vel   z-rot vel   x-rot acc   y-rot acc   z-rot acc
    22626 -2.32567E-02 1.04652E-03-2.07759E-04-7.86315E-03 4.97148E-04-1.91302E-04-8.96964E-04 4.25395E-04 1.54193E-03



 n o d a l   p r i n t   o u t   f o r   t i m e  s t e p   17802                              ( at time 8.8996093E+00 )

 nodal point  x-disp     y-disp      z-disp      x-vel       y-vel       z-vel      x-accl      y-accl      z-accl      x-coor      y-coor      z-coor
    22626  3.08008E-02 2.98599E+00 2.84078E-01 1.78074E-02 9.36681E-01 4.79636E-01 5.76658E-02 1.54284E-01 1.90485E-01 4.69018E+00-2.52048E+01-4.46976E+01



 n o d a l   p r i n t   o u t   f o r   t i m e  s t e p   17802                              ( at time 8.8996093E+00 )

 nodal point  x-rot      y-rot       z-rot       x-rot vel   y-rot vel   z-rot vel   x-rot acc   y-rot acc   z-rot acc
    22626 -2.40436E-02 1.09954E-03-2.31706E-04-7.90318E-03 5.41083E-04-2.73225E-04-4.00360E-04 4.39389E-04-8.19320E-04



 n o d a l   p r i n t   o u t   f o r   t i m e  s t e p   18002                              ( at time 8.9995993E+00 )

 nodal point  x-disp     y-disp      z-disp      x-vel       y-vel       z-vel      x-accl      y-accl      z-accl      x-coor      y-coor      z-coor
    22626  3.22231E-02 3.07986E+00 3.32964E-01 1.26807E-02 9.38923E-01 5.01055E-01-5.12724E-02 2.24208E-02 2.14206E-01 4.69160E+00-2.51110E+01-4.46488E+01



 n o d a l   p r i n t   o u t   f o r   t i m e  s t e p   18002                              ( at time 8.9995993E+00 )

 nodal point  x-rot      y-rot       z-rot       x-rot vel   y-rot vel   z-rot vel   x-rot acc   y-rot acc   z-rot acc
    22626 -2.48375E-02 1.14941E-03-2.55633E-04-7.99101E-03 5.05323E-04-2.10688E-04-8.78428E-04-3.57633E-04 6.25440E-04



 n o d a l   p r i n t   o u t   f o r   t i m e  s t e p   18202                              ( at time 9.0995893E+00 )

 nodal point  x-disp     y-disp      z-disp      x-vel       y-vel       z-vel      x-accl      y-accl      z-accl      x-coor      y-coor      z-coor
    22626  3.38420E-02 3.17481E+00 3.84088E-01 1.91208E-02 9.57969E-01 5.21278E-01 6.44078E-02 1.90476E-01 2.02257E-01 4.69322E+00-2.50160E+01-4.45976E+01



 n o d a l   p r i n t   o u t   f o r   t i m e  s t e p   18202                              ( at time 9.0995893E+00 )

 nodal point  x-rot      y-rot       z-rot       x-rot vel   y-rot vel   z-rot vel   x-rot acc   y-rot acc   z-rot acc
    22626 -2.56445E-02 1.20440E-03-2.77381E-04-8.06994E-03 5.69346E-04-2.34651E-04-7.89357E-04 6.40294E-04-2.39659E-04



 n o d a l   p r i n t   o u t   f o r   t i m e  s t e p   18402                              ( at time 9.1995793E+00 )

 nodal point  x-disp     y-disp      z-disp      x-vel       y-vel       z-vel      x-accl      y-accl      z-accl      x-coor      y-coor      z-coor
    22626  3.56896E-02 3.27082E+00 4.36982E-01 1.72549E-02 9.66615E-01 5.41698E-01-1.86604E-02 8.64730E-02 2.04214E-01 4.69506E+00-2.49200E+01-4.45447E+01



 n o d a l   p r i n t   o u t   f o r   t i m e  s t e p   18402                              ( at time 9.1995793E+00 )

 nodal point  x-rot      y-rot       z-rot       x-rot vel   y-rot vel   z-rot vel   x-rot acc   y-rot acc   z-rot acc
    22626 -2.64538E-02 1.25955E-03-2.99999E-04-8.09493E-03 5.24624E-04-2.08752E-04-2.49918E-04-4.47259E-04 2.59016E-04



 n o d a l   p r i n t   o u t   f o r   t i m e  s t e p   18602                              ( at time 9.2995693E+00 )

 nodal point  x-disp     y-disp      z-disp      x-vel       y-vel       z-vel      x-accl      y-accl      z-accl      x-coor      y-coor      z-coor
    22626  3.72298E-02 3.36800E+00 4.92164E-01 1.73440E-02 9.76504E-01 5.62014E-01 8.91198E-04 9.88959E-02 2.03187E-01 4.69660E+00-2.48228E+01-4.44896E+01



 n o d a l   p r i n t   o u t   f o r   t i m e  s t e p   18602                              ( at time 9.2995693E+00 )

 nodal point  x-rot      y-rot       z-rot       x-rot vel   y-rot vel   z-rot vel   x-rot acc   y-rot acc   z-rot acc
    22626 -2.72715E-02 1.31193E-03-3.21072E-04-8.22824E-03 5.79367E-04-2.35496E-04-1.33324E-03 5.47482E-04-2.67467E-04



 n o d a l   p r i n t   o u t   f o r   t i m e  s t e p   18802                              ( at time 9.3995593E+00 )

 nodal point  x-disp     y-disp      z-disp      x-vel       y-vel       z-vel      x-accl      y-accl      z-accl      x-coor      y-coor      z-coor
    22626  3.93839E-02 3.46620E+00 5.49114E-01 2.02320E-02 9.92216E-01 5.80029E-01 2.88825E-02 1.57131E-01 1.80164E-01 4.69876E+00-2.47246E+01-4.44326E+01



 n o d a l   p r i n t   o u t   f o r   t i m e  s t e p   18802                              ( at time 9.3995593E+00 )

 nodal point  x-rot      y-rot       z-rot       x-rot vel   y-rot vel   z-rot vel   x-rot acc   y-rot acc   z-rot acc
    22626 -2.80989E-02 1.36868E-03-3.46351E-04-8.32061E-03 5.19506E-04-1.89690E-04-9.23826E-04-5.98676E-04 4.58110E-04



 n o d a l   p r i n t   o u t   f o r   t i m e  s t e p   19002                              ( at time 9.4995493E+00 )

 nodal point  x-disp     y-disp      z-disp      x-vel       y-vel       z-vel      x-accl      y-accl      z-accl      x-coor      y-coor      z-coor
    22626  4.13479E-02 3.56582E+00 6.08079E-01 1.99166E-02 9.97990E-01 5.98182E-01-3.15387E-03 5.77460E-02 1.81547E-01 4.70072E+00-2.46250E+01-4.43736E+01



 n o d a l   p r i n t   o u t   f o r   t i m e  s t e p   19002                              ( at time 9.4995493E+00 )

 nodal point  x-rot      y-rot       z-rot       x-rot vel   y-rot vel   z-rot vel   x-rot acc   y-rot acc   z-rot acc
    22626 -2.89324E-02 1.42095E-03-3.70107E-04-8.38980E-03 5.42099E-04-2.82198E-04-6.91903E-04 2.25956E-04-9.25173E-04



 n o d a l   p r i n t   o u t   f o r   t i m e  s t e p   19202                              ( at time 9.5995393E+00 )

 nodal point  x-disp     y-disp      z-disp      x-vel       y-vel       z-vel      x-accl      y-accl      z-accl      x-coor      y-coor      z-coor
    22626  4.33401E-02 3.66636E+00 6.69006E-01 2.21662E-02 1.01305E+00 6.19006E-01 2.24979E-02 1.50612E-01 2.08259E-01 4.70271E+00-2.45245E+01-4.43127E+01



 n o d a l   p r i n t   o u t   f o r   t i m e  s t e p   19202                              ( at time 9.5995393E+00 )

 nodal point  x-rot      y-rot       z-rot       x-rot vel   y-rot vel   z-rot vel   x-rot acc   y-rot acc   z-rot acc
    22626 -2.97740E-02 1.47585E-03-3.94538E-04-8.49468E-03 5.26075E-04-2.06105E-04-1.04889E-03-1.60257E-04 7.61000E-04



 n o d a l   p r i n t   o u t   f o r   t i m e  s t e p   19402                              ( at time 9.6995293E+00 )

 nodal point  x-disp     y-disp      z-disp      x-vel       y-vel       z-vel      x-accl      y-accl      z-accl      x-coor      y-coor      z-coor
    22626  4.56735E-02 3.76843E+00 7.32133E-01 2.14980E-02 1.02569E+00 6.42616E-01-6.68267E-03 1.26437E-01 2.36129E-01 4.70505E+00-2.44224E+01-4.42496E+01



 n o d a l   p r i n t   o u t   f o r   t i m e  s t e p   19402                              ( at time 9.6995293E+00 )

 nodal point  x-rot      y-rot       z-rot       x-rot vel   y-rot vel   z-rot vel   x-rot acc   y-rot acc   z-rot acc
    22626 -3.06271E-02 1.53160E-03-4.18951E-04-8.54423E-03 5.48706E-04-2.68668E-04-4.95598E-04 2.26334E-04-6.25695E-04



 n o d a l   p r i n t   o u t   f o r   t i m e  s t e p   19602                              ( at time 9.7995193E+00 )

 nodal point  x-disp     y-disp      z-disp      x-vel       y-vel       z-vel      x-accl      y-accl      z-accl      x-coor      y-coor      z-coor
    22626  4.78556E-02 3.87164E+00 7.97187E-01 2.46719E-02 1.03958E+00 6.59949E-01 3.17417E-02 1.38871E-01 1.73344E-01 4.70723E+00-2.43192E+01-4.41845E+01



 n o d a l   p r i n t   o u t   f o r   t i m e  s t e p   19602                              ( at time 9.7995193E+00 )

 nodal point  x-rot      y-rot       z-rot       x-rot vel   y-rot vel   z-rot vel   x-rot acc   y-rot acc   z-rot acc
    22626 -3.14885E-02 1.58503E-03-4.47785E-04-8.62955E-03 5.11191E-04-3.23085E-04-8.53243E-04-3.75184E-04-5.44226E-04



 n o d a l   p r i n t   o u t   f o r   t i m e  s t e p   19802                              ( at time 9.8995093E+00 )

 nodal point  x-disp     y-disp      z-disp      x-vel       y-vel       z-vel      x-accl      y-accl      z-accl      x-coor      y-coor      z-coor
    22626  5.02078E-02 3.97631E+00 8.64032E-01 2.20979E-02 1.05289E+00 6.80706E-01-2.57421E-02 1.33140E-01 2.07594E-01 4.70958E+00-2.42145E+01-4.41177E+01



 n o d a l   p r i n t   o u t   f o r   t i m e  s t e p   19802                              ( at time 9.8995093E+00 )

 nodal point  x-rot      y-rot       z-rot       x-rot vel   y-rot vel   z-rot vel   x-rot acc   y-rot acc   z-rot acc
    22626 -3.23615E-02 1.63867E-03-4.74738E-04-8.74246E-03 5.70793E-04-2.58535E-04-1.12930E-03 5.96079E-04 6.45566E-04



 n o d a l   p r i n t   o u t   f o r   t i m e  s t e p   20003                              ( at time 9.9999992E+00 )

 nodal point  x-disp     y-disp      z-disp      x-vel       y-vel       z-vel      x-accl      y-accl      z-accl      x-coor      y-coor      z-coor
[...]
    22626 -2.27596E-01 1.54441E-02-8.81478E-03-1.85078E-02 1.28107E-03-8.17036E-04-1.78681E-04 3.45092E-04 6.01474E-05



 n o d a l   p r i n t   o u t   f o r   t i m e  s t e p   45205                              ( at time 2.2599738E+01 )

 nodal point  x-disp     y-disp      z-disp      x-vel       y-vel       z-vel      x-accl      y-accl      z-accl      x-coor      y-coor      z-coor
    22626  7.48775E-01 2.35948E+01 1.96490E+01 7.37242E-02 1.89056E+00 1.16093E+00-6.07449E-03 4.38623E-02-1.08552E-01 5.40815E+00-4.59601E+00-2.53327E+01



 n o d a l   p r i n t   o u t   f o r   t i m e  s t e p   45205                              ( at time 2.2599738E+01 )

 nodal point  x-rot      y-rot       z-rot       x-rot vel   y-rot vel   z-rot vel   x-rot acc   y-rot acc   z-rot acc
    22626 -2.29446E-01 1.55712E-02-8.89557E-03-1.85037E-02 1.27020E-03-7.97563E-04 4.06280E-05-1.08748E-04 1.94747E-04



 n o d a l   p r i n t   o u t   f o r   t i m e  s t e p   45405                              ( at time 2.2699728E+01 )

 nodal point  x-disp     y-disp      z-disp      x-vel       y-vel       z-vel      x-accl      y-accl      z-accl      x-coor      y-coor      z-coor
    22626  7.56119E-01 2.37841E+01 1.97644E+01 7.43265E-02 1.89498E+00 1.14831E+00 6.02386E-03 4.42375E-02-1.26191E-01 5.41549E+00-4.40672E+00-2.52173E+01



 n o d a l   p r i n t   o u t   f o r   t i m e  s t e p   45405                              ( at time 2.2699728E+01 )

 nodal point  x-rot      y-rot       z-rot       x-rot vel   y-rot vel   z-rot vel   x-rot acc   y-rot acc   z-rot acc
    22626 -2.31296E-01 1.56980E-02-8.97517E-03-1.85105E-02 1.28433E-03-7.93716E-04-6.79009E-05 1.41279E-04 3.84725E-05



 n o d a l   p r i n t   o u t   f o r   t i m e  s t e p   45605                              ( at time 2.2799718E+01 )

 nodal point  x-disp     y-disp      z-disp      x-vel       y-vel       z-vel      x-accl      y-accl      z-accl      x-coor      y-coor      z-coor
    22626  7.63637E-01 2.39737E+01 1.98788E+01 7.54031E-02 1.89705E+00 1.13906E+00 1.07671E-02 2.06716E-02-9.24541E-02 5.42301E+00-4.21712E+00-2.51029E+01



 n o d a l   p r i n t   o u t   f o r   t i m e  s t e p   45605                              ( at time 2.2799718E+01 )

 nodal point  x-rot      y-rot       z-rot       x-rot vel   y-rot vel   z-rot vel   x-rot acc   y-rot acc   z-rot acc
    22626 -2.33145E-01 1.58266E-02-9.05267E-03-1.84901E-02 1.28629E-03-7.73103E-04 2.03811E-04 1.96609E-05 2.06151E-04



 n o d a l   p r i n t   o u t   f o r   t i m e  s t e p   45805                              ( at time 2.2899708E+01 )

 nodal point  x-disp     y-disp      z-disp      x-vel       y-vel       z-vel      x-accl      y-accl      z-accl      x-coor      y-coor      z-coor
    22626  7.71118E-01 2.41637E+01 1.99921E+01 7.39730E-02 1.90203E+00 1.12801E+00-1.43027E-02 4.98541E-02-1.10563E-01 5.43049E+00-4.02715E+00-2.49896E+01



 n o d a l   p r i n t   o u t   f o r   t i m e  s t e p   45805                              ( at time 2.2899708E+01 )

 nodal point  x-rot      y-rot       z-rot       x-rot vel   y-rot vel   z-rot vel   x-rot acc   y-rot acc   z-rot acc
    22626 -2.34992E-01 1.59555E-02-9.12946E-03-1.84703E-02 1.27363E-03-7.73797E-04 1.98096E-04-1.26606E-04-6.94436E-06



 n o d a l   p r i n t   o u t   f o r   t i m e  s t e p   46005                              ( at time 2.2999698E+01 )

 nodal point  x-disp     y-disp      z-disp      x-vel       y-vel       z-vel      x-accl      y-accl      z-accl      x-coor      y-coor      z-coor
    22626  7.78524E-01 2.43540E+01 2.01044E+01 7.42876E-02 1.90515E+00 1.11801E+00 3.14659E-03 3.11558E-02-1.00029E-01 5.43790E+00-3.83684E+00-2.48773E+01



 n o d a l   p r i n t   o u t   f o r   t i m e  s t e p   46005                              ( at time 2.2999698E+01 )

 nodal point  x-rot      y-rot       z-rot       x-rot vel   y-rot vel   z-rot vel   x-rot acc   y-rot acc   z-rot acc
    22626 -2.36839E-01 1.60846E-02-9.20602E-03-1.84770E-02 1.29577E-03-7.48021E-04-6.72290E-05 2.21382E-04 2.57787E-04



 n o d a l   p r i n t   o u t   f o r   t i m e  s t e p   46205                              ( at time 2.3099688E+01 )

 nodal point  x-disp     y-disp      z-disp      x-vel       y-vel       z-vel      x-accl      y-accl      z-accl      x-coor      y-coor      z-coor
    22626  7.86047E-01 2.45446E+01 2.02158E+01 7.57564E-02 1.90801E+00 1.10937E+00 1.46898E-02 2.86027E-02-8.64172E-02 5.44542E+00-3.64619E+00-2.47660E+01



 n o d a l   p r i n t   o u t   f o r   t i m e  s t e p   46205                              ( at time 2.3099688E+01 )

 nodal point  x-rot      y-rot       z-rot       x-rot vel   y-rot vel   z-rot vel   x-rot acc   y-rot acc   z-rot acc
    22626 -2.38685E-01 1.62154E-02-9.28044E-03-1.84667E-02 1.31447E-03-7.40321E-04 1.02997E-04 1.87026E-04 7.70010E-05



 n o d a l   p r i n t   o u t   f o r   t i m e  s t e p   46405                              ( at time 2.3199678E+01 )

 nodal point  x-disp     y-disp      z-disp      x-vel       y-vel       z-vel      x-accl      y-accl      z-accl      x-coor      y-coor      z-coor
    22626  7.93620E-01 2.47356E+01 2.03262E+01 7.58076E-02 1.91151E+00 1.10004E+00 5.12125E-04 3.50269E-02-9.33005E-02 5.45299E+00-3.45525E+00-2.46555E+01



 n o d a l   p r i n t   o u t   f o r   t i m e  s t e p   46405                              ( at time 2.3199678E+01 )

 nodal point  x-rot      y-rot       z-rot       x-rot vel   y-rot vel   z-rot vel   x-rot acc   y-rot acc   z-rot acc
    22626 -2.40530E-01 1.63460E-02-9.35489E-03-1.84475E-02 1.29944E-03-7.46096E-04 1.92168E-04-1.50319E-04-5.77531E-05



 n o d a l   p r i n t   o u t   f o r   t i m e  s t e p   46605                              ( at time 2.3299668E+01 )

 nodal point  x-disp     y-disp      z-disp      x-vel       y-vel       z-vel      x-accl      y-accl      z-accl      x-coor      y-coor      z-coor
    22626  8.01139E-01 2.49268E+01 2.04358E+01 7.54236E-02 1.91385E+00 1.09220E+00-3.84038E-03 2.33736E-02-7.83614E-02 5.46051E+00-3.26403E+00-2.45459E+01



 n o d a l   p r i n t   o u t   f o r   t i m e  s t e p   46605                              ( at time 2.3299668E+01 )

 nodal point  x-rot      y-rot       z-rot       x-rot vel   y-rot vel   z-rot vel   x-rot acc   y-rot acc   z-rot acc
    22626 -2.42374E-01 1.64763E-02-9.42935E-03-1.84265E-02 1.30370E-03-7.42011E-04 2.10111E-04 4.26022E-05 4.08593E-05



 n o d a l   p r i n t   o u t   f o r   t i m e  s t e p   46805                              ( at time 2.3399658E+01 )

 nodal point  x-disp     y-disp      z-disp      x-vel       y-vel       z-vel      x-accl      y-accl      z-accl      x-coor      y-coor      z-coor
    22626  8.08779E-01 2.51183E+01 2.05446E+01 7.69081E-02 1.91666E+00 1.08428E+00 1.48460E-02 2.81848E-02-7.92194E-02 5.46815E+00-3.07256E+00-2.44371E+01



 n o d a l   p r i n t   o u t   f o r   t i m e  s t e p   46805                              ( at time 2.3399658E+01 )

 nodal point  x-rot      y-rot       z-rot       x-rot vel   y-rot vel   z-rot vel   x-rot acc   y-rot acc   z-rot acc
    22626 -2.44216E-01 1.66075E-02-9.50335E-03-1.84066E-02 1.31596E-03-7.37889E-04 1.99321E-04 1.22577E-04 4.12264E-05



 n o d a l   p r i n t   o u t   f o r   t i m e  s t e p   47005                              ( at time 2.3499648E+01 )

 nodal point  x-disp     y-disp      z-disp      x-vel       y-vel       z-vel      x-accl      y-accl      z-accl      x-coor      y-coor      z-coor
    22626  8.16524E-01 2.53099E+01 2.06526E+01 7.82984E-02 1.91814E+00 1.07658E+00 1.39045E-02 1.47964E-02-7.70067E-02 5.47590E+00-2.88089E+00-2.43291E+01



 n o d a l   p r i n t   o u t   f o r   t i m e  s t e p   47005                              ( at time 2.3499648E+01 )

 nodal point  x-rot      y-rot       z-rot       x-rot vel   y-rot vel   z-rot vel   x-rot acc   y-rot acc   z-rot acc
    22626 -2.46057E-01 1.67391E-02-9.57703E-03-1.83858E-02 1.31755E-03-7.34650E-04 2.07257E-04 1.59632E-05 3.23839E-05



 n o d a l   p r i n t   o u t   f o r   t i m e  s t e p   47205                              ( at time 2.3599638E+01 )

 nodal point  x-disp     y-disp      z-disp      x-vel       y-vel       z-vel      x-accl      y-accl      z-accl      x-coor      y-coor      z-coor
    22626  8.24286E-01 2.55018E+01 2.07599E+01 7.79514E-02 1.91919E+00 1.06986E+00-3.47072E-03 1.04403E-02-6.71807E-02 5.48366E+00-2.68904E+00-2.42218E+01



 n o d a l   p r i n t   o u t   f o r   t i m e  s t e p   47205                              ( at time 2.3599638E+01 )

 nodal point  x-rot      y-rot       z-rot       x-rot vel   y-rot vel   z-rot vel   x-rot acc   y-rot acc   z-rot acc
    22626 -2.47897E-01 1.68695E-02-9.65080E-03-1.83807E-02 1.29905E-03-7.48728E-04 5.14706E-05-1.85081E-04-1.40796E-04



 n o d a l   p r i n t   o u t   f o r   t i m e  s t e p   47405                              ( at time 2.3699628E+01 )

 nodal point  x-disp     y-disp      z-disp      x-vel       y-vel       z-vel      x-accl      y-accl      z-accl      x-coor      y-coor      z-coor
    22626  8.32116E-01 2.56938E+01 2.08666E+01 7.83166E-02 1.92087E+00 1.06332E+00 3.65246E-03 1.68554E-02-6.54519E-02 5.49149E+00-2.49702E+00-2.41152E+01



 n o d a l   p r i n t   o u t   f o r   t i m e  s t e p   47405                              ( at time 2.3699628E+01 )

 nodal point  x-rot      y-rot       z-rot       x-rot vel   y-rot vel   z-rot vel   x-rot acc   y-rot acc   z-rot acc
    22626 -2.49736E-01 1.69990E-02-9.72482E-03-1.83827E-02 1.30606E-03-7.34534E-04-2.01557E-05 7.01525E-05 1.41954E-04



 n o d a l   p r i n t   o u t   f o r   t i m e  s t e p   47605                              ( at time 2.3799618E+01 )

 nodal point  x-disp     y-disp      z-disp      x-vel       y-vel       z-vel      x-accl      y-accl      z-accl      x-coor      y-coor      z-coor
    22626  8.40135E-01 2.58860E+01 2.09726E+01 8.10365E-02 1.92307E+00 1.05713E+00 2.72017E-02 2.19310E-02-6.18788E-02 5.49951E+00-2.30484E+00-2.40092E+01



 n o d a l   p r i n t   o u t   f o r   t i m e  s t e p   47605                              ( at time 2.3799618E+01 )

 nodal point  x-rot      y-rot       z-rot       x-rot vel   y-rot vel   z-rot vel   x-rot acc   y-rot acc   z-rot acc
    22626 -2.51573E-01 1.71313E-02-9.79817E-03-1.83817E-02 1.31619E-03-7.26639E-04 9.91037E-06 1.01317E-04 7.89622E-05



 n o d a l   p r i n t   o u t   f o r   t i m e  s t e p   47805                              ( at time 2.3899608E+01 )

 nodal point  x-disp     y-disp      z-disp      x-vel       y-vel       z-vel      x-accl      y-accl      z-accl      x-coor      y-coor      z-coor
    22626  8.48166E-01 2.60783E+01 2.10779E+01 8.01136E-02 1.92327E+00 1.05132E+00-9.22913E-03 1.99813E-03-5.81079E-02 5.50754E+00-2.11253E+00-2.39038E+01



 n o d a l   p r i n t   o u t   f o r   t i m e  s t e p   47805                              ( at time 2.3899608E+01 )

 nodal point  x-rot      y-rot       z-rot       x-rot vel   y-rot vel   z-rot vel   x-rot acc   y-rot acc   z-rot acc
    22626 -2.53410E-01 1.72613E-02-9.87020E-03-1.83669E-02 1.28634E-03-7.29533E-04 1.48504E-04-2.98590E-04-2.89476E-05



 n o d a l   p r i n t   o u t   f o r   t i m e  s t e p   48005                              ( at time 2.3999598E+01 )

 nodal point  x-disp     y-disp      z-disp      x-vel       y-vel       z-vel      x-accl      y-accl      z-accl      x-coor      y-coor      z-coor
    22626  8.56140E-01 2.62706E+01 2.11828E+01 8.04852E-02 1.92473E+00 1.04605E+00 3.71602E-03 1.46644E-02-5.27440E-02 5.51552E+00-1.92018E+00-2.37989E+01



 n o d a l   p r i n t   o u t   f o r   t i m e  s t e p   48005                              ( at time 2.3999598E+01 )

 nodal point  x-rot      y-rot       z-rot       x-rot vel   y-rot vel   z-rot vel   x-rot acc   y-rot acc   z-rot acc
    22626 -2.55246E-01 1.73913E-02-9.94322E-03-1.83542E-02 1.31503E-03-7.28378E-04 1.26320E-04 2.87005E-04 1.15584E-05



 n o d a l   p r i n t   o u t   f o r   t i m e  s t e p   48205                              ( at time 2.4099588E+01 )

 nodal point  x-disp     y-disp      z-disp      x-vel       y-vel       z-vel      x-accl      y-accl      z-accl      x-coor      y-coor      z-coor
    22626  8.64282E-01 2.64631E+01 2.12871E+01 8.21194E-02 1.92632E+00 1.04110E+00 1.63438E-02 1.58658E-02-4.94466E-02 5.52366E+00-1.72770E+00-2.36946E+01



 n o d a l   p r i n t   o u t   f o r   t i m e  s t e p   48205                              ( at time 2.4099588E+01 )

 nodal point  x-rot      y-rot       z-rot       x-rot vel   y-rot vel   z-rot vel   x-rot acc   y-rot acc   z-rot acc
    22626 -2.57082E-01 1.75244E-02-1.00149E-02-1.83426E-02 1.33104E-03-7.05118E-04 1.16743E-04 1.60040E-04 2.32614E-04



 n o d a l   p r i n t   o u t   f o r   t i m e  s t e p   48405                              ( at time 2.4199578E+01 )

 nodal point  x-disp     y-disp      z-disp      x-vel       y-vel       z-vel      x-accl      y-accl      z-accl      x-coor      y-coor      z-coor
    22626  8.72492E-01 2.66556E+01 2.13910E+01 8.14855E-02 1.92511E+00 1.03641E+00-6.34018E-03-1.20641E-02-4.69820E-02 5.53187E+00-1.53519E+00-2.35907E+01



 n o d a l   p r i n t   o u t   f o r   t i m e  s t e p   48405                              ( at time 2.4199578E+01 )

 nodal point  x-rot      y-rot       z-rot       x-rot vel   y-rot vel   z-rot vel   x-rot acc   y-rot acc   z-rot acc
    22626 -2.58916E-01 1.76566E-02-1.00854E-02-1.83379E-02 1.30894E-03-7.09152E-04 4.69252E-05-2.21010E-04-4.03383E-05



 n o d a l   p r i n t   o u t   f o r   t i m e  s t e p   48605                              ( at time 2.4299568E+01 )

 nodal point  x-disp     y-disp      z-disp      x-vel       y-vel       z-vel      x-accl      y-accl      z-accl      x-coor      y-coor      z-coor
    22626  8.80592E-01 2.68481E+01 2.14944E+01 8.08505E-02 1.92542E+00 1.03250E+00-6.35056E-03 3.11880E-03-3.91138E-02 5.53997E+00-1.34271E+00-2.34873E+01



 n o d a l   p r i n t   o u t   f o r   t i m e  s t e p   48605                              ( at time 2.4299568E+01 )

 nodal point  x-rot      y-rot       z-rot       x-rot vel   y-rot vel   z-rot vel   x-rot acc   y-rot acc   z-rot acc
    22626 -2.60750E-01 1.77879E-02-1.01569E-02-1.83381E-02 1.32542E-03-7.15068E-04-2.58931E-06 1.64802E-04-5.91659E-05



 n o d a l   p r i n t   o u t   f o r   t i m e  s t e p   48805                              ( at time 2.4399558E+01 )

 nodal point  x-disp     y-disp      z-disp      x-vel       y-vel       z-vel      x-accl      y-accl      z-accl      x-coor      y-coor      z-coor
    22626  8.88804E-01 2.70406E+01 2.15974E+01 8.38249E-02 1.92479E+00 1.02907E+00 2.97470E-02-6.33298E-03-3.42997E-02 5.54818E+00-1.15019E+00-2.33843E+01



 n o d a l   p r i n t   o u t   f o r   t i m e  s t e p   48805                              ( at time 2.4399558E+01 )

 nodal point  x-rot      y-rot       z-rot       x-rot vel   y-rot vel   z-rot vel   x-rot acc   y-rot acc   z-rot acc
    22626 -2.62583E-01 1.79215E-02-1.02272E-02-1.83191E-02 1.35421E-03-6.94747E-04 1.89895E-04 2.87960E-04 2.03223E-04



 n o d a l   p r i n t   o u t   f o r   t i m e  s t e p   49006                              ( at time 2.4500048E+01 )

 nodal point  x-disp     y-disp      z-disp      x-vel       y-vel       z-vel      x-accl      y-accl      z-accl      x-coor      y-coor      z-coor
    22626  8.97224E-01 2.72340E+01 2.17006E+01 8.26385E-02 1.92401E+00 1.02519E+00-1.18068E-02-7.72397E-03-3.85855E-02 5.55660E+00-9.56789E-01-2.32811E+01



 n o d a l   p r i n t   o u t   f o r   t i m e  s t e p   49006                              ( at time 2.4500048E+01 )

 nodal point  x-rot      y-rot       z-rot       x-rot vel   y-rot vel   z-rot vel   x-rot acc   y-rot acc   z-rot acc
    22626 -2.64426E-01 1.80555E-02-1.02964E-02-1.83216E-02 1.31798E-03-6.87152E-04-2.44674E-05-3.60519E-04 7.55904E-05



 n o d a l   p r i n t   o u t   f o r   t i m e  s t e p   49206                              ( at time 2.4600038E+01 )

 nodal point  x-disp     y-disp      z-disp      x-vel       y-vel       z-vel      x-accl      y-accl      z-accl      x-coor      y-coor      z-coor
    22626  9.05561E-01 2.74264E+01 2.18030E+01 8.39574E-02 1.92350E+00 1.02238E+00 1.31900E-02-5.09428E-03-2.80728E-02 5.56494E+00-7.64419E-01-2.31787E+01



 n o d a l   p r i n t   o u t   f o r   t i m e  s t e p   49206                              ( at time 2.4600038E+01 )

 nodal point  x-rot      y-rot       z-rot       x-rot vel   y-rot vel   z-rot vel   x-rot acc   y-rot acc   z-rot acc
    22626 -2.66258E-01 1.81866E-02-1.03660E-02-1.83196E-02 1.31794E-03-7.03420E-04 2.04910E-05-4.19134E-07-1.62697E-04



 n o d a l   p r i n t   o u t   f o r   t i m e  s t e p   49406                              ( at time 2.4700028E+01 )

 nodal point  x-disp     y-disp      z-disp      x-vel       y-vel       z-vel      x-accl      y-accl      z-accl      x-coor      y-coor      z-coor
    22626  9.14019E-01 2.76187E+01 2.19051E+01 8.53714E-02 1.92243E+00 1.01997E+00 1.41421E-02-1.07515E-02-2.41306E-02 5.57339E+00-5.72091E-01-2.30766E+01



 n o d a l   p r i n t   o u t   f o r   t i m e  s t e p   49406                              ( at time 2.4700028E+01 )

 nodal point  x-rot      y-rot       z-rot       x-rot vel   y-rot vel   z-rot vel   x-rot acc   y-rot acc   z-rot acc
    22626 -2.68090E-01 1.83199E-02-1.04352E-02-1.83267E-02 1.33913E-03-6.79918E-04-7.16266E-05 2.11895E-04 2.35041E-04



 n o d a l   p r i n t   o u t   f o r   t i m e  s t e p   49606                              ( at time 2.4800018E+01 )

 nodal point  x-disp     y-disp      z-disp      x-vel       y-vel       z-vel      x-accl      y-accl      z-accl      x-coor      y-coor      z-coor
    22626  9.22564E-01 2.78109E+01 2.20070E+01 8.53798E-02 1.92056E+00 1.01783E+00 8.37522E-05-1.86806E-02-2.13440E-02 5.58194E+00-3.79934E-01-2.29747E+01



 n o d a l   p r i n t   o u t   f o r   t i m e  s t e p   49606                              ( at time 2.4800018E+01 )

 nodal point  x-rot      y-rot       z-rot       x-rot vel   y-rot vel   z-rot vel   x-rot acc   y-rot acc   z-rot acc
    22626 -2.69922E-01 1.84532E-02-1.05025E-02-1.83107E-02 1.32365E-03-6.69587E-04 1.60202E-04-1.54786E-04 1.03325E-04



 n o d a l   p r i n t   o u t   f o r   t i m e  s t e p   49806                              ( at time 2.4900008E+01 )

 nodal point  x-disp     y-disp      z-disp      x-vel       y-vel       z-vel      x-accl      y-accl      z-accl      x-coor      y-coor      z-coor
    22626  9.31150E-01 2.80029E+01 2.21087E+01 8.54648E-02 1.91987E+00 1.01665E+00 8.50429E-04-6.92086E-03-1.18781E-02 5.59053E+00-1.87929E-01-2.28730E+01



 n o d a l   p r i n t   o u t   f o r   t i m e  s t e p   49806                              ( at time 2.4900008E+01 )

 nodal point  x-rot      y-rot       z-rot       x-rot vel   y-rot vel   z-rot vel   x-rot acc   y-rot acc   z-rot acc
    22626 -2.71753E-01 1.85872E-02-1.05699E-02-1.83159E-02 1.35189E-03-6.67789E-04-5.16941E-05 2.82427E-04 1.79806E-05



 n o d a l   p r i n t   o u t   f o r   t i m e  s t e p   50006                              ( at time 2.4999998E+01 )

 nodal point  x-disp     y-disp      z-disp      x-vel       y-vel       z-vel      x-accl      y-accl      z-accl      x-coor      y-coor      z-coor
    22626  9.39701E-01 2.81948E+01 2.22103E+01 8.62154E-02 1.91804E+00 1.01545E+00 7.50692E-03-1.82538E-02-1.19173E-02 5.59908E+00 3.92715E-03-2.27714E+01



 n o d a l   p r i n t   o u t   f o r   t i m e  s t e p   50006                              ( at time 2.4999998E+01 )

 nodal point  x-rot      y-rot       z-rot       x-rot vel   y-rot vel   z-rot vel   x-rot acc   y-rot acc   z-rot acc
    22626 -2.73584E-01 1.87227E-02-1.06365E-02-1.83205E-02 1.35721E-03-6.65227E-04-4.60674E-05 5.32241E-05 2.56166E-05
