 LSTC 50th% Full_FE H-III Dummy (Beta Version, February 17, 2019)        
                    ls-dyna smp s R16 R16.0_619_d222963 date 03/18/2025

{BEGIN LEGEND}
 Entity #        Title
        1     Upper_Neck_Force_INJURY                                              
{END LEGEND}



 line#1  section#     time        x-force     y-force     z-force    magnitude
 line#2  resultant  moments       x-moment    y-moment    z-moment   magnitude
 line#3  centroids                x           y           z            area  
           1    0.00000E+00     0.0000E+00  0.0000E+00  0.0000E+00  0.0000E+00
ac ID =   33377                 0.0000E+00  0.0000E+00  0.0000E+00  0.0000E+00
                               -3.7437E-01  1.0501E+01 -4.6940E+01  0.0000E+00

           1    1.00490E-01     1.3594E-04 -4.9878E-03  2.5982E-01  2.5987E-01
ac ID =   33377                 4.2550E-01 -1.2521E+00 -2.7106E-02  1.3227E+00
                               -3.7387E-01  1.0590E+01 -4.6886E+01  2.5147E+03

           1    2.00480E-01    -4.4391E-02  6.5567E-04  4.4128E-01  4.4350E-01
ac ID =   33377                 3.0867E-01 -1.5964E+00  2.3616E-02  1.6261E+00
                               -3.7386E-01  1.0591E+01 -4.6888E+01  2.5147E+03

           1    3.00470E-01     1.4482E-02 -3.3227E-03  2.1769E-01  2.1820E-01
ac ID =   33377                 2.4518E-02 -3.4110E-01  6.5770E-02  3.4825E-01
                               -3.7382E-01  1.0591E+01 -4.6889E+01  2.5147E+03

           1    4.00460E-01     2.5615E-03  1.0576E-02  8.8186E-02  8.8854E-02
ac ID =   33377                -4.9497E-01 -9.5211E-01 -8.8133E-04  1.0731E+00
                               -3.7383E-01  1.0592E+01 -4.6890E+01  2.5147E+03

           1    5.00450E-01    -3.9891E-02  4.1356E-03  1.6377E-01  1.6861E-01
ac ID =   33377                -3.9362E-01 -1.4829E+00 -1.0345E-01  1.5377E+00
                               -3.7385E-01  1.0594E+01 -4.6893E+01  2.5147E+03

           1    6.00440E-01    -1.0318E-02  3.7871E-03  3.4711E-01  3.4729E-01
ac ID =   33377                 1.0453E-01 -1.2826E+00 -3.7647E-02  1.2874E+00
                               -3.7386E-01  1.0595E+01 -4.6897E+01  2.5147E+03

           1    7.00430E-01     2.0243E-03 -5.3414E-03  2.9577E-01  2.9583E-01
ac ID =   33377                 1.2660E-01 -5.0121E-01  9.6667E-02  5.2591E-01
                               -3.7389E-01  1.0597E+01 -4.6901E+01  2.5147E+03

           1    8.00420E-01    -2.8872E-02 -9.8020E-04  1.0163E-01  1.0566E-01
ac ID =   33377                 7.5036E-02 -9.7809E-01  5.0372E-02  9.8225E-01
                               -3.7395E-01  1.0599E+01 -4.6904E+01  2.5147E+03

           1    9.00410E-01    -3.7562E-02  3.4495E-04  6.8228E-02  7.7885E-02
ac ID =   33377                 1.0240E-01 -1.0179E+00 -1.5133E-02  1.0231E+00
                               -3.7399E-01  1.0601E+01 -4.6909E+01  2.5147E+03

           1    1.00040E+00     1.6310E-02 -3.8421E-03  2.3118E-01  2.3178E-01
ac ID =   33377                 3.5455E-01 -2.2990E-01 -5.6863E-02  4.2637E-01
                               -3.7401E-01  1.0604E+01 -4.6915E+01  2.5147E+03

           1    1.10039E+00     2.0802E-03 -2.9687E-03  2.7415E-01  2.7417E-01
ac ID =   33377                 3.3998E-01 -7.8841E-01 -3.6077E-02  8.5935E-01
                               -3.7401E-01  1.0606E+01 -4.6920E+01  2.5147E+03

           1    1.20038E+00    -3.0397E-02 -5.1198E-05  1.2975E-01  1.3326E-01
ac ID =   33377                -1.6266E-01 -1.0703E+00  1.0374E-02  1.0827E+00
                               -3.7404E-01  1.0609E+01 -4.6926E+01  2.5147E+03

           1    1.30037E+00    -7.1241E-03  5.0055E-03  8.2906E-02  8.3362E-02
ac ID =   33377                -3.0156E-01 -7.6566E-01  2.9142E-03  8.2291E-01
                               -3.7408E-01  1.0612E+01 -4.6932E+01  2.5147E+03

           1    1.40036E+00     8.6601E-03  3.4687E-03  1.9034E-01  1.9056E-01
ac ID =   33377                -2.9634E-01 -7.3787E-01  2.0638E-02  7.9542E-01
                               -3.7410E-01  1.0615E+01 -4.6939E+01  2.5147E+03

           1    1.50035E+00    -2.3547E-02  6.2706E-04  3.3472E-01  3.3555E-01
ac ID =   33377                -6.1034E-03 -1.4176E+00 -1.8567E-02  1.4177E+00
                               -3.7414E-01  1.0619E+01 -4.6947E+01  2.5147E+03

           1    1.60034E+00    -1.5204E-02 -1.0920E-03  2.2287E-01  2.2339E-01
ac ID =   33377                -4.6944E-02 -1.1660E+00 -1.0622E-02  1.1670E+00
                               -3.7420E-01  1.0622E+01 -4.6954E+01  2.5147E+03

           1    1.70033E+00     1.9233E-03 -8.6297E-05  6.7441E-02  6.7468E-02
ac ID =   33377                -5.4509E-02 -4.7737E-01  9.0198E-02  4.8886E-01
                               -3.7428E-01  1.0626E+01 -4.6962E+01  2.5147E+03

           1    1.80032E+00    -1.8644E-02  4.5143E-04  9.2773E-02  9.4629E-02
ac ID =   33377                 1.0282E-01 -9.7735E-01  1.2366E-01  9.9049E-01
                               -3.7434E-01  1.0630E+01 -4.6970E+01  2.5147E+03

           1    1.90031E+00    -2.3873E-03 -1.3906E-03  2.0064E-01  2.0066E-01
ac ID =   33377                 2.2046E-01 -5.9563E-01 -6.7729E-02  6.3872E-01
                               -3.7439E-01  1.0634E+01 -4.6980E+01  2.5147E+03

           1    2.00030E+00     5.6687E-03 -3.0189E-03  1.5996E-01  1.6008E-01
ac ID =   33377                 1.7642E-01 -1.8912E-01 -1.3708E-01  2.9271E-01
                               -3.7444E-01  1.0639E+01 -4.6989E+01  2.5147E+03

           1    2.10029E+00    -1.9739E-02  7.9572E-04  9.8462E-03  2.2073E-02
ac ID =   33377                -6.7508E-02 -4.2522E-01  4.2812E-02  4.3267E-01
                               -3.7449E-01  1.0643E+01 -4.6997E+01  2.5147E+03

           1    2.20028E+00    -7.2359E-03  5.2525E-03  1.5916E-02  1.8256E-02
ac ID =   33377                -2.4544E-01 -3.6990E-01  2.5720E-02  4.4467E-01
                               -3.7455E-01  1.0647E+01 -4.7007E+01  2.5147E+03

           1    2.30027E+00     1.2255E-02  5.5099E-03  1.6463E-01  1.6518E-01
ac ID =   33377                -2.0067E-01 -4.6363E-01 -2.3974E-02  5.0576E-01
                               -3.7460E-01  1.0653E+01 -4.7017E+01  2.5147E+03

           1    2.40026E+00    -5.8262E-03 -2.1192E-03  1.9409E-01  1.9419E-01
ac ID =   33377                -1.6475E-01 -7.9938E-01  1.1335E-01  8.2402E-01
                               -3.7468E-01  1.0658E+01 -4.7027E+01  2.5147E+03

           1    2.50025E+00    -5.7288E-03  9.8783E-05  1.3866E-03  5.8951E-03
ac ID =   33377                -1.4853E-01 -4.3088E-01  1.9448E-01  4.9553E-01
                               -3.7479E-01  1.0663E+01 -4.7037E+01  2.5147E+03

           1    2.60024E+00     4.4961E-03  5.8584E-03 -6.3525E-02  6.3953E-02
ac ID =   33377                -2.1655E-01  2.4308E-01  9.8108E-02  3.4001E-01
                               -3.7492E-01  1.0668E+01 -4.7047E+01  2.5147E+03

           1    2.70023E+00     7.6583E-03 -2.6798E-03  1.3962E-02  1.6148E-02
ac ID =   33377                 6.5083E-02  4.1117E-01  4.2854E-02  4.1849E-01
                               -3.7505E-01  1.0674E+01 -4.7057E+01  2.5147E+03

           1    2.80022E+00     1.9416E-02 -5.9865E-03  5.2874E-02  5.6643E-02
ac ID =   33377                 3.8830E-01  6.7942E-01  4.2617E-02  7.8372E-01
                               -3.7519E-01  1.0680E+01 -4.7068E+01  2.5147E+03

           1    2.90021E+00     3.6796E-02 -3.1251E-03 -2.6713E-02  4.5577E-02
ac ID =   33377                 1.9249E-01  1.2404E+00 -6.1723E-02  1.2568E+00
                               -3.7536E-01  1.0686E+01 -4.7078E+01  2.5147E+03

           1    3.00020E+00     2.7340E-02 -3.3662E-03 -1.0830E-01  1.1175E-01
ac ID =   33377                -3.7739E-02  1.2475E+00  8.4187E-02  1.2509E+00
                               -3.7553E-01  1.0693E+01 -4.7088E+01  2.5147E+03

           1    3.10019E+00     3.1104E-02 -4.9283E-03 -3.7734E-02  4.9149E-02
ac ID =   33377                 2.0024E-01  9.6526E-01  1.6489E-01  9.9951E-01
                               -3.7574E-01  1.0700E+01 -4.7100E+01  2.5147E+03

           1    3.20018E+00     4.9710E-02  4.3425E-03  2.5464E-02  5.6021E-02
ac ID =   33377                 9.1342E-02  1.0118E+00  1.3198E-01  1.0244E+00
                               -3.7600E-01  1.0709E+01 -4.7111E+01  2.5147E+03

           1    3.30017E+00     4.7109E-02 -1.9184E-03 -4.1693E-02  6.2939E-02
ac ID =   33377                -1.6295E-01  1.0594E+00  5.4830E-02  1.0732E+00
                               -3.7633E-01  1.0717E+01 -4.7122E+01  2.5147E+03

           1    3.40016E+00     4.1282E-02 -1.0488E-02 -1.7214E-01  1.7733E-01
ac ID =   33377                -9.8120E-02  1.2501E+00  6.2397E-01  1.4006E+00
                               -3.7671E-01  1.0727E+01 -4.7134E+01  2.5147E+03

           1    3.50015E+00     5.8782E-02  2.2727E-03 -1.9132E-01  2.0016E-01
ac ID =   33377                 1.5797E-01  2.0290E+00  3.9485E-01  2.0731E+00
                               -3.7718E-01  1.0737E+01 -4.7146E+01  2.5147E+03

           1    3.60014E+00     5.6443E-02  6.7246E-03 -1.4254E-01  1.5346E-01
ac ID =   33377                 3.3508E-01  2.5465E+00 -6.5492E-01  2.6507E+00
                               -3.7769E-01  1.0749E+01 -4.7158E+01  2.5147E+03

           1    3.70013E+00     7.6195E-02 -3.1488E-02 -1.6427E-01  1.8380E-01
ac ID =   33377                 1.0036E+00  2.8692E+00 -1.7569E-01  3.0447E+00
                               -3.7826E-01  1.0761E+01 -4.7171E+01  2.5147E+03

           1    3.80012E+00     6.4606E-02 -2.5352E-02 -2.3791E-01  2.4782E-01
ac ID =   33377                 3.9550E-01  2.9108E+00  7.9113E-01  3.0422E+00
                               -3.7887E-01  1.0775E+01 -4.7183E+01  2.5147E+03

           1    3.90011E+00     7.2109E-02  1.3304E-02 -3.3350E-01  3.4147E-01
ac ID =   33377                 2.9771E-01  3.6564E+00 -1.7961E-01  3.6729E+00
                               -3.7947E-01  1.0789E+01 -4.7196E+01  2.5147E+03

           1    4.00010E+00     8.2954E-02  6.9151E-03 -2.7159E-01  2.8406E-01
ac ID =   33377                 1.0660E-01  2.8766E+00 -6.8049E-01  2.9580E+00
                               -3.8003E-01  1.0805E+01 -4.7209E+01  2.5147E+03

           1    4.10009E+00     6.7039E-02 -2.6698E-02 -2.5102E-01  2.6119E-01
ac ID =   33377                 2.0495E-01  2.3453E+00  4.9647E-01  2.4060E+00
                               -3.8051E-01  1.0823E+01 -4.7223E+01  2.5147E+03

           1    4.20008E+00     8.9228E-02  1.7090E-03 -3.2588E-01  3.3788E-01
ac ID =   33377                -3.3241E-01  3.4067E+00  8.9992E-01  3.5392E+00
                               -3.8110E-01  1.0841E+01 -4.7236E+01  2.5147E+03

           1    4.30007E+00     9.6369E-02  3.6164E-02 -4.1425E-01  4.2685E-01
ac ID =   33377                -1.4324E-01  3.5666E+00 -1.9538E-01  3.5748E+00
                               -3.8174E-01  1.0861E+01 -4.7250E+01  2.5147E+03

           1    4.40006E+00     9.7017E-02 -6.2411E-03 -4.1146E-01  4.2279E-01
ac ID =   33377                 1.9294E-01  3.5299E+00 -4.1326E-03  3.5351E+00
                               -3.8227E-01  1.0883E+01 -4.7264E+01  2.5147E+03

           1    4.50005E+00     7.9883E-02 -2.9320E-02 -3.6193E-01  3.7179E-01
ac ID =   33377                 7.5747E-01  3.7983E+00  7.5737E-01  3.9464E+00
                               -3.8276E-01  1.0906E+01 -4.7278E+01  2.5147E+03

           1    4.60004E+00     1.3996E-01  2.9959E-02 -4.1751E-01  4.4136E-01
ac ID =   33377                 8.6636E-02  4.5107E+00 -3.5779E-01  4.5257E+00
                               -3.8330E-01  1.0931E+01 -4.7292E+01  2.5147E+03

           1    4.70003E+00     8.8133E-02  8.9465E-03 -5.1067E-01  5.1830E-01
ac ID =   33377                 8.6929E-01  3.4122E+00 -1.2695E+00  3.7431E+00
                               -3.8368E-01  1.0957E+01 -4.7306E+01  2.5147E+03

           1    4.80002E+00     8.8934E-02 -3.8961E-02 -5.4966E-01  5.5817E-01
ac ID =   33377                 7.0184E-01  3.2574E+00  2.4186E-01  3.3409E+00
                               -3.8393E-01  1.0985E+01 -4.7321E+01  2.5147E+03

           1    4.90001E+00     1.0056E-01 -1.0803E-02 -4.9467E-01  5.0491E-01
ac ID =   33377                -1.9368E-01  4.0147E+00  1.4333E+00  4.2673E+00
                               -3.8424E-01  1.1016E+01 -4.7335E+01  2.5147E+03

           1    5.00000E+00     1.0795E-01  2.8006E-02 -5.3629E-01  5.4776E-01
ac ID =   33377                -2.9425E-01  3.2497E+00 -6.0685E-02  3.2636E+00
                               -3.8454E-01  1.1047E+01 -4.7350E+01  2.5147E+03

           1    5.10049E+00     1.0686E-01  1.4597E-03 -6.2062E-01  6.2975E-01
ac ID =   33377                 3.2633E-01  4.2013E+00 -1.4036E+00  4.4415E+00
                               -3.8462E-01  1.1081E+01 -4.7365E+01  2.5147E+03

           1    5.20048E+00     9.7755E-02 -1.0847E-03 -6.6810E-01  6.7521E-01
ac ID =   33377                -2.9791E-01  4.1564E+00 -3.2280E-01  4.1795E+00
                               -3.8462E-01  1.1116E+01 -4.7379E+01  2.5147E+03

           1    5.30047E+00     1.2194E-01 -1.3937E-03 -6.7902E-01  6.8988E-01
ac ID =   33377                -2.6207E-01  4.1051E+00  1.1971E+00  4.2841E+00
                               -3.8471E-01  1.1153E+01 -4.7394E+01  2.5147E+03

           1    5.40046E+00     1.1379E-01  1.6430E-02 -6.3714E-01  6.4743E-01
ac ID =   33377                 2.4999E-01  3.8909E+00  7.9469E-01  3.9791E+00
                               -3.8473E-01  1.1192E+01 -4.7409E+01  2.5147E+03

           1    5.50045E+00     9.3716E-02 -2.1973E-03 -7.8176E-01  7.8736E-01
ac ID =   33377                 5.3988E-01  4.3632E+00 -5.0906E-01  4.4259E+00
                               -3.8458E-01  1.1232E+01 -4.7423E+01  2.5147E+03

           1    5.60044E+00     1.3285E-01  2.1022E-02 -8.6824E-01  8.7860E-01
ac ID =   33377                -9.3130E-01  4.3641E+00 -9.6156E-01  4.5648E+00
                               -3.8449E-01  1.1274E+01 -4.7438E+01  2.5147E+03

           1    5.70043E+00     1.1131E-01 -5.0137E-02 -8.4128E-01  8.5009E-01
ac ID =   33377                 1.1511E+00  3.8580E+00 -9.1904E-01  4.1296E+00
                               -3.8428E-01  1.1317E+01 -4.7452E+01  2.5147E+03

           1    5.80042E+00     1.1872E-01  4.1619E-02 -8.8038E-01  8.8932E-01
ac ID =   33377                -2.3420E-02  4.4127E+00 -3.6164E-01  4.4276E+00
                               -3.8422E-01  1.1363E+01 -4.7467E+01  2.5147E+03

           1    5.90041E+00     1.1723E-01  2.9635E-02 -8.8088E-01  8.8915E-01
ac ID =   33377                -8.3801E-01  4.7790E+00  9.5017E-01  4.9441E+00
                               -3.8380E-01  1.1410E+01 -4.7481E+01  2.5147E+03

           1    6.00040E+00     1.3369E-01 -2.5463E-03 -9.6209E-01  9.7134E-01
ac ID =   33377                 4.7868E-02  4.4320E+00  2.1660E-01  4.4375E+00
                               -3.8338E-01  1.1458E+01 -4.7494E+01  2.5147E+03

           1    6.10039E+00     1.0750E-01 -2.5598E-03 -9.9443E-01  1.0002E+00
ac ID =   33377                -1.7034E-01  3.9611E+00 -3.9705E-01  3.9846E+00
                               -3.8293E-01  1.1508E+01 -4.7507E+01  2.5147E+03

           1    6.20038E+00     1.3823E-01  2.2641E-02 -9.4363E-01  9.5397E-01
ac ID =   33377                -2.4543E-01  4.3833E+00 -1.5796E+00  4.6657E+00
                               -3.8238E-01  1.1560E+01 -4.7521E+01  2.5147E+03

           1    6.30037E+00     1.4464E-01  9.9255E-03 -1.0411E+00  1.0511E+00
ac ID =   33377                -5.3650E-01  3.8112E+00 -1.7270E+00  4.2185E+00
                               -3.8165E-01  1.1613E+01 -4.7533E+01  2.5147E+03

           1    6.40036E+00     1.0238E-01 -7.6253E-03 -1.1320E+00  1.1367E+00
ac ID =   33377                 2.8182E-01  3.9137E+00  1.2724E+00  4.1250E+00
                               -3.8090E-01  1.1668E+01 -4.7545E+01  2.5147E+03

           1    6.50035E+00     1.4851E-01  6.3758E-04 -1.1427E+00  1.1523E+00
ac ID =   33377                 6.9550E-01  4.8471E+00  7.6887E-01  4.9568E+00
                               -3.8012E-01  1.1725E+01 -4.7556E+01  2.5147E+03

           1    6.60034E+00     1.3401E-01  5.6663E-02 -1.2038E+00  1.2126E+00
ac ID =   33377                -8.1677E-01  5.0178E+00 -4.5535E-01  5.1042E+00
                               -3.7913E-01  1.1783E+01 -4.7567E+01  2.5147E+03

           1    6.70033E+00     1.9491E-01 -2.1008E-02 -1.1671E+00  1.1834E+00
ac ID =   33377                 7.1313E-01  5.0470E+00 -2.0131E+00  5.4803E+00
                               -3.7811E-01  1.1842E+01 -4.7578E+01  2.5147E+03

           1    6.80032E+00     6.2122E-02 -3.0688E-02 -1.2593E+00  1.2613E+00
ac ID =   33377                 3.6891E-01  3.8270E+00 -2.2891E+00  4.4746E+00
                               -3.7685E-01  1.1903E+01 -4.7587E+01  2.5147E+03

           1    6.90031E+00     2.1785E-01  6.4585E-02 -1.3117E+00  1.3312E+00
ac ID =   33377                -1.8191E+00  6.5886E+00  3.7336E-01  6.8453E+00
                               -3.7562E-01  1.1965E+01 -4.7596E+01  2.5147E+03

           1    7.00030E+00     1.6719E-01 -2.0522E-02 -1.2749E+00  1.2860E+00
ac ID =   33377                 7.3554E-01  4.9725E+00  2.7149E-01  5.0339E+00
                               -3.7431E-01  1.2029E+01 -4.7603E+01  2.5147E+03

           1    7.10029E+00     1.4755E-01  6.7043E-03 -1.3848E+00  1.3926E+00
ac ID =   33377                -5.1754E-01  5.1243E+00 -1.6260E-01  5.1529E+00
                               -3.7284E-01  1.2094E+01 -4.7610E+01  2.5147E+03

           1    7.20028E+00     1.4025E-01 -1.5272E-03 -1.3934E+00  1.4004E+00
ac ID =   33377                 6.2006E-02  5.3870E+00  1.6665E-02  5.3874E+00
                               -3.7134E-01  1.2161E+01 -4.7616E+01  2.5147E+03

           1    7.30027E+00     2.0374E-01  3.5751E-02 -1.4952E+00  1.5095E+00
ac ID =   33377                -2.3582E-01  6.4819E+00 -9.8872E-01  6.5611E+00
                               -3.6985E-01  1.2229E+01 -4.7621E+01  2.5147E+03

           1    7.40026E+00     2.3510E-01  1.8765E-03 -1.5340E+00  1.5519E+00
ac ID =   33377                 5.5235E-01  6.5751E+00 -2.6131E-01  6.6035E+00
                               -3.6812E-01  1.2299E+01 -4.7625E+01  2.5147E+03

           1    7.50025E+00     1.4059E-01 -1.8409E-02 -1.5090E+00  1.5157E+00
ac ID =   33377                 6.7783E-01  6.2628E+00  6.3813E-01  6.3316E+00
                               -3.6635E-01  1.2370E+01 -4.7628E+01  2.5147E+03

           1    7.60024E+00     2.0994E-01 -1.0791E-03 -1.5352E+00  1.5495E+00
ac ID =   33377                -2.2705E-02  7.1087E+00 -7.1358E-01  7.1445E+00
                               -3.6460E-01  1.2443E+01 -4.7629E+01  2.5147E+03

           1    7.70023E+00     2.3280E-01  3.0739E-02 -1.6173E+00  1.6342E+00
ac ID =   33377                -1.3892E-01  7.0672E+00  7.1175E-01  7.1043E+00
                               -3.6282E-01  1.2517E+01 -4.7629E+01  2.5147E+03

           1    7.80022E+00     2.1619E-01 -1.5803E-02 -1.6307E+00  1.6451E+00
ac ID =   33377                 1.8851E-01  7.2526E+00  5.1536E-01  7.2733E+00
                               -3.6082E-01  1.2592E+01 -4.7627E+01  2.5147E+03

           1    7.90021E+00     1.8507E-01  9.6027E-03 -1.6209E+00  1.6315E+00
ac ID =   33377                -6.8166E-01  6.8598E+00 -5.0549E-01  6.9121E+00
                               -3.5887E-01  1.2669E+01 -4.7625E+01  2.5147E+03

           1    8.00020E+00     2.4894E-01  1.9643E-02 -1.7019E+00  1.7201E+00
ac ID =   33377                 5.0154E-02  8.3748E+00  3.2498E-02  8.3750E+00
                               -3.5684E-01  1.2747E+01 -4.7621E+01  2.5147E+03

           1    8.10019E+00     2.5879E-01 -1.6764E-02 -1.7268E+00  1.7461E+00
ac ID =   33377                 2.3770E-01  8.6956E+00  2.4403E-01  8.7023E+00
                               -3.5482E-01  1.2827E+01 -4.7615E+01  2.5147E+03

           1    8.20018E+00     2.4973E-01  4.1491E-02 -1.8230E+00  1.8405E+00
ac ID =   33377                -2.9490E-01  8.6377E+00  1.2546E+00  8.7333E+00
                               -3.5260E-01  1.2908E+01 -4.7609E+01  2.5147E+03

           1    8.30017E+00     2.5901E-01 -5.1289E-02 -1.8192E+00  1.8383E+00
ac ID =   33377                 1.4714E+00  9.1827E+00 -9.5701E-04  9.2999E+00
                               -3.5040E-01  1.2991E+01 -4.7601E+01  2.5147E+03

           1    8.40016E+00     2.6601E-01  6.5980E-03 -1.8432E+00  1.8623E+00
ac ID =   33377                 1.2115E+00  9.7905E+00 -1.4285E+00  9.9681E+00
                               -3.4838E-01  1.3075E+01 -4.7591E+01  2.5147E+03

           1    8.50015E+00     2.7374E-01  9.8168E-03 -1.8720E+00  1.8919E+00
ac ID =   33377                -3.4416E-01  1.0118E+01  6.9670E-01  1.0148E+01
                               -3.4600E-01  1.3161E+01 -4.7581E+01  2.5147E+03

           1    8.60014E+00     2.4606E-01 -3.1942E-02 -1.9160E+00  1.9320E+00
ac ID =   33377                 1.7045E+00  9.7176E+00  5.5093E-01  9.8813E+00
                               -3.4378E-01  1.3248E+01 -4.7568E+01  2.5147E+03

           1    8.70013E+00     2.4689E-01 -1.4939E-02 -1.9787E+00  1.9941E+00
ac ID =   33377                -4.5962E-01  1.0521E+01 -1.7035E-01  1.0532E+01
                               -3.4148E-01  1.3336E+01 -4.7555E+01  2.5147E+03

           1    8.80012E+00     2.9759E-01  2.2644E-02 -1.9920E+00  2.0142E+00
ac ID =   33377                 4.0317E-01  1.0879E+01 -5.9841E-01  1.0903E+01
                               -3.3918E-01  1.3426E+01 -4.7540E+01  2.5147E+03

           1    8.90011E+00     2.1993E-01 -2.4582E-02 -1.9262E+00  1.9389E+00
ac ID =   33377                 8.0277E-01  9.0645E+00  7.0860E-01  9.1275E+00
                               -3.3685E-01  1.3517E+01 -4.7523E+01  2.5147E+03

           1    9.00010E+00     3.0306E-01  1.1654E-02 -2.0077E+00  2.0305E+00
ac ID =   33377                 6.3734E-02  1.0810E+01  8.9303E-01  1.0847E+01
                               -3.3462E-01  1.3608E+01 -4.7504E+01  2.5147E+03

           1    9.10009E+00     3.0716E-01 -2.8689E-03 -2.1036E+00  2.1259E+00
ac ID =   33377                 5.8920E-01  1.0564E+01  1.5055E+00  1.0687E+01
                               -3.3229E-01  1.3701E+01 -4.7484E+01  2.5147E+03

           1    9.20008E+00     2.6865E-01  1.3560E-02 -2.1060E+00  2.1231E+00
ac ID =   33377                 1.0611E+00  9.8409E+00 -5.7757E-01  9.9148E+00
                               -3.2987E-01  1.3795E+01 -4.7462E+01  2.5147E+03

           1    9.30007E+00     2.8245E-01  1.2867E-02 -2.0012E+00  2.0211E+00
ac ID =   33377                 1.0448E+00  1.1411E+01 -3.0475E+00  1.1857E+01
                               -3.2740E-01  1.3890E+01 -4.7439E+01  2.5147E+03

           1    9.40006E+00     2.5235E-01 -1.0283E-02 -2.0651E+00  2.0805E+00
ac ID =   33377                 4.3263E-01  9.6564E+00 -5.3511E-01  9.6809E+00
                               -3.2464E-01  1.3986E+01 -4.7413E+01  2.5147E+03

           1    9.50005E+00     3.1394E-01  4.3629E-03 -2.1921E+00  2.2145E+00
ac ID =   33377                -4.4987E-02  1.2073E+01  7.7718E-01  1.2098E+01
                               -3.2193E-01  1.4082E+01 -4.7386E+01  2.5147E+03

           1    9.60004E+00     2.8200E-01  3.1261E-02 -2.1739E+00  2.1923E+00
ac ID =   33377                 1.7667E-01  1.0843E+01 -4.5620E-01  1.0854E+01
                               -3.1907E-01  1.4181E+01 -4.7357E+01  2.5147E+03

           1    9.70003E+00     3.1472E-01  3.5340E-02 -2.1470E+00  2.1702E+00
ac ID =   33377                -3.4004E-01  1.1258E+01 -1.0607E+00  1.1313E+01
                               -3.1608E-01  1.4280E+01 -4.7327E+01  2.5147E+03

           1    9.80002E+00     3.0300E-01  2.3696E-02 -2.0756E+00  2.0977E+00
ac ID =   33377                -3.9500E-01  1.0959E+01 -5.3377E-01  1.0979E+01
                               -3.1290E-01  1.4381E+01 -4.7295E+01  2.5147E+03

           1    9.90001E+00     2.8340E-01 -1.2785E-02 -2.2567E+00  2.2744E+00
ac ID =   33377                 3.9877E-01  1.1255E+01 -1.6353E-01  1.1263E+01
                               -3.0963E-01  1.4483E+01 -4.7261E+01  2.5147E+03

           1    1.00005E+01     3.2598E-01  3.7770E-02 -2.2701E+00  2.2937E+00
ac ID =   33377                 1.7067E-01  1.2231E+01  8.4080E-01  1.2261E+01
                               -3.0625E-01  1.4587E+01 -4.7225E+01  2.5147E+03

           1    1.01005E+01     2.9081E-01  4.6107E-02 -2.2041E+00  2.2237E+00
ac ID =   33377                -5.3083E-01  1.0490E+01 -4.1430E-02  1.0504E+01
                               -3.0270E-01  1.4691E+01 -4.7189E+01  2.5147E+03

           1    1.02005E+01     3.2223E-01 -4.5643E-02 -2.2321E+00  2.2557E+00
ac ID =   33377                 1.2117E+00  1.2378E+01 -1.3154E+00  1.2507E+01
                               -2.9893E-01  1.4797E+01 -4.7150E+01  2.5147E+03

           1    1.03005E+01     3.0850E-01 -5.0048E-03 -2.2627E+00  2.2837E+00
ac ID =   33377                 2.8563E-01  1.1002E+01  1.9182E-01  1.1007E+01
                               -2.9502E-01  1.4904E+01 -4.7109E+01  2.5147E+03

           1    1.04005E+01     3.0509E-01  2.3739E-02 -2.3244E+00  2.3444E+00
ac ID =   33377                -4.9324E-01  1.1405E+01 -8.8002E-01  1.1449E+01
                               -2.9121E-01  1.5012E+01 -4.7067E+01  2.5147E+03

           1    1.05004E+01     3.0085E-01  1.4096E-02 -2.3166E+00  2.3361E+00
ac ID =   33377                 3.7602E-01  1.1312E+01  1.5589E+00  1.1425E+01
                               -2.8726E-01  1.5122E+01 -4.7022E+01  2.5147E+03

           1    1.06004E+01     3.1298E-01 -1.5206E-03 -2.1702E+00  2.1926E+00
ac ID =   33377                -2.7273E-01  1.0551E+01 -9.1789E-03  1.0554E+01
                               -2.8315E-01  1.5232E+01 -4.6976E+01  2.5147E+03

           1    1.07004E+01     2.9403E-01 -2.0948E-02 -2.2093E+00  2.2289E+00
ac ID =   33377                 2.9331E-01  1.0027E+01 -1.3514E+00  1.0122E+01
                               -2.7920E-01  1.5343E+01 -4.6927E+01  2.5147E+03

           1    1.08004E+01     3.1531E-01  5.8771E-02 -2.3177E+00  2.3398E+00
ac ID =   33377                -5.3845E-01  1.0810E+01 -5.3251E-01  1.0836E+01
                               -2.7522E-01  1.5456E+01 -4.6876E+01  2.5147E+03

           1    1.09004E+01     2.8225E-01  1.3492E-02 -2.2374E+00  2.2552E+00
ac ID =   33377                 2.7086E-01  1.0200E+01 -8.5070E-01  1.0239E+01
                               -2.7094E-01  1.5569E+01 -4.6824E+01  2.5147E+03

           1    1.10004E+01     2.9030E-01  5.8297E-02 -2.1602E+00  2.1804E+00
ac ID =   33377                -9.4681E-01  9.7290E+00 -3.4264E-01  9.7809E+00
                               -2.6650E-01  1.5684E+01 -4.6770E+01  2.5147E+03

           1    1.11004E+01     3.3458E-01 -1.3459E-03 -2.2081E+00  2.2333E+00
ac ID =   33377                 4.6796E-01  1.1282E+01 -4.6339E-01  1.1301E+01
                               -2.6169E-01  1.5799E+01 -4.6712E+01  2.5147E+03

           1    1.12004E+01     2.9848E-01  3.1069E-02 -2.2666E+00  2.2864E+00
ac ID =   33377                -9.3101E-01  9.8322E+00  1.4536E-02  9.8762E+00
                               -2.5682E-01  1.5914E+01 -4.6653E+01  2.5147E+03

           1    1.13004E+01     2.6195E-01  2.2680E-02 -2.2021E+00  2.2177E+00
ac ID =   33377                -4.6733E-01  9.6008E+00 -1.0516E+00  9.6695E+00
                               -2.5178E-01  1.6031E+01 -4.6592E+01  2.5147E+03

           1    1.14004E+01     3.1195E-01  1.5696E-02 -2.0602E+00  2.0837E+00
ac ID =   33377                -9.3256E-01  9.5726E+00 -1.8339E+00  9.7912E+00
                               -2.4644E-01  1.6149E+01 -4.6529E+01  2.5147E+03

           1    1.15003E+01     3.0943E-01 -7.4453E-04 -2.1147E+00  2.1373E+00
ac ID =   33377                 8.1457E-02  9.4311E+00 -7.7136E-01  9.4629E+00
                               -2.4097E-01  1.6267E+01 -4.6464E+01  2.5147E+03

           1    1.16003E+01     2.8622E-01 -7.1393E-03 -2.2351E+00  2.2534E+00
ac ID =   33377                -2.5580E-01  9.2899E+00 -1.5027E-03  9.2934E+00
                               -2.3541E-01  1.6386E+01 -4.6396E+01  2.5147E+03

           1    1.17003E+01     3.4683E-01  6.3941E-02 -2.1469E+00  2.1757E+00
ac ID =   33377                -8.9750E-01  9.8580E+00 -1.0644E+00  9.9559E+00
                               -2.2986E-01  1.6506E+01 -4.6326E+01  2.5147E+03

           1    1.18003E+01     2.4128E-01  2.2024E-02 -2.0623E+00  2.0765E+00
ac ID =   33377                -6.9986E-01  8.3180E+00 -1.7962E-01  8.3494E+00
                               -2.2381E-01  1.6627E+01 -4.6255E+01  2.5147E+03

           1    1.19003E+01     3.2433E-01 -1.7646E-02 -2.0964E+00  2.1214E+00
ac ID =   33377                 3.9385E-02  9.4219E+00 -5.7169E-01  9.4393E+00
                               -2.1768E-01  1.6748E+01 -4.6181E+01  2.5147E+03

           1    1.20003E+01     3.1730E-01  5.1029E-02 -2.1454E+00  2.1693E+00
ac ID =   33377                -1.2172E+00  9.8357E+00 -8.3257E-01  9.9456E+00
                               -2.1156E-01  1.6870E+01 -4.6105E+01  2.5147E+03

           1    1.21003E+01     2.9032E-01  4.5338E-02 -2.1231E+00  2.1433E+00
ac ID =   33377                -9.8272E-01  8.9534E+00 -1.0268E+00  9.0655E+00
                               -2.0536E-01  1.6993E+01 -4.6027E+01  2.5147E+03

           1    1.22003E+01     2.9546E-01  7.3670E-03 -2.0284E+00  2.0498E+00
ac ID =   33377                -1.4079E+00  8.8670E+00  8.4529E-01  9.0178E+00
                               -1.9868E-01  1.7117E+01 -4.5947E+01  2.5147E+03

           1    1.23003E+01     3.1991E-01 -1.9369E-02 -1.9198E+00  1.9464E+00
ac ID =   33377                 7.7586E-01  8.5854E+00 -1.8080E+00  8.8080E+00
                               -1.9219E-01  1.7241E+01 -4.5866E+01  2.5147E+03

           1    1.24003E+01     3.0192E-01  3.8439E-02 -1.9379E+00  1.9617E+00
ac ID =   33377                -1.2700E+00  8.1270E+00 -2.1501E+00  8.5020E+00
                               -1.8574E-01  1.7366E+01 -4.5782E+01  2.5147E+03

           1    1.25002E+01     2.7732E-01  3.1460E-02 -1.9830E+00  2.0025E+00
ac ID =   33377                -2.9889E-01  8.0097E+00 -5.8533E-01  8.0366E+00
                               -1.7891E-01  1.7492E+01 -4.5696E+01  2.5147E+03

           1    1.26002E+01     3.3257E-01 -4.3866E-02 -1.9003E+00  1.9297E+00
ac ID =   33377                 4.1243E-01  8.5225E+00 -3.5428E-01  8.5399E+00
                               -1.7208E-01  1.7619E+01 -4.5610E+01  2.5147E+03

           1    1.27002E+01     3.1568E-01  4.3418E-02 -1.7733E+00  1.8017E+00
ac ID =   33377                -3.1051E-03  9.0074E+00 -3.0864E-01  9.0127E+00
                               -1.6530E-01  1.7747E+01 -4.5521E+01  2.5147E+03

           1    1.28002E+01     2.7730E-01  4.0891E-02 -1.8297E+00  1.8510E+00
ac ID =   33377                -1.1740E+00  7.3686E+00 -3.5768E-01  7.4701E+00
                               -1.5829E-01  1.7875E+01 -4.5431E+01  2.5147E+03

           1    1.29002E+01     3.4577E-01  4.4061E-03 -1.8399E+00  1.8722E+00
ac ID =   33377                 1.3945E-01  9.6876E+00 -1.9684E+00  9.8866E+00
                               -1.5116E-01  1.8005E+01 -4.5339E+01  2.5147E+03

           1    1.30002E+01     3.1990E-01 -9.8144E-03 -1.7473E+00  1.7763E+00
ac ID =   33377                -7.4992E-01  8.3286E+00 -1.7621E+00  8.5459E+00
                               -1.4408E-01  1.8135E+01 -4.5246E+01  2.5147E+03

           1    1.31002E+01     2.5294E-01  4.8251E-02 -1.6750E+00  1.6947E+00
ac ID =   33377                -7.0372E-01  7.0405E+00 -1.4637E+00  7.2253E+00
                               -1.3702E-01  1.8266E+01 -4.5151E+01  2.5147E+03

           1    1.32002E+01     2.9904E-01  7.6062E-03 -1.6369E+00  1.6641E+00
ac ID =   33377                -2.8548E-01  7.5953E+00 -1.1074E+00  7.6809E+00
                               -1.2983E-01  1.8397E+01 -4.5055E+01  2.5147E+03

           1    1.33002E+01     3.5461E-01 -2.0874E-02 -1.6964E+00  1.7332E+00
ac ID =   33377                 5.7459E-01  8.0749E+00 -5.3806E-01  8.1132E+00
                               -1.2259E-01  1.8530E+01 -4.4957E+01  2.5147E+03

           1    1.34002E+01     2.9351E-01 -6.9039E-03 -1.6362E+00  1.6624E+00
ac ID =   33377                -2.9550E-01  6.2014E+00 -5.4780E-01  6.2325E+00
                               -1.1538E-01  1.8663E+01 -4.4858E+01  2.5147E+03

           1    1.35001E+01     2.9885E-01  2.2561E-02 -1.5549E+00  1.5835E+00
ac ID =   33377                 2.9219E-01  6.6904E+00 -1.5985E+00  6.8849E+00
                               -1.0821E-01  1.8797E+01 -4.4758E+01  2.5147E+03

           1    1.36001E+01     3.1644E-01 -1.6758E-02 -1.5057E+00  1.5387E+00
ac ID =   33377                 7.5235E-01  6.7264E+00 -1.0555E+00  6.8502E+00
                               -1.0071E-01  1.8931E+01 -4.4657E+01  2.5147E+03

           1    1.37001E+01     2.7310E-01 -2.0211E-02 -1.4953E+00  1.5202E+00
ac ID =   33377                 5.1923E-01  5.9144E+00 -5.2940E-01  5.9607E+00
                               -9.3340E-02  1.9067E+01 -4.4554E+01  2.5147E+03

           1    1.38001E+01     2.7340E-01  1.7545E-02 -1.4870E+00  1.5121E+00
ac ID =   33377                -4.5573E-01  5.4351E+00  3.2737E-01  5.4640E+00
                               -8.6005E-02  1.9203E+01 -4.4449E+01  2.5147E+03

           1    1.39001E+01     3.1206E-01  9.9751E-04 -1.4400E+00  1.4735E+00
ac ID =   33377                 3.6797E-01  5.8541E+00  8.0202E-02  5.8662E+00
                               -7.8492E-02  1.9339E+01 -4.4344E+01  2.5147E+03

           1    1.40001E+01     2.9920E-01 -2.1341E-02 -1.3026E+00  1.3367E+00
ac ID =   33377                 8.5626E-01  5.3779E+00  5.7079E-01  5.4754E+00
                               -7.1093E-02  1.9477E+01 -4.4238E+01  2.5147E+03

           1    1.41001E+01     2.3241E-01  1.4548E-02 -1.2599E+00  1.2813E+00
ac ID =   33377                 2.3081E-02  3.9537E+00  9.5656E-02  3.9549E+00
                               -6.3794E-02  1.9615E+01 -4.4131E+01  2.5147E+03

           1    1.42001E+01     2.5867E-01 -3.3365E-02 -1.2989E+00  1.3248E+00
ac ID =   33377                 9.9269E-01  4.4977E+00 -1.9216E-01  4.6100E+00
                               -5.6302E-02  1.9754E+01 -4.4022E+01  2.5147E+03

           1    1.43001E+01     2.7584E-01 -1.4289E-02 -1.2383E+00  1.2688E+00
ac ID =   33377                 5.5555E-01  5.3155E+00 -1.9016E-01  5.3479E+00
                               -4.8847E-02  1.9893E+01 -4.3913E+01  2.5147E+03

           1    1.44001E+01     2.2599E-01  8.5000E-03 -1.1060E+00  1.1289E+00
ac ID =   33377                 3.5018E-01  3.2471E+00 -1.3105E+00  3.5190E+00
                               -4.1509E-02  2.0033E+01 -4.3802E+01  2.5147E+03

           1    1.45000E+01     2.7397E-01 -1.0602E-02 -1.0631E+00  1.0979E+00
ac ID =   33377                 5.5287E-01  3.6627E+00 -1.2752E+00  3.9175E+00
                               -3.3915E-02  2.0174E+01 -4.3690E+01  2.5147E+03

           1    1.46000E+01     2.1735E-01 -1.0514E-02 -1.0836E+00  1.1052E+00
ac ID =   33377                -1.6629E-01  2.8457E+00  2.1663E-01  2.8588E+00
                               -2.6403E-02  2.0315E+01 -4.3577E+01  2.5147E+03

           1    1.47000E+01     2.0908E-01  1.5199E-02 -1.0618E+00  1.0823E+00
ac ID =   33377                 1.0794E-01  2.4460E+00  3.5395E-03  2.4483E+00
                               -1.9100E-02  2.0456E+01 -4.3464E+01  2.5147E+03

           1    1.48005E+01     2.1911E-01  2.3243E-02 -9.7948E-01  1.0040E+00
ac ID =   33377                -3.1360E-01  1.9617E+00  6.5963E-01  2.0933E+00
                               -1.1731E-02  2.0599E+01 -4.3349E+01  2.5147E+03

           1    1.49005E+01     2.4227E-01 -5.5523E-03 -9.0230E-01  9.3428E-01
ac ID =   33377                 1.2925E-01  2.5988E+00 -4.2436E-01  2.6364E+00
                               -4.1912E-03  2.0741E+01 -4.3233E+01  2.5147E+03

           1    1.50005E+01     2.1013E-01  3.3432E-04 -9.0817E-01  9.3216E-01
ac ID =   33377                 4.4936E-03  3.0111E+00 -6.3976E-01  3.0784E+00
                                3.2474E-03  2.0884E+01 -4.3117E+01  2.5147E+03

           1    1.51005E+01     1.9619E-01 -3.9537E-03 -8.9163E-01  9.1296E-01
ac ID =   33377                 8.5863E-01  2.4474E+00 -5.7766E-01  2.6572E+00
                                1.0728E-02  2.1027E+01 -4.3000E+01  2.5147E+03

           1    1.52005E+01     2.6535E-01  1.4725E-02 -8.1242E-01  8.5478E-01
ac ID =   33377                -5.0302E-01  2.9960E+00  2.1244E-01  3.0454E+00
                                1.8285E-02  2.1170E+01 -4.2882E+01  2.5147E+03

           1    1.53005E+01     1.9286E-01  5.7782E-03 -7.1160E-01  7.3729E-01
ac ID =   33377                 9.1774E-01  2.6353E+00 -1.1875E+00  3.0327E+00
                                2.5803E-02  2.1315E+01 -4.2764E+01  2.5147E+03

           1    1.54005E+01     2.2784E-01 -1.0019E-02 -7.7093E-01  8.0396E-01
ac ID =   33377                 1.3888E-01  3.3419E+00 -1.2594E+00  3.5740E+00
                                3.3216E-02  2.1460E+01 -4.2645E+01  2.5147E+03

           1    1.55004E+01     2.6591E-01  2.1918E-02 -7.1072E-01  7.5915E-01
ac ID =   33377                 7.0606E-01  4.7530E+00 -4.6790E-01  4.8279E+00
                                4.0634E-02  2.1605E+01 -4.2526E+01  2.5147E+03

           1    1.56004E+01     1.9852E-01 -3.3434E-02 -6.0514E-01  6.3775E-01
ac ID =   33377                 4.7092E-01  3.7984E+00 -5.6112E-01  3.8684E+00
                                4.8041E-02  2.1751E+01 -4.2407E+01  2.5147E+03

           1    1.57004E+01     1.8378E-01  4.0983E-02 -6.0400E-01  6.3267E-01
ac ID =   33377                 6.0008E-01  3.1828E+00  2.3126E-01  3.2471E+00
                                5.5073E-02  2.1897E+01 -4.2288E+01  2.5147E+03

           1    1.58004E+01     2.5184E-01 -3.2136E-02 -5.1062E-01  5.7025E-01
ac ID =   33377                 7.2924E-01  4.1452E+00  6.4949E-01  4.2587E+00
                                6.2424E-02  2.2044E+01 -4.2168E+01  2.5147E+03

           1    1.59004E+01     1.6075E-01  6.6102E-03 -4.8838E-01  5.1419E-01
ac ID =   33377                 7.2249E-01  2.3058E+00 -5.6077E-01  2.4806E+00
                                6.9504E-02  2.2190E+01 -4.2048E+01  2.5147E+03

           1    1.60004E+01     1.7468E-01 -1.5757E-02 -4.9577E-01  5.2588E-01
ac ID =   33377                 3.4609E-01  3.6790E+00  3.3975E-01  3.7108E+00
                                7.6574E-02  2.2337E+01 -4.1928E+01  2.5147E+03

           1    1.61004E+01     2.7844E-01 -8.4852E-03 -3.5870E-01  4.5416E-01
ac ID =   33377                 1.3607E+00  4.5342E+00 -4.2136E-01  4.7527E+00
                                8.3390E-02  2.2485E+01 -4.1808E+01  2.5147E+03

           1    1.62004E+01     1.4221E-01  7.0158E-03 -3.3649E-01  3.6538E-01
ac ID =   33377                -1.9300E-01  2.3539E+00 -4.3639E-01  2.4017E+00
                                9.0417E-02  2.2633E+01 -4.1688E+01  2.5147E+03

           1    1.63004E+01     1.9258E-01 -6.4038E-03 -3.1429E-01  3.6865E-01
ac ID =   33377                 8.5346E-02  3.3685E+00 -5.9757E-01  3.4222E+00
                                9.7415E-02  2.2780E+01 -4.1568E+01  2.5147E+03

           1    1.64004E+01     1.4796E-01 -1.1906E-02 -2.6284E-01  3.0185E-01
ac ID =   33377                 1.2633E+00  2.5337E+00 -4.3456E-01  2.8644E+00
                                1.0422E-01  2.2928E+01 -4.1448E+01  2.5147E+03

           1    1.65003E+01     2.4693E-01  1.3354E-02 -2.3830E-01  3.4342E-01
ac ID =   33377                -1.2820E+00  3.5533E+00  2.3994E-01  3.7851E+00
                                1.1136E-01  2.3077E+01 -4.1328E+01  2.5147E+03

           1    1.66003E+01     1.4363E-01  2.7050E-02 -1.6366E-01  2.1942E-01
ac ID =   33377                -1.0270E-02  1.3252E+00 -2.8690E-01  1.3559E+00
                                1.1827E-01  2.3226E+01 -4.1209E+01  2.5147E+03

           1    1.67003E+01     1.7847E-01 -3.5660E-02 -1.6617E-01  2.4644E-01
ac ID =   33377                 9.2518E-01  2.8033E+00  8.8665E-02  2.9533E+00
                                1.2534E-01  2.3375E+01 -4.1090E+01  2.5147E+03

           1    1.68003E+01     1.8000E-01  3.0401E-02 -1.0011E-01  2.0820E-01
ac ID =   33377                -3.4243E-01  2.7346E+00 -7.2194E-02  2.7569E+00
                                1.3221E-01  2.3524E+01 -4.0972E+01  2.5147E+03

           1    1.69003E+01     1.1901E-01 -1.6267E-02 -6.8595E-02  1.3832E-01
ac ID =   33377                 5.1829E-01  1.0966E+00 -7.8811E-01  1.4465E+00
                                1.3912E-01  2.3674E+01 -4.0853E+01  2.5147E+03

           1    1.70003E+01     1.6386E-01  6.3532E-03 -2.0955E-02  1.6532E-01
ac ID =   33377                 1.0649E+00  9.2791E-01 -1.4638E+00  2.0342E+00
                                1.4589E-01  2.3823E+01 -4.0736E+01  2.5147E+03

           1    1.71003E+01     1.7240E-01 -3.0387E-02  1.1424E-02  1.7543E-01
ac ID =   33377                 6.7816E-01  2.4555E+00 -9.9088E-01  2.7334E+00
                                1.5279E-01  2.3974E+01 -4.0619E+01  2.5147E+03

           1    1.72003E+01     7.2906E-02  1.7854E-02  4.6594E-02  8.8346E-02
ac ID =   33377                 5.5130E-01 -1.0591E-01 -2.2173E-01  6.0358E-01
                                1.5949E-01  2.4124E+01 -4.0502E+01  2.5147E+03

           1    1.73003E+01     1.4349E-01 -1.8556E-03  3.5024E-02  1.4772E-01
ac ID =   33377                 9.7323E-01  8.1944E-01 -2.6767E-01  1.3001E+00
                                1.6621E-01  2.4275E+01 -4.0387E+01  2.5147E+03

           1    1.74003E+01     1.9184E-01 -9.4010E-03  1.0140E-01  2.1719E-01
ac ID =   33377                 2.4035E-01  8.6326E-01 -5.3256E-01  1.0424E+00
                                1.7288E-01  2.4426E+01 -4.0272E+01  2.5147E+03

           1    1.75002E+01     8.2888E-02  1.3172E-02  1.5289E-01  1.7441E-01
ac ID =   33377                 1.0145E+00 -9.9067E-01 -1.3007E+00  1.9242E+00
                                1.7925E-01  2.4577E+01 -4.0157E+01  2.5147E+03

           1    1.76002E+01     1.4410E-01 -2.4521E-03  1.6736E-01  2.2086E-01
ac ID =   33377                 1.6033E-01  1.4687E-01 -8.0033E-01  8.2934E-01
                                1.8587E-01  2.4729E+01 -4.0043E+01  2.5147E+03

           1    1.77002E+01     1.2569E-01 -1.8309E-02  2.1459E-01  2.4936E-01
ac ID =   33377                 1.8638E+00  1.0917E-01 -8.7947E-01  2.0637E+00
                                1.9210E-01  2.4881E+01 -3.9930E+01  2.5147E+03

           1    1.78002E+01     1.0225E-01  2.2196E-02  2.2614E-01  2.4917E-01
ac ID =   33377                 8.7903E-01 -1.2459E-01 -6.1546E-01  1.0803E+00
                                1.9843E-01  2.5033E+01 -3.9818E+01  2.5147E+03

           1    1.79002E+01     1.1349E-01  2.3157E-02  2.7823E-01  3.0138E-01
ac ID =   33377                 7.7127E-01 -5.9024E-01 -1.1374E+00  1.4956E+00
                                2.0495E-01  2.5186E+01 -3.9707E+01  2.5147E+03

           1    1.80002E+01     1.2274E-01 -3.3619E-02  3.1997E-01  3.4435E-01
ac ID =   33377                 1.9064E+00 -5.1986E-01 -6.8746E-01  2.0922E+00
                                2.1151E-01  2.5339E+01 -3.9597E+01  2.5147E+03

           1    1.81002E+01     1.0495E-01  4.6746E-02  3.3604E-01  3.5514E-01
ac ID =   33377                 1.1006E+00 -9.9153E-01  1.8760E-01  1.4932E+00
                                2.1790E-01  2.5492E+01 -3.9487E+01  2.5147E+03

           1    1.82002E+01     1.1047E-01  3.8079E-02  3.5876E-01  3.7731E-01
ac ID =   33377                -2.9564E-01 -1.7465E+00 -9.1691E-02  1.7738E+00
                                2.2476E-01  2.5646E+01 -3.9379E+01  2.5147E+03

           1    1.83002E+01     1.3151E-01 -2.6400E-04  3.9655E-01  4.1778E-01
ac ID =   33377                 1.3785E+00 -7.2203E-01 -9.6100E-01  1.8290E+00
                                2.3155E-01  2.5800E+01 -3.9272E+01  2.5147E+03

           1    1.84002E+01     9.6602E-02  1.2949E-02  4.0202E-01  4.1367E-01
ac ID =   33377                 6.6465E-01 -1.6427E+00 -1.1024E+00  2.0870E+00
                                2.3853E-01  2.5955E+01 -3.9166E+01  2.5147E+03

           1    1.85001E+01     6.5220E-02  1.7082E-02  4.3498E-01  4.4018E-01
ac ID =   33377                 6.2073E-01 -2.0877E+00 -5.6563E-01  2.2503E+00
                                2.4556E-01  2.6110E+01 -3.9060E+01  2.5147E+03

           1    1.86001E+01     1.3296E-01  3.0887E-03  4.7973E-01  4.9782E-01
ac ID =   33377                 1.1633E+00 -1.4170E+00 -7.1023E-01  1.9661E+00
                                2.5282E-01  2.6265E+01 -3.8956E+01  2.5147E+03

           1    1.87001E+01     6.1617E-02 -2.9864E-02  4.8609E-01  4.9089E-01
ac ID =   33377                 1.8927E+00 -3.0879E+00 -1.4210E+00  3.8906E+00
                                2.6007E-01  2.6421E+01 -3.8854E+01  2.5147E+03

           1    1.88001E+01     1.0330E-01 -6.4968E-03  5.1033E-01  5.2072E-01
ac ID =   33377                 1.9102E+00 -2.6703E+00 -1.2658E+00  3.5187E+00
                                2.6734E-01  2.6576E+01 -3.8752E+01  2.5147E+03

           1    1.89001E+01     8.2117E-02  1.8208E-02  5.6670E-01  5.7291E-01
ac ID =   33377                 9.6141E-01 -2.9350E+00 -6.5008E-01  3.1561E+00
                                2.7482E-01  2.6733E+01 -3.8651E+01  2.5147E+03

           1    1.90001E+01     1.1677E-01 -3.3282E-02  5.4448E-01  5.5785E-01
ac ID =   33377                 2.3030E+00 -2.8040E+00 -6.0286E-01  3.6783E+00
                                2.8242E-01  2.6890E+01 -3.8552E+01  2.5147E+03

           1    1.91001E+01     8.5863E-02  1.1244E-02  5.9867E-01  6.0490E-01
ac ID =   33377                 1.2067E+00 -3.1178E+00  4.5358E-01  3.3738E+00
                                2.9002E-01  2.7047E+01 -3.8454E+01  2.5147E+03

           1    1.92001E+01     9.4464E-02  5.3788E-02  6.2197E-01  6.3140E-01
ac ID =   33377                 3.0546E-01 -3.0381E+00 -2.3883E-01  3.0628E+00
                                2.9802E-01  2.7204E+01 -3.8357E+01  2.5147E+03

           1    1.93001E+01     7.5948E-02 -3.7326E-03  6.0066E-01  6.0545E-01
ac ID =   33377                 9.2934E-01 -2.5182E+00 -1.2457E+00  2.9592E+00
                                3.0616E-01  2.7362E+01 -3.8262E+01  2.5147E+03

           1    1.94001E+01     5.7736E-02  1.4195E-02  6.0313E-01  6.0606E-01
ac ID =   33377                 1.1257E+00 -3.8148E+00 -1.1748E+00  4.1473E+00
                                3.1439E-01  2.7521E+01 -3.8167E+01  2.5147E+03

           1    1.95000E+01     5.0548E-02  3.3305E-02  6.7312E-01  6.7584E-01
ac ID =   33377                 1.4589E-01 -3.6543E+00 -1.1400E+00  3.8308E+00
                                3.2292E-01  2.7679E+01 -3.8075E+01  2.5147E+03

           1    1.96000E+01     9.7773E-02  8.9559E-03  6.4626E-01  6.5368E-01
ac ID =   33377                 1.2840E+00 -3.8596E+00 -1.1765E+00  4.2343E+00
                                3.3153E-01  2.7838E+01 -3.7983E+01  2.5147E+03

           1    1.97005E+01     8.3445E-02 -1.3133E-02  6.3559E-01  6.4118E-01
ac ID =   33377                 2.2465E+00 -4.4089E+00 -3.2233E-01  4.9588E+00
                                3.4042E-01  2.7999E+01 -3.7893E+01  2.5147E+03

           1    1.98005E+01     6.5833E-02  2.4833E-02  6.5914E-01  6.6288E-01
ac ID =   33377                 1.2777E+00 -4.4083E+00 -7.7093E-01  4.6540E+00
                                3.4946E-01  2.8158E+01 -3.7804E+01  2.5147E+03

           1    1.99005E+01     5.6903E-02  1.2015E-02  6.8833E-01  6.9078E-01
ac ID =   33377                 1.2364E+00 -4.3768E+00 -1.4764E+00  4.7818E+00
                                3.5868E-01  2.8319E+01 -3.7717E+01  2.5147E+03

           1    2.00005E+01     7.9998E-02 -8.1020E-03  6.8666E-01  6.9135E-01
ac ID =   33377                 1.9082E+00 -4.3416E+00 -4.4297E-01  4.7631E+00
                                3.6802E-01  2.8479E+01 -3.7631E+01  2.5147E+03

           1    2.01005E+01     7.0130E-02  1.8252E-02  6.7759E-01  6.8146E-01
ac ID =   33377                 1.0465E+00 -4.9205E+00 -9.7264E-02  5.0315E+00
                                3.7742E-01  2.8640E+01 -3.7547E+01  2.5147E+03

           1    2.02005E+01     4.5776E-02  4.8370E-02  6.9704E-01  7.0022E-01
ac ID =   33377                -1.6128E-01 -4.9980E+00 -1.2572E-01  5.0022E+00
                                3.8687E-01  2.8802E+01 -3.7465E+01  2.5147E+03

           1    2.03005E+01     6.0880E-02 -2.0355E-03  6.9959E-01  7.0223E-01
ac ID =   33377                 1.3633E+00 -4.9484E+00 -9.3596E-01  5.2174E+00
                                3.9632E-01  2.8963E+01 -3.7383E+01  2.5147E+03

           1    2.04005E+01     6.3464E-02 -4.8912E-04  6.9484E-01  6.9774E-01
ac ID =   33377                 1.1832E+00 -5.4670E+00 -9.7556E-01  5.6780E+00
                                4.0581E-01  2.9126E+01 -3.7304E+01  2.5147E+03

           1    2.05004E+01     6.0498E-02  1.2221E-02  6.9009E-01  6.9284E-01
ac ID =   33377                 8.2784E-01 -5.2915E+00 -6.8320E-01  5.3993E+00
                                4.1520E-01  2.9289E+01 -3.7226E+01  2.5147E+03

           1    2.06004E+01     5.7156E-02  1.8300E-02  7.0791E-01  7.1045E-01
ac ID =   33377                 1.6121E+00 -5.7293E+00 -5.6161E-01  5.9782E+00
                                4.2451E-01  2.9452E+01 -3.7149E+01  2.5147E+03

           1    2.07004E+01     8.5204E-02 -2.3468E-02  6.9483E-01  7.0043E-01
ac ID =   33377                 1.6849E+00 -4.9003E+00 -8.0928E-01  5.2447E+00
                                4.3410E-01  2.9615E+01 -3.7074E+01  2.5147E+03

           1    2.08004E+01     6.1778E-02 -1.4400E-02  7.2741E-01  7.3017E-01
ac ID =   33377                 1.9280E+00 -5.1543E+00 -1.4144E+00  5.6820E+00
                                4.4361E-01  2.9779E+01 -3.7001E+01  2.5147E+03

           1    2.09004E+01     5.2700E-02  2.4952E-02  7.2870E-01  7.3103E-01
ac ID =   33377                 1.0892E+00 -5.5001E+00 -1.0012E+00  5.6956E+00
                                4.5304E-01  2.9944E+01 -3.6930E+01  2.5147E+03

           1    2.10004E+01     8.2823E-02 -1.9165E-02  6.9349E-01  6.9868E-01
ac ID =   33377                 1.5464E+00 -5.0909E+00 -6.2903E-01  5.3576E+00
                                4.6265E-01  3.0108E+01 -3.6860E+01  2.5147E+03

           1    2.11004E+01     8.8630E-02  1.6666E-02  7.0402E-01  7.0978E-01
ac ID =   33377                 4.6871E-01 -5.0768E+00 -6.9885E-01  5.1460E+00
                                4.7221E-01  3.0273E+01 -3.6791E+01  2.5147E+03

           1    2.12004E+01     4.9262E-02  1.7359E-02  7.1514E-01  7.1705E-01
ac ID =   33377                 6.6807E-01 -5.3603E+00 -7.9255E-01  5.4596E+00
                                4.8168E-01  3.0439E+01 -3.6724E+01  2.5147E+03

           1    2.13004E+01     5.8669E-02  7.1794E-04  6.7183E-01  6.7438E-01
ac ID =   33377                 1.2423E+00 -5.5507E+00 -3.3761E-01  5.6981E+00
                                4.9131E-01  3.0605E+01 -3.6659E+01  2.5147E+03

           1    2.14004E+01     9.4048E-02 -7.7848E-03  6.4942E-01  6.5624E-01
ac ID =   33377                 1.3745E+00 -5.0958E+00 -1.0048E+00  5.3727E+00
                                5.0087E-01  3.0771E+01 -3.6595E+01  2.5147E+03

           1    2.15003E+01     7.6166E-02  2.4624E-02  6.5437E-01  6.5925E-01
ac ID =   33377                 1.0737E+00 -6.0584E+00 -9.3495E-01  6.2234E+00
                                5.1035E-01  3.0938E+01 -3.6533E+01  2.5147E+03

           1    2.16003E+01     4.8409E-02 -5.9304E-03  6.5223E-01  6.5406E-01
ac ID =   33377                 2.0056E+00 -6.7257E+00 -1.1272E+00  7.1083E+00
                                5.2000E-01  3.1104E+01 -3.6472E+01  2.5147E+03

           1    2.17003E+01     9.1735E-02 -1.4448E-02  6.1660E-01  6.2355E-01
ac ID =   33377                 1.9211E+00 -6.2160E+00 -9.7425E-01  6.5786E+00
                                5.2969E-01  3.1271E+01 -3.6413E+01  2.5147E+03

           1    2.18003E+01     8.4419E-02  1.7561E-02  6.1107E-01  6.1713E-01
ac ID =   33377                 1.2507E+00 -6.6302E+00 -6.3887E-02  6.7475E+00
                                5.3921E-01  3.1439E+01 -3.6355E+01  2.5147E+03

           1    2.19003E+01     6.6703E-02  5.3345E-03  6.0301E-01  6.0671E-01
ac ID =   33377                 1.1265E+00 -6.9623E+00 -6.6947E-01  7.0846E+00
                                5.4888E-01  3.1607E+01 -3.6298E+01  2.5147E+03

           1    2.20003E+01     5.3406E-02 -1.9486E-02  6.0032E-01  6.0300E-01
ac ID =   33377                 1.2672E+00 -7.3844E+00 -1.6662E+00  7.6754E+00
                                5.5853E-01  3.1775E+01 -3.6243E+01  2.5147E+03

           1    2.21003E+01     1.0630E-01  5.4916E-03  5.6141E-01  5.7141E-01
ac ID =   33377                 1.1458E+00 -6.5753E+00 -1.2158E+00  6.7842E+00
                                5.6792E-01  3.1943E+01 -3.6189E+01  2.5147E+03

           1    2.22003E+01     7.2766E-02  1.4547E-02  5.5725E-01  5.6217E-01
ac ID =   33377                 9.0158E-01 -7.3937E+00 -1.5250E-01  7.4500E+00
                                5.7731E-01  3.2111E+01 -3.6136E+01  2.5147E+03

           1    2.23003E+01     4.4238E-02 -8.0160E-03  5.6168E-01  5.6348E-01
ac ID =   33377                 1.3427E+00 -8.3778E+00 -3.4167E-01  8.4916E+00
                                5.8667E-01  3.2280E+01 -3.6084E+01  2.5147E+03

           1    2.24003E+01     9.5900E-02 -2.0883E-02  5.1252E-01  5.2183E-01
ac ID =   33377                 2.3374E+00 -7.7571E+00 -7.7251E-01  8.1384E+00
                                5.9585E-01  3.2449E+01 -3.6034E+01  2.5147E+03

           1    2.25002E+01     8.2861E-02 -5.7050E-03  5.0210E-01  5.0893E-01
ac ID =   33377                 2.1586E+00 -7.9252E+00 -9.7258E-01  8.2713E+00
                                6.0500E-01  3.2619E+01 -3.5985E+01  2.5147E+03

           1    2.26002E+01     4.0812E-02 -1.0966E-02  5.1765E-01  5.1937E-01
ac ID =   33377                 2.1333E+00 -9.1556E+00 -9.7185E-01  9.4510E+00
                                6.1410E-01  3.2788E+01 -3.5937E+01  2.5147E+03

           1    2.27002E+01     9.0870E-02 -2.4849E-02  4.6002E-01  4.6957E-01
ac ID =   33377                 2.8081E+00 -8.3135E+00 -7.7845E-01  8.8094E+00
                                6.2308E-01  3.2958E+01 -3.5890E+01  2.5147E+03

           1    2.28002E+01     7.6292E-02 -1.1580E-02  4.4231E-01  4.4899E-01
ac ID =   33377                 1.7586E+00 -8.8000E+00 -8.5734E-01  9.0149E+00
                                6.3212E-01  3.3128E+01 -3.5844E+01  2.5147E+03

           1    2.29002E+01     7.4814E-02 -6.8384E-03  4.5448E-01  4.6064E-01
ac ID =   33377                 1.5740E+00 -9.1643E+00 -1.2221E+00  9.3785E+00
                                6.4105E-01  3.3299E+01 -3.5799E+01  2.5147E+03

           1    2.30002E+01     7.0679E-02 -5.7031E-03  4.1041E-01  4.1649E-01
ac ID =   33377                 1.8953E+00 -9.1882E+00 -8.7983E-01  9.4228E+00
                                6.4990E-01  3.3470E+01 -3.5755E+01  2.5147E+03

           1    2.31002E+01     8.9042E-02 -2.3194E-02  3.7616E-01  3.8725E-01
ac ID =   33377                 1.9629E+00 -8.9480E+00 -5.9901E-01  9.1803E+00
                                6.5882E-01  3.3640E+01 -3.5712E+01  2.5147E+03

           1    2.32002E+01     8.9995E-02 -3.3601E-03  3.6227E-01  3.7330E-01
ac ID =   33377                 1.4597E+00 -9.3110E+00 -3.9074E-01  9.4328E+00
                                6.6768E-01  3.3811E+01 -3.5669E+01  2.5147E+03

           1    2.33002E+01     7.7638E-02 -2.1835E-03  3.4444E-01  3.5309E-01
ac ID =   33377                 1.9689E+00 -9.5704E+00 -2.2193E-01  9.7734E+00
                                6.7655E-01  3.3983E+01 -3.5628E+01  2.5147E+03

           1    2.34002E+01     9.6231E-02 -2.8591E-02  3.1974E-01  3.3513E-01
ac ID =   33377                 2.7567E+00 -9.0172E+00 -1.0716E+00  9.4899E+00
                                6.8553E-01  3.4154E+01 -3.5587E+01  2.5147E+03

           1    2.35001E+01     1.0207E-01 -1.0416E-02  2.9091E-01  3.0848E-01
ac ID =   33377                 2.1060E+00 -9.0333E+00 -1.2809E+00  9.3636E+00
                                6.9452E-01  3.4325E+01 -3.5547E+01  2.5147E+03

           1    2.36001E+01     8.3684E-02  1.1696E-02  2.5350E-01  2.6721E-01
ac ID =   33377                 1.7925E+00 -9.1658E+00 -8.9707E-01  9.3824E+00
                                7.0353E-01  3.4497E+01 -3.5507E+01  2.5147E+03

           1    2.37001E+01     1.0280E-01 -2.0016E-02  2.5376E-01  2.7452E-01
ac ID =   33377                 2.1703E+00 -9.0013E+00 -1.1855E+00  9.3348E+00
                                7.1270E-01  3.4668E+01 -3.5468E+01  2.5147E+03

           1    2.38001E+01     1.2860E-01 -9.5194E-03  2.3432E-01  2.6745E-01
ac ID =   33377                 2.0012E+00 -8.8481E+00 -1.0459E+00  9.1317E+00
                                7.2191E-01  3.4840E+01 -3.5430E+01  2.5147E+03

           1    2.39001E+01     1.0514E-01  3.1261E-02  2.0290E-01  2.3065E-01
ac ID =   33377                 7.2498E-01 -9.1470E+00 -9.8063E-01  9.2279E+00
                                7.3105E-01  3.5011E+01 -3.5392E+01  2.5147E+03

           1    2.40001E+01     9.8693E-02 -6.1607E-03  1.7676E-01  2.0254E-01
ac ID =   33377                 1.5431E+00 -9.2466E+00 -9.9515E-01  9.4272E+00
                                7.4033E-01  3.5183E+01 -3.5354E+01  2.5147E+03

           1    2.41001E+01     1.3527E-01 -3.1909E-02  1.5870E-01  2.1095E-01
ac ID =   33377                 2.1671E+00 -8.5493E+00 -8.9886E-01  8.8654E+00
                                7.4963E-01  3.5355E+01 -3.5318E+01  2.5147E+03

           1    2.42001E+01     1.2543E-01  1.3980E-02  1.3320E-01  1.8349E-01
ac ID =   33377                 1.1045E+00 -8.6996E+00 -4.9734E-01  8.7836E+00
                                7.5880E-01  3.5526E+01 -3.5281E+01  2.5147E+03

           1    2.43001E+01     1.0360E-01  6.7851E-03  1.0935E-01  1.5079E-01
ac ID =   33377                 1.9315E+00 -9.1678E+00 -6.4852E-01  9.3915E+00
                                7.6803E-01  3.5697E+01 -3.5245E+01  2.5147E+03

           1    2.44001E+01     1.3188E-01 -3.3470E-02  7.7184E-02  1.5643E-01
ac ID =   33377                 2.4393E+00 -8.5207E+00 -1.0710E+00  8.9274E+00
                                7.7738E-01  3.5868E+01 -3.5209E+01  2.5147E+03

           1    2.45005E+01     1.2986E-01 -1.6051E-03  5.3111E-02  1.4031E-01
ac ID =   33377                 1.9428E+00 -8.6147E+00 -1.3946E+00  8.9405E+00
                                7.8668E-01  3.6040E+01 -3.5173E+01  2.5147E+03

           1    2.46005E+01     1.3092E-01  2.5941E-02  3.8355E-02  1.3887E-01
ac ID =   33377                 1.0797E+00 -8.7208E+00 -1.3977E+00  8.8978E+00
                                7.9600E-01  3.6211E+01 -3.5138E+01  2.5147E+03

           1    2.47005E+01     1.4263E-01 -9.9637E-03  2.7569E-02  1.4561E-01
ac ID =   33377                 1.8564E+00 -8.5680E+00 -1.2913E+00  8.8614E+00
                                8.0548E-01  3.6382E+01 -3.5103E+01  2.5147E+03

           1    2.48005E+01     1.4241E-01 -1.9321E-02 -4.4909E-03  1.4379E-01
ac ID =   33377                 1.5270E+00 -8.3738E+00 -6.7669E-01  8.5387E+00
                                8.1491E-01  3.6552E+01 -3.5068E+01  2.5147E+03

           1    2.49005E+01     1.5245E-01  2.8663E-02 -2.0396E-02  1.5646E-01
ac ID =   33377                 4.9031E-01 -8.2839E+00 -5.6825E-01  8.3179E+00
                                8.2427E-01  3.6722E+01 -3.5033E+01  2.5147E+03

