 LSTC 50th% Full_FE H-III Dummy (Beta Version, February 17, 2019)        
                    ls-dyna smp s R16 R16.0_619_d222963 date 03/18/2025

{BEGIN LEGEND}
 Entity #        Title
    22626                                                                                     
{END LEGEND}




 n o d a l   p r i n t   o u t   f o r   t i m e  s t e p       1                              ( at time 0.0000000E+00 )

 nodal point  x-disp     y-disp      z-disp      x-vel       y-vel       z-vel      x-accl      y-accl      z-accl      x-coor      y-coor      z-coor
    22626  0.00000E+00 0.00000E+00 0.00000E+00 0.00000E+00 0.00000E+00-3.12000E+00 0.00000E+00 0.00000E+00 0.00000E+00 4.79642E+01-2.20298E+01 7.33850E+00



 n o d a l   p r i n t   o u t   f o r   t i m e  s t e p       1                              ( at time 0.0000000E+00 )

 nodal point  x-rot      y-rot       z-rot       x-rot vel   y-rot vel   z-rot vel   x-rot acc   y-rot acc   z-rot acc
    22626  0.00000E+00 0.00000E+00 0.00000E+00 0.00000E+00 0.00000E+00 0.00000E+00 0.00000E+00 0.00000E+00 0.00000E+00



 n o d a l   p r i n t   o u t   f o r   t i m e  s t e p     201                              ( at time 9.9989993E-02 )

 nodal point  x-disp     y-disp      z-disp      x-vel       y-vel       z-vel      x-accl      y-accl      z-accl      x-coor      y-coor      z-coor
    22626  8.34251E-07-4.04487E-06-3.12016E-01 4.76632E-05-4.96443E-04-3.12074E+00 4.76680E-04-4.96493E-03-7.42748E-03 4.79642E+01-2.20298E+01 7.02648E+00



 n o d a l   p r i n t   o u t   f o r   t i m e  s t e p     201                              ( at time 9.9989993E-02 )

 nodal point  x-rot      y-rot       z-rot       x-rot vel   y-rot vel   z-rot vel   x-rot acc   y-rot acc   z-rot acc
    22626  9.60751E-09 3.04080E-08 5.27071E-08 1.30673E-06 2.72132E-06 5.21108E-06 1.30686E-05 2.72159E-05 5.21160E-05



 n o d a l   p r i n t   o u t   f o r   t i m e  s t e p     401                              ( at time 1.9997999E-01 )

 nodal point  x-disp     y-disp      z-disp      x-vel       y-vel       z-vel      x-accl      y-accl      z-accl      x-coor      y-coor      z-coor
    22626 -5.12729E-05-5.21583E-04-6.23853E-01-1.09634E-03-1.11154E-02-3.11558E+00-1.14412E-02-1.06200E-01 5.16395E-02 4.79641E+01-2.20303E+01 6.71465E+00



 n o d a l   p r i n t   o u t   f o r   t i m e  s t e p     401                              ( at time 1.9997999E-01 )

 nodal point  x-rot      y-rot       z-rot       x-rot vel   y-rot vel   z-rot vel   x-rot acc   y-rot acc   z-rot acc
    22626  4.59983E-07 1.33029E-06 2.50274E-06 2.64112E-06 1.90675E-05 3.49697E-05 1.33452E-05 1.63479E-04 2.97616E-04



 n o d a l   p r i n t   o u t   f o r   t i m e  s t e p     601                              ( at time 2.9996998E-01 )

 nodal point  x-disp     y-disp      z-disp      x-vel       y-vel       z-vel      x-accl      y-accl      z-accl      x-coor      y-coor      z-coor
    22626 -2.45703E-05-1.97633E-03-9.35238E-01 1.66078E-03-1.60490E-02-3.11415E+00 2.75740E-02-4.93411E-02 1.43352E-02 4.79642E+01-2.20318E+01 6.40326E+00



 n o d a l   p r i n t   o u t   f o r   t i m e  s t e p     601                              ( at time 2.9996998E-01 )

 nodal point  x-rot      y-rot       z-rot       x-rot vel   y-rot vel   z-rot vel   x-rot acc   y-rot acc   z-rot acc
    22626  6.75063E-07 2.41102E-06 4.82751E-06 8.29690E-06 5.38666E-06 1.46996E-05 5.65635E-05-1.36823E-04-2.02721E-04



 n o d a l   p r i n t   o u t   f o r   t i m e  s t e p     801                              ( at time 3.9995997E-01 )

 nodal point  x-disp     y-disp      z-disp      x-vel       y-vel       z-vel      x-accl      y-accl      z-accl      x-coor      y-coor      z-coor
    22626  5.94547E-05-3.57406E-03-1.24663E+00 1.97030E-04-1.73899E-02-3.11353E+00-1.46390E-02-1.34107E-02 6.14228E-03 4.79642E+01-2.20334E+01 6.09187E+00



 n o d a l   p r i n t   o u t   f o r   t i m e  s t e p     801                              ( at time 3.9995997E-01 )

 nodal point  x-rot      y-rot       z-rot       x-rot vel   y-rot vel   z-rot vel   x-rot acc   y-rot acc   z-rot acc
    22626  1.58258E-06 3.68066E-06 6.68075E-06 6.31744E-06 2.41899E-05 3.82310E-05-1.97966E-05 1.88051E-04 2.35337E-04



 n o d a l   p r i n t   o u t   f o r   t i m e  s t e p    1001                              ( at time 4.9994997E-01 )

 nodal point  x-disp     y-disp      z-disp      x-vel       y-vel       z-vel      x-accl      y-accl      z-accl      x-coor      y-coor      z-coor
    22626  7.27185E-05-5.63145E-03-1.55782E+00 8.96382E-04-2.38454E-02-3.11086E+00 6.99422E-03-6.45613E-02 2.67628E-02 4.79643E+01-2.20354E+01 5.78068E+00



 n o d a l   p r i n t   o u t   f o r   t i m e  s t e p    1001                              ( at time 4.9994997E-01 )

 nodal point  x-rot      y-rot       z-rot       x-rot vel   y-rot vel   z-rot vel   x-rot acc   y-rot acc   z-rot acc
    22626  1.49432E-06 6.64780E-06 1.18373E-05-4.79319E-06 4.38606E-05 7.21509E-05-1.11117E-04 1.96727E-04 3.39233E-04



 n o d a l   p r i n t   o u t   f o r   t i m e  s t e p    1201                              ( at time 5.9993996E-01 )

 nodal point  x-disp     y-disp      z-disp      x-vel       y-vel       z-vel      x-accl      y-accl      z-accl      x-coor      y-coor      z-coor
    22626  5.29428E-05-8.13744E-03-1.86888E+00-5.60769E-04-2.61227E-02-3.11084E+00-1.45730E-02-2.27749E-02 1.78832E-04 4.79642E+01-2.20379E+01 5.46962E+00



 n o d a l   p r i n t   o u t   f o r   t i m e  s t e p    1201                              ( at time 5.9993996E-01 )

 nodal point  x-rot      y-rot       z-rot       x-rot vel   y-rot vel   z-rot vel   x-rot acc   y-rot acc   z-rot acc
    22626  1.26516E-06 9.87443E-06 1.77373E-05-2.16641E-06 2.64240E-05 5.30890E-05 2.62705E-05-1.74383E-04-1.90638E-04



 n o d a l   p r i n t   o u t   f o r   t i m e  s t e p    1401                              ( at time 6.9992995E-01 )

 nodal point  x-disp     y-disp      z-disp      x-vel       y-vel       z-vel      x-accl      y-accl      z-accl      x-coor      y-coor      z-coor
    22626  1.96748E-05-1.10207E-02-2.17976E+00 7.16763E-04-3.22446E-02-3.10770E+00 1.27766E-02-6.12248E-02 3.14052E-02 4.79642E+01-2.20408E+01 5.15874E+00



 n o d a l   p r i n t   o u t   f o r   t i m e  s t e p    1401                              ( at time 6.9992995E-01 )

 nodal point  x-rot      y-rot       z-rot       x-rot vel   y-rot vel   z-rot vel   x-rot acc   y-rot acc   z-rot acc
    22626  1.10211E-06 1.30691E-05 2.27049E-05-2.45286E-06 3.79557E-05 5.95249E-05-2.86486E-06 1.15329E-04 6.43652E-05



 n o d a l   p r i n t   o u t   f o r   t i m e  s t e p    1601                              ( at time 7.9991994E-01 )

 nodal point  x-disp     y-disp      z-disp      x-vel       y-vel       z-vel      x-accl      y-accl      z-accl      x-coor      y-coor      z-coor
    22626  1.33047E-04-1.45710E-02-2.49038E+00 1.37509E-03-3.68200E-02-3.10600E+00 6.58388E-03-4.57592E-02 1.69795E-02 4.79643E+01-2.20444E+01 4.84812E+00



 n o d a l   p r i n t   o u t   f o r   t i m e  s t e p    1601                              ( at time 7.9991994E-01 )

 nodal point  x-rot      y-rot       z-rot       x-rot vel   y-rot vel   z-rot vel   x-rot acc   y-rot acc   z-rot acc
    22626  1.00677E-06 1.72047E-05 2.96644E-05 3.03887E-06 4.88844E-05 7.65572E-05 5.49229E-05 1.09298E-04 1.70340E-04



 n o d a l   p r i n t   o u t   f o r   t i m e  s t e p    1801                              ( at time 8.9990994E-01 )

 nodal point  x-disp     y-disp      z-disp      x-vel       y-vel       z-vel      x-accl      y-accl      z-accl      x-coor      y-coor      z-coor
    22626  2.07402E-04-1.82140E-02-2.80104E+00-5.07029E-04-3.64310E-02-3.10742E+00-1.88230E-02 3.89105E-03-1.41730E-02 4.79644E+01-2.20480E+01 4.53746E+00



 n o d a l   p r i n t   o u t   f o r   t i m e  s t e p    1801                              ( at time 8.9990994E-01 )

 nodal point  x-rot      y-rot       z-rot       x-rot vel   y-rot vel   z-rot vel   x-rot acc   y-rot acc   z-rot acc
    22626  1.02418E-06 2.13195E-05 3.66571E-05-1.93453E-06 3.79484E-05 6.82686E-05-4.97391E-05-1.09371E-04-8.28951E-05



 n o d a l   p r i n t   o u t   f o r   t i m e  s t e p    2001                              ( at time 9.9989993E-01 )

 nodal point  x-disp     y-disp      z-disp      x-vel       y-vel       z-vel      x-accl      y-accl      z-accl      x-coor      y-coor      z-coor
    22626  1.09762E-04-2.19276E-02-3.11175E+00-8.16383E-04-3.83992E-02-3.10755E+00-3.09384E-03-1.96849E-02-1.35197E-03 4.79643E+01-2.20517E+01 4.22675E+00



 n o d a l   p r i n t   o u t   f o r   t i m e  s t e p    2001                              ( at time 9.9989993E-01 )

 nodal point  x-rot      y-rot       z-rot       x-rot vel   y-rot vel   z-rot vel   x-rot acc   y-rot acc   z-rot acc
    22626  8.56300E-07 2.55319E-05 4.38510E-05-8.61777E-07 4.61797E-05 8.58877E-05 1.07286E-05 8.23210E-05 1.76209E-04



 n o d a l   p r i n t   o u t   f o r   t i m e  s t e p    2201                              ( at time 1.0998899E+00 )

 nodal point  x-disp     y-disp      z-disp      x-vel       y-vel       z-vel      x-accl      y-accl      z-accl      x-coor      y-coor      z-coor
    22626  9.18526E-05-2.58760E-02-3.42246E+00-2.15247E-04-4.02625E-02-3.10712E+00 6.01196E-03-1.86343E-02 4.34442E-03 4.79643E+01-2.20557E+01 3.91605E+00



 n o d a l   p r i n t   o u t   f o r   t i m e  s t e p    2201                              ( at time 1.0998899E+00 )

 nodal point  x-rot      y-rot       z-rot       x-rot vel   y-rot vel   z-rot vel   x-rot acc   y-rot acc   z-rot acc
    22626  9.33159E-07 3.03107E-05 5.24807E-05 5.28948E-06 4.65214E-05 7.51873E-05 6.15187E-05 3.41728E-06-1.07014E-04



 n o d a l   p r i n t   o u t   f o r   t i m e  s t e p    2401                              ( at time 1.1998799E+00 )

 nodal point  x-disp     y-disp      z-disp      x-vel       y-vel       z-vel      x-accl      y-accl      z-accl      x-coor      y-coor      z-coor
    22626  1.34313E-04-2.98901E-02-3.73320E+00 7.29302E-04-3.98079E-02-3.10850E+00 9.44644E-03 4.54613E-03-1.38034E-02 4.79643E+01-2.20597E+01 3.60531E+00



 n o d a l   p r i n t   o u t   f o r   t i m e  s t e p    2401                              ( at time 1.1998799E+00 )

 nodal point  x-rot      y-rot       z-rot       x-rot vel   y-rot vel   z-rot vel   x-rot acc   y-rot acc   z-rot acc
    22626  1.33636E-06 3.44643E-05 5.93292E-05 5.12449E-06 3.97973E-05 6.53500E-05-1.65009E-06-6.72469E-05-9.83827E-05



 n o d a l   p r i n t   o u t   f o r   t i m e  s t e p    2601                              ( at time 1.2998699E+00 )

 nodal point  x-disp     y-disp      z-disp      x-vel       y-vel       z-vel      x-accl      y-accl      z-accl      x-coor      y-coor      z-coor
    22626  1.46184E-04-3.37303E-02-4.04413E+00-4.23774E-04-3.65901E-02-3.11133E+00-1.15319E-02 3.21812E-02-2.82936E-02 4.79643E+01-2.20635E+01 3.29437E+00



 n o d a l   p r i n t   o u t   f o r   t i m e  s t e p    2601                              ( at time 1.2998699E+00 )

 nodal point  x-rot      y-rot       z-rot       x-rot vel   y-rot vel   z-rot vel   x-rot acc   y-rot acc   z-rot acc
    22626  1.63908E-06 3.85415E-05 6.61338E-05-2.47120E-06 4.54158E-05 7.98466E-05-7.59645E-05 5.61905E-05 1.44980E-04



 n o d a l   p r i n t   o u t   f o r   t i m e  s t e p    2801                              ( at time 1.3998599E+00 )

 nodal point  x-disp     y-disp      z-disp      x-vel       y-vel       z-vel      x-accl      y-accl      z-accl      x-coor      y-coor      z-coor
    22626  3.22098E-05-3.71241E-02-4.35543E+00-1.30268E-03-3.14345E-02-3.11511E+00-8.78995E-03 5.15613E-02-3.78098E-02 4.79642E+01-2.20669E+01 2.98307E+00



 n o d a l   p r i n t   o u t   f o r   t i m e  s t e p    2801                              ( at time 1.3998599E+00 )

 nodal point  x-rot      y-rot       z-rot       x-rot vel   y-rot vel   z-rot vel   x-rot acc   y-rot acc   z-rot acc
    22626  1.20412E-06 4.29477E-05 7.39895E-05-4.54979E-06 4.45425E-05 7.34923E-05-2.07880E-05-8.73395E-06-6.35492E-05



 n o d a l   p r i n t   o u t   f o r   t i m e  s t e p    3001                              ( at time 1.4998499E+00 )

 nodal point  x-disp     y-disp      z-disp      x-vel       y-vel       z-vel      x-accl      y-accl      z-accl      x-coor      y-coor      z-coor
    22626 -7.75977E-05-4.01688E-02-4.66702E+00-5.01564E-04-2.97642E-02-3.11713E+00 8.01197E-03 1.67047E-02-2.02247E-02 4.79641E+01-2.20700E+01 2.67148E+00



 n o d a l   p r i n t   o u t   f o r   t i m e  s t e p    3001                              ( at time 1.4998499E+00 )

 nodal point  x-rot      y-rot       z-rot       x-rot vel   y-rot vel   z-rot vel   x-rot acc   y-rot acc   z-rot acc
    22626  8.26822E-07 4.68504E-05 8.05201E-05-1.63082E-06 3.18109E-05 5.69770E-05 2.91926E-05-1.27330E-04-1.65170E-04



 n o d a l   p r i n t   o u t   f o r   t i m e  s t e p    3201                              ( at time 1.5998399E+00 )

 nodal point  x-disp     y-disp      z-disp      x-vel       y-vel       z-vel      x-accl      y-accl      z-accl      x-coor      y-coor      z-coor
    22626 -1.24294E-04-4.30593E-02-4.97879E+00-6.94802E-04-2.75143E-02-3.11940E+00-1.93256E-03 2.25009E-02-2.26830E-02 4.79641E+01-2.20728E+01 2.35971E+00



 n o d a l   p r i n t   o u t   f o r   t i m e  s t e p    3201                              ( at time 1.5998399E+00 )

 nodal point  x-rot      y-rot       z-rot       x-rot vel   y-rot vel   z-rot vel   x-rot acc   y-rot acc   z-rot acc
    22626  5.14754E-07 4.99095E-05 8.53962E-05-1.54543E-06 3.26513E-05 4.80260E-05 8.53950E-07 8.40555E-06-8.95183E-05



 n o d a l   p r i n t   o u t   f o r   t i m e  s t e p    3401                              ( at time 1.6998299E+00 )

 nodal point  x-disp     y-disp      z-disp      x-vel       y-vel       z-vel      x-accl      y-accl      z-accl      x-coor      y-coor      z-coor
    22626 -2.10897E-04-4.55737E-02-5.29088E+00-1.12841E-03-2.24395E-02-3.12325E+00-4.33649E-03 5.07533E-02-3.85466E-02 4.79640E+01-2.20754E+01 2.04762E+00



 n o d a l   p r i n t   o u t   f o r   t i m e  s t e p    3401                              ( at time 1.6998299E+00 )

 nodal point  x-rot      y-rot       z-rot       x-rot vel   y-rot vel   z-rot vel   x-rot acc   y-rot acc   z-rot acc
    22626  3.01496E-07 5.29933E-05 9.04308E-05-3.77766E-06 2.98195E-05 4.78147E-05-2.23245E-05-2.83214E-05-2.11322E-06



 n o d a l   p r i n t   o u t   f o r   t i m e  s t e p    3601                              ( at time 1.7998199E+00 )

 nodal point  x-disp     y-disp      z-disp      x-vel       y-vel       z-vel      x-accl      y-accl      z-accl      x-coor      y-coor      z-coor
    22626 -3.12383E-04-4.75643E-02-5.60339E+00-1.32785E-03-1.77142E-02-3.12732E+00-1.99467E-03 4.72584E-02-4.06926E-02 4.79639E+01-2.20774E+01 1.73511E+00



 n o d a l   p r i n t   o u t   f o r   t i m e  s t e p    3601                              ( at time 1.7998199E+00 )

 nodal point  x-rot      y-rot       z-rot       x-rot vel   y-rot vel   z-rot vel   x-rot acc   y-rot acc   z-rot acc
    22626  1.55360E-07 5.57816E-05 9.51893E-05-2.95167E-07 2.13200E-05 4.19801E-05 3.48284E-05-8.50035E-05-5.83524E-05



 n o d a l   p r i n t   o u t   f o r   t i m e  s t e p    3801                              ( at time 1.8998099E+00 )

 nodal point  x-disp     y-disp      z-disp      x-vel       y-vel       z-vel      x-accl      y-accl      z-accl      x-coor      y-coor      z-coor
    22626 -5.00020E-04-4.92022E-02-5.91621E+00-2.16034E-03-1.51691E-02-3.12982E+00-8.32569E-03 2.54529E-02-2.49458E-02 4.79637E+01-2.20790E+01 1.42229E+00



 n o d a l   p r i n t   o u t   f o r   t i m e  s t e p    3801                              ( at time 1.8998099E+00 )

 nodal point  x-rot      y-rot       z-rot       x-rot vel   y-rot vel   z-rot vel   x-rot acc   y-rot acc   z-rot acc
    22626 -8.95577E-08 5.76800E-05 9.86068E-05 1.59590E-06 1.55005E-05 2.74936E-05 1.89126E-05-5.82005E-05-1.44879E-04



 n o d a l   p r i n t   o u t   f o r   t i m e  s t e p    4001                              ( at time 1.9997999E+00 )

 nodal point  x-disp     y-disp      z-disp      x-vel       y-vel       z-vel      x-accl      y-accl      z-accl      x-coor      y-coor      z-coor
    22626 -6.73375E-04-5.05923E-02-6.22929E+00-1.65054E-03-1.28121E-02-3.13210E+00 5.09857E-03 2.35723E-02-2.28642E-02 4.79635E+01-2.20804E+01 1.10922E+00



 n o d a l   p r i n t   o u t   f o r   t i m e  s t e p    4001                              ( at time 1.9997999E+00 )

 nodal point  x-rot      y-rot       z-rot       x-rot vel   y-rot vel   z-rot vel   x-rot acc   y-rot acc   z-rot acc
    22626  1.16260E-07 5.90155E-05 1.00916E-04 3.35053E-06 1.32290E-05 2.01182E-05 1.75480E-05-2.27179E-05-7.37615E-05



 n o d a l   p r i n t   o u t   f o r   t i m e  s t e p    4201                              ( at time 2.0997899E+00 )

 nodal point  x-disp     y-disp      z-disp      x-vel       y-vel       z-vel      x-accl      y-accl      z-accl      x-coor      y-coor      z-coor
    22626 -8.42406E-04-5.16835E-02-6.54262E+00-1.85901E-03-9.15652E-03-3.13518E+00-2.08493E-03 3.65598E-02-3.07853E-02 4.79633E+01-2.20815E+01 7.95877E-01



 n o d a l   p r i n t   o u t   f o r   t i m e  s t e p    4201                              ( at time 2.0997899E+00 )

 nodal point  x-rot      y-rot       z-rot       x-rot vel   y-rot vel   z-rot vel   x-rot acc   y-rot acc   z-rot acc
    22626  4.01506E-07 5.96604E-05 1.02009E-04-1.31511E-06 3.34278E-06 1.54037E-06-4.66610E-05-9.88716E-05-1.85797E-04



 n o d a l   p r i n t   o u t   f o r   t i m e  s t e p    4401                              ( at time 2.1997798E+00 )

 nodal point  x-disp     y-disp      z-disp      x-vel       y-vel       z-vel      x-accl      y-accl      z-accl      x-coor      y-coor      z-coor
    22626 -1.08438E-03-5.23701E-02-6.85629E+00-2.77123E-03-4.41159E-03-3.13895E+00-9.12314E-03 4.74541E-02-3.76596E-02 4.79631E+01-2.20822E+01 4.82213E-01



 n o d a l   p r i n t   o u t   f o r   t i m e  s t e p    4401                              ( at time 2.1997798E+00 )

 nodal point  x-rot      y-rot       z-rot       x-rot vel   y-rot vel   z-rot vel   x-rot acc   y-rot acc   z-rot acc
    22626  2.22401E-07 5.96521E-05 1.01939E-04-1.21500E-06-2.07434E-06-2.91256E-06 1.00114E-06-5.41766E-05-4.45339E-05



 n o d a l   p r i n t   o u t   f o r   t i m e  s t e p    4601                              ( at time 2.2997698E+00 )

 nodal point  x-disp     y-disp      z-disp      x-vel       y-vel       z-vel      x-accl      y-accl      z-accl      x-coor      y-coor      z-coor
    22626 -1.39332E-03-5.25653E-02-7.17034E+00-3.51091E-03-8.60419E-05-3.14227E+00-7.39753E-03 4.32598E-02-3.32961E-02 4.79628E+01-2.20824E+01 1.68163E-01



 n o d a l   p r i n t   o u t   f o r   t i m e  s t e p    4601                              ( at time 2.2997698E+00 )

 nodal point  x-rot      y-rot       z-rot       x-rot vel   y-rot vel   z-rot vel   x-rot acc   y-rot acc   z-rot acc
    22626 -1.67074E-07 5.93396E-05 1.01567E-04-4.56479E-06-9.75631E-06-1.29204E-05-3.35012E-05-7.68273E-05-1.00089E-04



 n o d a l   p r i n t   o u t   f o r   t i m e  s t e p    4801                              ( at time 2.3997598E+00 )

 nodal point  x-disp     y-disp      z-disp      x-vel       y-vel       z-vel      x-accl      y-accl      z-accl      x-coor      y-coor      z-coor
    22626 -1.76191E-03-5.24783E-02-7.48463E+00-3.60887E-03 1.86617E-03-3.14440E+00-9.79753E-04 1.95241E-02-2.12739E-02 4.79624E+01-2.20823E+01-1.46134E-01



 n o d a l   p r i n t   o u t   f o r   t i m e  s t e p    4801                              ( at time 2.3997598E+00 )

 nodal point  x-rot      y-rot       z-rot       x-rot vel   y-rot vel   z-rot vel   x-rot acc   y-rot acc   z-rot acc
    22626 -7.16711E-07 5.80760E-05 9.90838E-05-6.04652E-06-1.61503E-05-3.37690E-05-1.48188E-05-6.39464E-05-2.08507E-04



 n o d a l   p r i n t   o u t   f o r   t i m e  s t e p    5001                              ( at time 2.4997498E+00 )

 nodal point  x-disp     y-disp      z-disp      x-vel       y-vel       z-vel      x-accl      y-accl      z-accl      x-coor      y-coor      z-coor
    22626 -2.15511E-03-5.21708E-02-7.79916E+00-4.23886E-03 4.96256E-03-3.14711E+00-6.30052E-03 3.09670E-02-2.70608E-02 4.79620E+01-2.20820E+01-4.60661E-01



 n o d a l   p r i n t   o u t   f o r   t i m e  s t e p    5001                              ( at time 2.4997498E+00 )

 nodal point  x-rot      y-rot       z-rot       x-rot vel   y-rot vel   z-rot vel   x-rot acc   y-rot acc   z-rot acc
    22626 -1.16393E-06 5.58427E-05 9.51164E-05-4.05032E-06-2.62972E-05-4.85038E-05 1.99641E-05-1.01479E-04-1.47362E-04



 n o d a l   p r i n t   o u t   f o r   t i m e  s t e p    5201                              ( at time 2.5997398E+00 )

 nodal point  x-disp     y-disp      z-disp      x-vel       y-vel       z-vel      x-accl      y-accl      z-accl      x-coor      y-coor      z-coor
    22626 -2.62958E-03-5.14566E-02-8.11403E+00-5.26098E-03 9.26863E-03-3.15070E+00-1.02221E-02 4.30650E-02-3.59214E-02 4.79616E+01-2.20812E+01-7.75526E-01



 n o d a l   p r i n t   o u t   f o r   t i m e  s t e p    5201                              ( at time 2.5997398E+00 )

 nodal point  x-rot      y-rot       z-rot       x-rot vel   y-rot vel   z-rot vel   x-rot acc   y-rot acc   z-rot acc
    22626 -1.53426E-06 5.27352E-05 8.96741E-05-4.65213E-06-3.59750E-05-6.24056E-05-6.01878E-06-9.67882E-05-1.39033E-04



 n o d a l   p r i n t   o u t   f o r   t i m e  s t e p    5401                              ( at time 2.6997298E+00 )

 nodal point  x-disp     y-disp      z-disp      x-vel       y-vel       z-vel      x-accl      y-accl      z-accl      x-coor      y-coor      z-coor
    22626 -3.19926E-03-5.03219E-02-8.42924E+00-6.42796E-03 1.29760E-02-3.15421E+00-1.16710E-02 3.70772E-02-3.51511E-02 4.79610E+01-2.20801E+01-1.09074E+00



 n o d a l   p r i n t   o u t   f o r   t i m e  s t e p    5401                              ( at time 2.6997298E+00 )

 nodal point  x-rot      y-rot       z-rot       x-rot vel   y-rot vel   z-rot vel   x-rot acc   y-rot acc   z-rot acc
    22626 -1.82999E-06 4.89846E-05 8.31703E-05-1.93592E-06-4.14121E-05-6.68682E-05 2.71648E-05-5.43764E-05-4.46305E-05



 n o d a l   p r i n t   o u t   f o r   t i m e  s t e p    5601                              ( at time 2.7997198E+00 )

 nodal point  x-disp     y-disp      z-disp      x-vel       y-vel       z-vel      x-accl      y-accl      z-accl      x-coor      y-coor      z-coor
    22626 -3.91335E-03-4.88974E-02-8.74475E+00-7.68538E-03 1.51501E-02-3.15635E+00-1.25755E-02 2.17434E-02-2.13692E-02 4.79603E+01-2.20787E+01-1.40625E+00



 n o d a l   p r i n t   o u t   f o r   t i m e  s t e p    5601                              ( at time 2.7997198E+00 )

 nodal point  x-rot      y-rot       z-rot       x-rot vel   y-rot vel   z-rot vel   x-rot acc   y-rot acc   z-rot acc
    22626 -1.96400E-06 4.40889E-05 7.50588E-05 3.61074E-07-5.73335E-05-9.85265E-05 2.29723E-05-1.59230E-04-3.16614E-04



 n o d a l   p r i n t   o u t   f o r   t i m e  s t e p    5801                              ( at time 2.8997098E+00 )

 nodal point  x-disp     y-disp      z-disp      x-vel       y-vel       z-vel      x-accl      y-accl      z-accl      x-coor      y-coor      z-coor
    22626 -4.68526E-03-4.73290E-02-9.06044E+00-7.82247E-03 1.61403E-02-3.15804E+00-1.37104E-03 9.90261E-03-1.69151E-02 4.79595E+01-2.20771E+01-1.72194E+00



 n o d a l   p r i n t   o u t   f o r   t i m e  s t e p    5801                              ( at time 2.8997098E+00 )

 nodal point  x-rot      y-rot       z-rot       x-rot vel   y-rot vel   z-rot vel   x-rot acc   y-rot acc   z-rot acc
    22626 -1.76288E-06 3.76459E-05 6.41504E-05 2.46472E-06-6.66056E-05-1.15472E-04 2.10386E-05-9.27301E-05-1.69471E-04



 n o d a l   p r i n t   o u t   f o r   t i m e  s t e p    6001                              ( at time 2.9996998E+00 )

 nodal point  x-disp     y-disp      z-disp      x-vel       y-vel       z-vel      x-accl      y-accl      z-accl      x-coor      y-coor      z-coor
    22626 -5.50575E-03-4.55973E-02-9.37632E+00-8.82577E-03 1.86365E-02-3.16041E+00-1.00339E-02 2.49649E-02-2.37083E-02 4.79587E+01-2.20754E+01-2.03782E+00



 n o d a l   p r i n t   o u t   f o r   t i m e  s t e p    6001                              ( at time 2.9996998E+00 )

 nodal point  x-rot      y-rot       z-rot       x-rot vel   y-rot vel   z-rot vel   x-rot acc   y-rot acc   z-rot acc
    22626 -1.53113E-06 3.07847E-05 5.25854E-05 6.01555E-07-7.09707E-05-1.20907E-04-1.86335E-05-4.36552E-05-5.43522E-05



 n o d a l   p r i n t   o u t   f o r   t i m e  s t e p    6201                              ( at time 3.0996898E+00 )

 nodal point  x-disp     y-disp      z-disp      x-vel       y-vel       z-vel      x-accl      y-accl      z-accl      x-coor      y-coor      z-coor
    22626 -6.47125E-03-4.36160E-02-9.69245E+00-1.04131E-02 2.05611E-02-3.16240E+00-1.58750E-02 1.92477E-02-1.98527E-02 4.79577E+01-2.20734E+01-2.35395E+00



 n o d a l   p r i n t   o u t   f o r   t i m e  s t e p    6201                              ( at time 3.0996898E+00 )

 nodal point  x-rot      y-rot       z-rot       x-rot vel   y-rot vel   z-rot vel   x-rot acc   y-rot acc   z-rot acc
    22626 -1.57851E-06 2.34254E-05 3.99535E-05-2.06856E-06-7.56664E-05-1.33293E-04-2.67039E-05-4.69613E-05-1.23878E-04



 n o d a l   p r i n t   o u t   f o r   t i m e  s t e p    6401                              ( at time 3.1996798E+00 )

 nodal point  x-disp     y-disp      z-disp      x-vel       y-vel       z-vel      x-accl      y-accl      z-accl      x-coor      y-coor      z-coor
    22626 -7.54243E-03-4.15855E-02-1.00087E+01-1.09388E-02 1.97533E-02-3.16298E+00-5.25798E-03-8.07827E-03-5.78222E-03 4.79566E+01-2.20714E+01-2.67020E+00



 n o d a l   p r i n t   o u t   f o r   t i m e  s t e p    6401                              ( at time 3.1996798E+00 )

 nodal point  x-rot      y-rot       z-rot       x-rot vel   y-rot vel   z-rot vel   x-rot acc   y-rot acc   z-rot acc
    22626 -1.71230E-06 1.53512E-05 2.63581E-05-1.56860E-06-8.52583E-05-1.43977E-04 5.00015E-06-9.59293E-05-1.06848E-04



 n o d a l   p r i n t   o u t   f o r   t i m e  s t e p    6601                              ( at time 3.2996698E+00 )

 nodal point  x-disp     y-disp      z-disp      x-vel       y-vel       z-vel      x-accl      y-accl      z-accl      x-coor      y-coor      z-coor
    22626 -8.64834E-03-3.97060E-02-1.03249E+01-1.11918E-02 1.78278E-02-3.16270E+00-2.53023E-03-1.92577E-02 2.71825E-03 4.79555E+01-2.20695E+01-2.98645E+00



 n o d a l   p r i n t   o u t   f o r   t i m e  s t e p    6601                              ( at time 3.2996698E+00 )

 nodal point  x-rot      y-rot       z-rot       x-rot vel   y-rot vel   z-rot vel   x-rot acc   y-rot acc   z-rot acc
    22626 -1.97863E-06 6.65738E-06 1.15947E-05-2.40050E-06-8.96178E-05-1.51609E-04-8.31986E-06-4.35992E-05-7.63296E-05



 n o d a l   p r i n t   o u t   f o r   t i m e  s t e p    6801                              ( at time 3.3996598E+00 )

 nodal point  x-disp     y-disp      z-disp      x-vel       y-vel       z-vel      x-accl      y-accl      z-accl      x-coor      y-coor      z-coor
    22626 -9.79898E-03-3.80147E-02-1.06412E+01-1.16967E-02 1.60349E-02-3.16262E+00-5.04875E-03-1.79304E-02 8.51238E-04 4.79544E+01-2.20678E+01-3.30268E+00



 n o d a l   p r i n t   o u t   f o r   t i m e  s t e p    6801                              ( at time 3.3996598E+00 )

 nodal point  x-rot      y-rot       z-rot       x-rot vel   y-rot vel   z-rot vel   x-rot acc   y-rot acc   z-rot acc
    22626 -2.02525E-06-2.23385E-06-3.70322E-06-2.51065E-06-8.80654E-05-1.53162E-04-1.10157E-06 1.55259E-05-1.55321E-05



 n o d a l   p r i n t   o u t   f o r   t i m e  s t e p    7001                              ( at time 3.4996498E+00 )

 nodal point  x-disp     y-disp      z-disp      x-vel       y-vel       z-vel      x-accl      y-accl      z-accl      x-coor      y-coor      z-coor
    22626 -1.09967E-02-3.64853E-02-1.09574E+01-1.23266E-02 1.44911E-02-3.16281E+00-6.30001E-03-1.54402E-02-1.91946E-03 4.79532E+01-2.20663E+01-3.61893E+00



 n o d a l   p r i n t   o u t   f o r   t i m e  s t e p    7001                              ( at time 3.4996498E+00 )

 nodal point  x-rot      y-rot       z-rot       x-rot vel   y-rot vel   z-rot vel   x-rot acc   y-rot acc   z-rot acc
    22626 -2.01979E-06-1.08977E-05-1.85326E-05 5.09497E-07-8.71845E-05-1.47507E-04 3.02045E-05 8.80931E-06 5.65562E-05



 n o d a l   p r i n t   o u t   f o r   t i m e  s t e p    7201                              ( at time 3.5996397E+00 )

 nodal point  x-disp     y-disp      z-disp      x-vel       y-vel       z-vel      x-accl      y-accl      z-accl      x-coor      y-coor      z-coor
    22626 -1.22513E-02-3.51425E-02-1.12737E+01-1.24103E-02 1.20912E-02-3.16261E+00-8.37306E-04-2.40008E-02 2.00053E-03 4.79519E+01-2.20649E+01-3.93517E+00



 n o d a l   p r i n t   o u t   f o r   t i m e  s t e p    7201                              ( at time 3.5996397E+00 )

 nodal point  x-rot      y-rot       z-rot       x-rot vel   y-rot vel   z-rot vel   x-rot acc   y-rot acc   z-rot acc
    22626 -2.02650E-06-1.95237E-05-3.30197E-05 1.99940E-06-8.47871E-05-1.38674E-04 1.49006E-05 2.39770E-05 8.83417E-05



 n o d a l   p r i n t   o u t   f o r   t i m e  s t e p    7401                              ( at time 3.6996297E+00 )

 nodal point  x-disp     y-disp      z-disp      x-vel       y-vel       z-vel      x-accl      y-accl      z-accl      x-coor      y-coor      z-coor
    22626 -1.34813E-02-3.40988E-02-1.15899E+01-1.21386E-02 8.70374E-03-3.16159E+00 2.71746E-03-3.38781E-02 1.01791E-02 4.79507E+01-2.20639E+01-4.25135E+00



 n o d a l   p r i n t   o u t   f o r   t i m e  s t e p    7401                              ( at time 3.6996297E+00 )

 nodal point  x-rot      y-rot       z-rot       x-rot vel   y-rot vel   z-rot vel   x-rot acc   y-rot acc   z-rot acc
    22626 -1.77234E-06-2.78107E-05-4.68155E-05 3.76388E-06-8.12091E-05-1.36309E-04 1.76465E-05 3.57829E-05 2.36544E-05



 n o d a l   p r i n t   o u t   f o r   t i m e  s t e p    7601                              ( at time 3.7996197E+00 )

 nodal point  x-disp     y-disp      z-disp      x-vel       y-vel       z-vel      x-accl      y-accl      z-accl      x-coor      y-coor      z-coor
    22626 -1.46661E-02-3.33663E-02-1.19059E+01-1.15840E-02 6.00863E-03-3.16088E+00 5.54626E-03-2.69538E-02 7.12705E-03 4.79495E+01-2.20632E+01-4.56744E+00



 n o d a l   p r i n t   o u t   f o r   t i m e  s t e p    7601                              ( at time 3.7996197E+00 )

 nodal point  x-rot      y-rot       z-rot       x-rot vel   y-rot vel   z-rot vel   x-rot acc   y-rot acc   z-rot acc
    22626 -1.31000E-06-3.56259E-05-6.00828E-05 5.31099E-06-7.24667E-05-1.22031E-04 1.54727E-05 8.74331E-05 1.42792E-04



 n o d a l   p r i n t   o u t   f o r   t i m e  s t e p    7801                              ( at time 3.8996097E+00 )

 nodal point  x-disp     y-disp      z-disp      x-vel       y-vel       z-vel      x-accl      y-accl      z-accl      x-coor      y-coor      z-coor
    22626 -1.57934E-02-3.28653E-02-1.22220E+01-1.09392E-02 4.21757E-03-3.16081E+00 6.44883E-03-1.79124E-02 7.39171E-04 4.79484E+01-2.20627E+01-4.88349E+00



 n o d a l   p r i n t   o u t   f o r   t i m e  s t e p    7801                              ( at time 3.8996097E+00 )

 nodal point  x-rot      y-rot       z-rot       x-rot vel   y-rot vel   z-rot vel   x-rot acc   y-rot acc   z-rot acc
    22626 -9.50493E-07-4.22298E-05-7.12053E-05 5.12475E-07-5.77301E-05-9.62128E-05-4.79899E-05 1.47381E-04 2.58206E-04



 n o d a l   p r i n t   o u t   f o r   t i m e  s t e p    8001                              ( at time 3.9995997E+00 )

 nodal point  x-disp     y-disp      z-disp      x-vel       y-vel       z-vel      x-accl      y-accl      z-accl      x-coor      y-coor      z-coor
    22626 -1.68610E-02-3.24950E-02-1.25381E+01-1.03892E-02 3.14008E-03-3.16114E+00 5.50042E-03-1.07760E-02-3.33820E-03 4.79473E+01-2.20623E+01-5.19956E+00



 n o d a l   p r i n t   o u t   f o r   t i m e  s t e p    8001                              ( at time 3.9995997E+00 )

 nodal point  x-rot      y-rot       z-rot       x-rot vel   y-rot vel   z-rot vel   x-rot acc   y-rot acc   z-rot acc
    22626 -8.24242E-07-4.74772E-05-7.98917E-05-1.93305E-07-4.66908E-05-8.00088E-05-7.05851E-06 1.10404E-04 1.62057E-04



 n o d a l   p r i n t   o u t   f o r   t i m e  s t e p    8201                              ( at time 4.0995897E+00 )

 nodal point  x-disp     y-disp      z-disp      x-vel       y-vel       z-vel      x-accl      y-accl      z-accl      x-coor      y-coor      z-coor
    22626 -1.78175E-02-3.22955E-02-1.28541E+01-8.60238E-03 6.40327E-04-3.16063E+00 1.78703E-02-2.50000E-02 5.06213E-03 4.79464E+01-2.20621E+01-5.51562E+00



 n o d a l   p r i n t   o u t   f o r   t i m e  s t e p    8201                              ( at time 4.0995897E+00 )

 nodal point  x-rot      y-rot       z-rot       x-rot vel   y-rot vel   z-rot vel   x-rot acc   y-rot acc   z-rot acc
    22626 -8.36892E-07-5.16042E-05-8.68662E-05-2.65572E-07-3.23184E-05-5.66432E-05-7.22737E-07 1.43738E-04 2.33678E-04



 n o d a l   p r i n t   o u t   f o r   t i m e  s t e p    8401                              ( at time 4.1995797E+00 )

 nodal point  x-disp     y-disp      z-disp      x-vel       y-vel       z-vel      x-accl      y-accl      z-accl      x-coor      y-coor      z-coor
    22626 -1.85985E-02-3.23577E-02-1.31701E+01-6.97082E-03-1.79329E-03-3.16005E+00 1.63172E-02-2.43386E-02 5.84900E-03 4.79456E+01-2.20621E+01-5.83162E+00



 n o d a l   p r i n t   o u t   f o r   t i m e  s t e p    8401                              ( at time 4.1995797E+00 )

 nodal point  x-rot      y-rot       z-rot       x-rot vel   y-rot vel   z-rot vel   x-rot acc   y-rot acc   z-rot acc
    22626 -8.23405E-07-5.39836E-05-9.08193E-05-2.01709E-07-1.41659E-05-2.29407E-05 6.38691E-07 1.81543E-04 3.37060E-04



 n o d a l   p r i n t   o u t   f o r   t i m e  s t e p    8601                              ( at time 4.2995697E+00 )

 nodal point  x-disp     y-disp      z-disp      x-vel       y-vel       z-vel      x-accl      y-accl      z-accl      x-coor      y-coor      z-coor
    22626 -1.92317E-02-3.26563E-02-1.34861E+01-5.56715E-03-3.87718E-03-3.15987E+00 1.40381E-02-2.08410E-02 1.80024E-03 4.79450E+01-2.20624E+01-6.14757E+00



 n o d a l   p r i n t   o u t   f o r   t i m e  s t e p    8601                              ( at time 4.2995697E+00 )

 nodal point  x-rot      y-rot       z-rot       x-rot vel   y-rot vel   z-rot vel   x-rot acc   y-rot acc   z-rot acc
    22626 -8.50376E-07-5.44216E-05-9.16758E-05-5.39812E-07 2.81449E-06 4.42765E-06-3.38137E-06 1.69821E-04 2.73711E-04



 n o d a l   p r i n t   o u t   f o r   t i m e  s t e p    8801                              ( at time 4.3995597E+00 )

 nodal point  x-disp     y-disp      z-disp      x-vel       y-vel       z-vel      x-accl      y-accl      z-accl      x-coor      y-coor      z-coor
    22626 -1.96980E-02-3.30851E-02-1.38021E+01-3.79886E-03-4.73669E-03-3.16048E+00 1.76847E-02-8.59600E-03-6.09459E-03 4.79445E+01-2.20629E+01-6.46355E+00



 n o d a l   p r i n t   o u t   f o r   t i m e  s t e p    8801                              ( at time 4.3995597E+00 )

 nodal point  x-rot      y-rot       z-rot       x-rot vel   y-rot vel   z-rot vel   x-rot acc   y-rot acc   z-rot acc
    22626 -8.30063E-07-5.31423E-05-8.93580E-05 7.23640E-07 2.23673E-05 4.01474E-05 1.26358E-05 1.95548E-04 3.57233E-04



 n o d a l   p r i n t   o u t   f o r   t i m e  s t e p    9001                              ( at time 4.4995497E+00 )

 nodal point  x-disp     y-disp      z-disp      x-vel       y-vel       z-vel      x-accl      y-accl      z-accl      x-coor      y-coor      z-coor
    22626 -1.99952E-02-3.36543E-02-1.41181E+01-2.04600E-03-6.99206E-03-3.16010E+00 1.75304E-02-2.25559E-02 3.81268E-03 4.79442E+01-2.20634E+01-6.77956E+00



 n o d a l   p r i n t   o u t   f o r   t i m e  s t e p    9001                              ( at time 4.4995497E+00 )

 nodal point  x-rot      y-rot       z-rot       x-rot vel   y-rot vel   z-rot vel   x-rot acc   y-rot acc   z-rot acc
    22626 -6.96361E-07-4.96803E-05-8.32507E-05 3.48299E-06 4.39572E-05 7.67207E-05 2.75962E-05 2.15920E-04 3.65768E-04



 n o d a l   p r i n t   o u t   f o r   t i m e  s t e p    9201                              ( at time 4.5995397E+00 )

 nodal point  x-disp     y-disp      z-disp      x-vel       y-vel       z-vel      x-accl      y-accl      z-accl      x-coor      y-coor      z-coor
    22626 -2.01062E-02-3.45081E-02-1.44340E+01-1.18231E-04-9.89191E-03-3.15951E+00 1.92796E-02-2.90014E-02 5.82754E-03 4.79441E+01-2.20643E+01-7.09550E+00



 n o d a l   p r i n t   o u t   f o r   t i m e  s t e p    9201                              ( at time 4.5995397E+00 )

 nodal point  x-rot      y-rot       z-rot       x-rot vel   y-rot vel   z-rot vel   x-rot acc   y-rot acc   z-rot acc
    22626 -3.93398E-07-4.44587E-05-7.41405E-05 4.20728E-06 5.98954E-05 1.02799E-04 7.24363E-06 1.59398E-04 2.60807E-04



 n o d a l   p r i n t   o u t   f o r   t i m e  s t e p    9401                              ( at time 4.6995297E+00 )

 nodal point  x-disp     y-disp      z-disp      x-vel       y-vel       z-vel      x-accl      y-accl      z-accl      x-coor      y-coor      z-coor
    22626 -2.00017E-02-3.55787E-02-1.47499E+01 2.12186E-03-1.15022E-02-3.15935E+00 2.24032E-02-1.61043E-02 1.64049E-03 4.79442E+01-2.20654E+01-7.41142E+00



 n o d a l   p r i n t   o u t   f o r   t i m e  s t e p    9401                              ( at time 4.6995297E+00 )

 nodal point  x-rot      y-rot       z-rot       x-rot vel   y-rot vel   z-rot vel   x-rot acc   y-rot acc   z-rot acc
    22626 -1.72137E-08-3.73075E-05-6.17079E-05 2.60064E-06 8.46550E-05 1.45391E-04-1.60680E-05 2.47621E-04 4.25968E-04



 n o d a l   p r i n t   o u t   f o r   t i m e  s t e p    9601                              ( at time 4.7995197E+00 )

 nodal point  x-disp     y-disp      z-disp      x-vel       y-vel       z-vel      x-accl      y-accl      z-accl      x-coor      y-coor      z-coor
    22626 -1.96903E-02-3.68004E-02-1.50658E+01 3.99768E-03-1.27521E-02-3.15961E+00 1.87601E-02-1.25001E-02-2.63002E-03 4.79445E+01-2.20666E+01-7.72733E+00



 n o d a l   p r i n t   o u t   f o r   t i m e  s t e p    9601                              ( at time 4.7995197E+00 )

 nodal point  x-rot      y-rot       z-rot       x-rot vel   y-rot vel   z-rot vel   x-rot acc   y-rot acc   z-rot acc
    22626  2.75229E-07-2.75950E-05-4.50654E-05-3.24473E-07 1.09345E-04 1.87194E-04-2.92541E-05 2.46928E-04 4.18073E-04



 n o d a l   p r i n t   o u t   f o r   t i m e  s t e p    9801                              ( at time 4.8995097E+00 )

 nodal point  x-disp     y-disp      z-disp      x-vel       y-vel       z-vel      x-accl      y-accl      z-accl      x-coor      y-coor      z-coor
    22626 -1.92003E-02-3.81271E-02-1.53818E+01 5.83631E-03-1.39098E-02-3.15981E+00 1.83882E-02-1.15783E-02-2.00053E-03 4.79450E+01-2.20679E+01-8.04328E+00



 n o d a l   p r i n t   o u t   f o r   t i m e  s t e p    9801                              ( at time 4.8995097E+00 )

 nodal point  x-rot      y-rot       z-rot       x-rot vel   y-rot vel   z-rot vel   x-rot acc   y-rot acc   z-rot acc
    22626  2.87201E-07-1.57534E-05-2.46957E-05-2.17454E-06 1.26676E-04 2.18487E-04-1.85025E-05 1.73329E-04 3.12955E-04



 n o d a l   p r i n t   o u t   f o r   t i m e  s t e p   10001                              ( at time 4.9994997E+00 )

 nodal point  x-disp     y-disp      z-disp      x-vel       y-vel       z-vel      x-accl      y-accl      z-accl      x-coor      y-coor      z-coor
    22626 -1.84881E-02-3.96296E-02-1.56976E+01 8.06146E-03-1.56797E-02-3.15795E+00 2.22537E-02-1.77013E-02 1.86294E-02 4.79457E+01-2.20694E+01-8.35914E+00



 n o d a l   p r i n t   o u t   f o r   t i m e  s t e p   10001                              ( at time 4.9994997E+00 )

 nodal point  x-rot      y-rot       z-rot       x-rot vel   y-rot vel   z-rot vel   x-rot acc   y-rot acc   z-rot acc
    22626 -2.09891E-07-1.45183E-06-1.08613E-06 5.55383E-07 1.59083E-04 2.43073E-04 2.73018E-05 3.24096E-04 2.45885E-04



 n o d a l   p r i n t   o u t   f o r   t i m e  s t e p   10202                              ( at time 5.0999896E+00 )

 nodal point  x-disp     y-disp      z-disp      x-vel       y-vel       z-vel      x-accl      y-accl      z-accl      x-coor      y-coor      z-coor
    22626 -1.75692E-02-4.12627E-02-1.60148E+01 1.00974E-02-1.66959E-02-3.15417E+00 2.02604E-02-1.01118E-02 3.76527E-02 4.79466E+01-2.20711E+01-8.67634E+00



 n o d a l   p r i n t   o u t   f o r   t i m e  s t e p   10202                              ( at time 5.0999896E+00 )

 nodal point  x-rot      y-rot       z-rot       x-rot vel   y-rot vel   z-rot vel   x-rot acc   y-rot acc   z-rot acc
    22626  5.13997E-07 1.78833E-05 2.56777E-05 6.53446E-06 2.30112E-04 2.85381E-04 5.94995E-05 7.06830E-04 4.21023E-04



 n o d a l   p r i n t   o u t   f o r   t i m e  s t e p   10402                              ( at time 5.1999796E+00 )

 nodal point  x-disp     y-disp      z-disp      x-vel       y-vel       z-vel      x-accl      y-accl      z-accl      x-coor      y-coor      z-coor
    22626 -1.64628E-02-4.29239E-02-1.63298E+01 1.17733E-02-1.55709E-02-3.14625E+00 1.67607E-02 1.12510E-02 7.91960E-02 4.79477E+01-2.20727E+01-8.99135E+00



 n o d a l   p r i n t   o u t   f o r   t i m e  s t e p   10402                              ( at time 5.1999796E+00 )

 nodal point  x-rot      y-rot       z-rot       x-rot vel   y-rot vel   z-rot vel   x-rot acc   y-rot acc   z-rot acc
    22626  2.06844E-06 4.53604E-05 5.50170E-05 3.77033E-05 3.22534E-04 2.88476E-04 3.11718E-04 9.24314E-04 3.09526E-05



 n o d a l   p r i n t   o u t   f o r   t i m e  s t e p   10602                              ( at time 5.2999696E+00 )

 nodal point  x-disp     y-disp      z-disp      x-vel       y-vel       z-vel      x-accl      y-accl      z-accl      x-coor      y-coor      z-coor
    22626 -1.52073E-02-4.43480E-02-1.66439E+01 1.30298E-02-1.30702E-02-3.13345E+00 1.25660E-02 2.50094E-02 1.28013E-01 4.79490E+01-2.20741E+01-9.30538E+00



 n o d a l   p r i n t   o u t   f o r   t i m e  s t e p   10602                              ( at time 5.2999696E+00 )

 nodal point  x-rot      y-rot       z-rot       x-rot vel   y-rot vel   z-rot vel   x-rot acc   y-rot acc   z-rot acc
    22626  9.26585E-06 8.50673E-05 8.42939E-05 1.00284E-04 4.78794E-04 2.87868E-04 6.25874E-04 1.56275E-03-6.07779E-06



 n o d a l   p r i n t   o u t   f o r   t i m e  s t e p   10802                              ( at time 5.3999596E+00 )

 nodal point  x-disp     y-disp      z-disp      x-vel       y-vel       z-vel      x-accl      y-accl      z-accl      x-coor      y-coor      z-coor
    22626 -1.37898E-02-4.54631E-02-1.69563E+01 1.56619E-02-9.45049E-03-3.11505E+00 2.63234E-02 3.62005E-02 1.84037E-01 4.79504E+01-2.20753E+01-9.61777E+00



 n o d a l   p r i n t   o u t   f o r   t i m e  s t e p   10802                              ( at time 5.3999596E+00 )

 nodal point  x-rot      y-rot       z-rot       x-rot vel   y-rot vel   z-rot vel   x-rot acc   y-rot acc   z-rot acc
    22626  2.35096E-05 1.41221E-04 1.11792E-04 1.91843E-04 6.52115E-04 2.56596E-04 9.15681E-04 1.73338E-03-3.12753E-04



 n o d a l   p r i n t   o u t   f o r   t i m e  s t e p   11002                              ( at time 5.4999496E+00 )

 nodal point  x-disp     y-disp      z-disp      x-vel       y-vel       z-vel      x-accl      y-accl      z-accl      x-coor      y-coor      z-coor
    22626 -1.20966E-02-4.62402E-02-1.72666E+01 1.81104E-02-5.27144E-03-3.09132E+00 2.44880E-02 4.17947E-02 2.37310E-01 4.79521E+01-2.20760E+01-9.92809E+00



 n o d a l   p r i n t   o u t   f o r   t i m e  s t e p   11002                              ( at time 5.4999496E+00 )

 nodal point  x-rot      y-rot       z-rot       x-rot vel   y-rot vel   z-rot vel   x-rot acc   y-rot acc   z-rot acc
    22626  4.77217E-05 2.18168E-04 1.36802E-04 2.95545E-04 8.79469E-04 2.25919E-04 1.03713E-03 2.27378E-03-3.06806E-04



 n o d a l   p r i n t   o u t   f o r   t i m e  s t e p   11202                              ( at time 5.5999396E+00 )

 nodal point  x-disp     y-disp      z-disp      x-vel       y-vel       z-vel      x-accl      y-accl      z-accl      x-coor      y-coor      z-coor
    22626 -1.01384E-02-4.64742E-02-1.75744E+01 2.12093E-02-1.33667E-05-3.06522E+00 3.09915E-02 5.25860E-02 2.60997E-01 4.79540E+01-2.20763E+01-1.02359E+01



 n o d a l   p r i n t   o u t   f o r   t i m e  s t e p   11202                              ( at time 5.5999396E+00 )

 nodal point  x-rot      y-rot       z-rot       x-rot vel   y-rot vel   z-rot vel   x-rot acc   y-rot acc   z-rot acc
    22626  8.38153E-05 3.18484E-04 1.57606E-04 4.13221E-04 1.13982E-03 1.91741E-04 1.17687E-03 2.60378E-03-3.41809E-04



 n o d a l   p r i n t   o u t   f o r   t i m e  s t e p   11402                              ( at time 5.6999296E+00 )

 nodal point  x-disp     y-disp      z-disp      x-vel       y-vel       z-vel      x-accl      y-accl      z-accl      x-coor      y-coor      z-coor
    22626 -7.91778E-03-4.61052E-02-1.78794E+01 2.35496E-02 7.35511E-03-3.03559E+00 2.34058E-02 7.36918E-02 2.96326E-01 4.79563E+01-2.20759E+01-1.05409E+01



 n o d a l   p r i n t   o u t   f o r   t i m e  s t e p   11402                              ( at time 5.6999296E+00 )

 nodal point  x-rot      y-rot       z-rot       x-rot vel   y-rot vel   z-rot vel   x-rot acc   y-rot acc   z-rot acc
    22626  1.33051E-04 4.45881E-04 1.73709E-04 5.59952E-04 1.41070E-03 1.33224E-04 1.46745E-03 2.70909E-03-5.85225E-04



 n o d a l   p r i n t   o u t   f o r   t i m e  s t e p   11602                              ( at time 5.7999195E+00 )

 nodal point  x-disp     y-disp      z-disp      x-vel       y-vel       z-vel      x-accl      y-accl      z-accl      x-coor      y-coor      z-coor
    22626 -5.45226E-03-4.50581E-02-1.81814E+01 2.56021E-02 1.41735E-02-3.00280E+00 2.05270E-02 6.81910E-02 3.27987E-01 4.79587E+01-2.20748E+01-1.08429E+01



 n o d a l   p r i n t   o u t   f o r   t i m e  s t e p   11602                              ( at time 5.7999195E+00 )

 nodal point  x-rot      y-rot       z-rot       x-rot vel   y-rot vel   z-rot vel   x-rot acc   y-rot acc   z-rot acc
    22626  1.96665E-04 6.03053E-04 1.83675E-04 7.32656E-04 1.73175E-03 5.80220E-05 1.72722E-03 3.21077E-03-7.52101E-04



 n o d a l   p r i n t   o u t   f o r   t i m e  s t e p   11802                              ( at time 5.8999095E+00 )

 nodal point  x-disp     y-disp      z-disp      x-vel       y-vel       z-vel      x-accl      y-accl      z-accl      x-coor      y-coor      z-coor
    22626 -2.70303E-03-4.33371E-02-1.84798E+01 2.95117E-02 2.05411E-02-2.96727E+00 3.91003E-02 6.36821E-02 3.55301E-01 4.79615E+01-2.20731E+01-1.11413E+01



 n o d a l   p r i n t   o u t   f o r   t i m e  s t e p   11802                              ( at time 5.8999095E+00 )

 nodal point  x-rot      y-rot       z-rot       x-rot vel   y-rot vel   z-rot vel   x-rot acc   y-rot acc   z-rot acc
    22626  2.77180E-04 7.91737E-04 1.85356E-04 8.86965E-04 2.04777E-03-1.79192E-05 1.54324E-03 3.16057E-03-7.59489E-04



 n o d a l   p r i n t   o u t   f o r   t i m e  s t e p   12002                              ( at time 5.9998995E+00 )

 nodal point  x-disp     y-disp      z-disp      x-vel       y-vel       z-vel      x-accl      y-accl      z-accl      x-coor      y-coor      z-coor
    22626  4.00135E-04-4.10639E-02-1.87746E+01 3.27363E-02 2.60483E-02-2.92895E+00 3.22485E-02 5.50781E-02 3.83213E-01 4.79646E+01-2.20709E+01-1.14361E+01



 n o d a l   p r i n t   o u t   f o r   t i m e  s t e p   12002                              ( at time 5.9998995E+00 )

 nodal point  x-rot      y-rot       z-rot       x-rot vel   y-rot vel   z-rot vel   x-rot acc   y-rot acc   z-rot acc
    22626  3.73145E-04 1.01440E-03 1.80091E-04 1.04624E-03 2.37553E-03-1.05081E-04 1.59296E-03 3.27794E-03-8.71707E-04



 n o d a l   p r i n t   o u t   f o r   t i m e  s t e p   12202                              ( at time 6.0998895E+00 )

 nodal point  x-disp     y-disp      z-disp      x-vel       y-vel       z-vel      x-accl      y-accl      z-accl      x-coor      y-coor      z-coor
    22626  3.83117E-03-3.80638E-02-1.90655E+01 3.54657E-02 3.48290E-02-2.88917E+00 2.72967E-02 8.78149E-02 3.97868E-01 4.79680E+01-2.20679E+01-1.17270E+01



 n o d a l   p r i n t   o u t   f o r   t i m e  s t e p   12202                              ( at time 6.0998895E+00 )

 nodal point  x-rot      y-rot       z-rot       x-rot vel   y-rot vel   z-rot vel   x-rot acc   y-rot acc   z-rot acc
    22626  4.85950E-04 1.27054E-03 1.64836E-04 1.22111E-03 2.74980E-03-2.07984E-04 1.74883E-03 3.74303E-03-1.02913E-03



 n o d a l   p r i n t   o u t   f o r   t i m e  s t e p   12402                              ( at time 6.1998795E+00 )

 nodal point  x-disp     y-disp      z-disp      x-vel       y-vel       z-vel      x-accl      y-accl      z-accl      x-coor      y-coor      z-coor
    22626  7.59613E-03-3.42997E-02-1.93524E+01 4.05799E-02 4.07932E-02-2.84769E+00 5.11476E-02 5.96484E-02 4.14843E-01 4.79718E+01-2.20641E+01-1.20139E+01



 n o d a l   p r i n t   o u t   f o r   t i m e  s t e p   12402                              ( at time 6.1998795E+00 )

 nodal point  x-rot      y-rot       z-rot       x-rot vel   y-rot vel   z-rot vel   x-rot acc   y-rot acc   z-rot acc
    22626  6.17312E-04 1.56150E-03 1.39770E-04 1.40854E-03 3.08165E-03-2.92735E-04 1.87448E-03 3.31887E-03-8.47593E-04



 n o d a l   p r i n t   o u t   f o r   t i m e  s t e p   12602                              ( at time 6.2998695E+00 )

 nodal point  x-disp     y-disp      z-disp      x-vel       y-vel       z-vel      x-accl      y-accl      z-accl      x-coor      y-coor      z-coor
    22626  1.19245E-02-2.98259E-02-1.96349E+01 4.65048E-02 4.71068E-02-2.80398E+00 5.92548E-02 6.31420E-02 4.37173E-01 4.79761E+01-2.20596E+01-1.22964E+01



 n o d a l   p r i n t   o u t   f o r   t i m e  s t e p   12602                              ( at time 6.2998695E+00 )

 nodal point  x-rot      y-rot       z-rot       x-rot vel   y-rot vel   z-rot vel   x-rot acc   y-rot acc   z-rot acc
    22626  7.67617E-04 1.88662E-03 1.02927E-04 1.59182E-03 3.42671E-03-4.06980E-04 1.83303E-03 3.45088E-03-1.14257E-03



 n o d a l   p r i n t   o u t   f o r   t i m e  s t e p   12802                              ( at time 6.3998595E+00 )

 nodal point  x-disp     y-disp      z-disp      x-vel       y-vel       z-vel      x-accl      y-accl      z-accl      x-coor      y-coor      z-coor
    22626  1.67739E-02-2.47052E-02-1.99130E+01 5.19436E-02 5.53233E-02-2.75815E+00 5.43932E-02 8.21735E-02 4.58273E-01 4.79810E+01-2.20545E+01-1.25745E+01



 n o d a l   p r i n t   o u t   f o r   t i m e  s t e p   12802                              ( at time 6.3998595E+00 )

 nodal point  x-rot      y-rot       z-rot       x-rot vel   y-rot vel   z-rot vel   x-rot acc   y-rot acc   z-rot acc
    22626  9.36475E-04 2.24752E-03 5.51123E-05 1.78888E-03 3.78426E-03-5.39534E-04 1.97079E-03 3.57589E-03-1.32567E-03



 n o d a l   p r i n t   o u t   f o r   t i m e  s t e p   13002                              ( at time 6.4998495E+00 )

 nodal point  x-disp     y-disp      z-disp      x-vel       y-vel       z-vel      x-accl      y-accl      z-accl      x-coor      y-coor      z-coor
    22626  2.23528E-02-1.87722E-02-2.01864E+01 5.94209E-02 6.30324E-02-2.71098E+00 7.47804E-02 7.70992E-02 4.71783E-01 4.79865E+01-2.20486E+01-1.28479E+01



 n o d a l   p r i n t   o u t   f o r   t i m e  s t e p   13002                              ( at time 6.4998495E+00 )

 nodal point  x-rot      y-rot       z-rot       x-rot vel   y-rot vel   z-rot vel   x-rot acc   y-rot acc   z-rot acc
    22626  1.12708E-03 2.64187E-03-3.98048E-06 2.00933E-03 4.10118E-03-6.49630E-04 2.20466E-03 3.16947E-03-1.10107E-03



 n o d a l   p r i n t   o u t   f o r   t i m e  s t e p   13202                              ( at time 6.5998395E+00 )

 nodal point  x-disp     y-disp      z-disp      x-vel       y-vel       z-vel      x-accl      y-accl      z-accl      x-coor      y-coor      z-coor
    22626  2.87350E-02-1.20540E-02-2.04551E+01 6.77534E-02 7.08558E-02-2.66325E+00 8.33330E-02 7.82409E-02 4.77336E-01 4.79929E+01-2.20418E+01-1.31166E+01



 n o d a l   p r i n t   o u t   f o r   t i m e  s t e p   13202                              ( at time 6.5998395E+00 )

 nodal point  x-rot      y-rot       z-rot       x-rot vel   y-rot vel   z-rot vel   x-rot acc   y-rot acc   z-rot acc
    22626  1.33858E-03 3.06851E-03-7.47250E-05 2.21070E-03 4.43011E-03-7.65193E-04 2.01393E-03 3.28970E-03-1.15574E-03



 n o d a l   p r i n t   o u t   f o r   t i m e  s t e p   13402                              ( at time 6.6998295E+00 )

 nodal point  x-disp     y-disp      z-disp      x-vel       y-vel       z-vel      x-accl      y-accl      z-accl      x-coor      y-coor      z-coor
    22626  3.58725E-02-4.58283E-03-2.07189E+01 7.55827E-02 7.83964E-02-2.61340E+00 7.83009E-02 7.54144E-02 4.98512E-01 4.80001E+01-2.20344E+01-1.33804E+01



 n o d a l   p r i n t   o u t   f o r   t i m e  s t e p   13402                              ( at time 6.6998295E+00 )

 nodal point  x-rot      y-rot       z-rot       x-rot vel   y-rot vel   z-rot vel   x-rot acc   y-rot acc   z-rot acc
    22626  1.57105E-03 3.52697E-03-1.57858E-04 2.43679E-03 4.74970E-03-8.87051E-04 2.26114E-03 3.19619E-03-1.21871E-03



 n o d a l   p r i n t   o u t   f o r   t i m e  s t e p   13602                              ( at time 6.7998195E+00 )

 nodal point  x-disp     y-disp      z-disp      x-vel       y-vel       z-vel      x-accl      y-accl      z-accl      x-coor      y-coor      z-coor
    22626  4.38900E-02 3.67535E-03-2.09777E+01 8.55712E-02 8.60816E-02-2.56245E+00 9.98952E-02 7.68592E-02 5.09616E-01 4.80081E+01-2.20261E+01-1.36392E+01



 n o d a l   p r i n t   o u t   f o r   t i m e  s t e p   13602                              ( at time 6.7998195E+00 )

 nodal point  x-rot      y-rot       z-rot       x-rot vel   y-rot vel   z-rot vel   x-rot acc   y-rot acc   z-rot acc
    22626  1.82688E-03 4.01529E-03-2.53228E-04 2.67065E-03 5.02731E-03-1.01648E-03 2.33882E-03 2.77641E-03-1.29446E-03



 n o d a l   p r i n t   o u t   f o r   t i m e  s t e p   13802                              ( at time 6.8998095E+00 )

 nodal point  x-disp     y-disp      z-disp      x-vel       y-vel       z-vel      x-accl      y-accl      z-accl      x-coor      y-coor      z-coor
    22626  5.29591E-02 1.26841E-02-2.12312E+01 9.49283E-02 9.42121E-02-2.50929E+00 9.35807E-02 8.13133E-02 5.31610E-01 4.80171E+01-2.20171E+01-1.38927E+01



 n o d a l   p r i n t   o u t   f o r   t i m e  s t e p   13802                              ( at time 6.8998095E+00 )

 nodal point  x-rot      y-rot       z-rot       x-rot vel   y-rot vel   z-rot vel   x-rot acc   y-rot acc   z-rot acc
    22626  2.10532E-03 4.53393E-03-3.61541E-04 2.89943E-03 5.33218E-03-1.15350E-03 2.28802E-03 3.04900E-03-1.37028E-03



 n o d a l   p r i n t   o u t   f o r   t i m e  s t e p   14002                              ( at time 6.9997995E+00 )

 nodal point  x-disp     y-disp      z-disp      x-vel       y-vel       z-vel      x-accl      y-accl      z-accl      x-coor      y-coor      z-coor
    22626  6.29128E-02 2.24645E-02-2.14795E+01 1.03697E-01 1.02229E-01-2.45703E+00 8.76959E-02 8.01780E-02 5.22642E-01 4.80271E+01-2.20073E+01-1.41410E+01



 n o d a l   p r i n t   o u t   f o r   t i m e  s t e p   14002                              ( at time 6.9997995E+00 )

 nodal point  x-rot      y-rot       z-rot       x-rot vel   y-rot vel   z-rot vel   x-rot acc   y-rot acc   z-rot acc
    22626  2.40626E-03 5.08128E-03-4.81756E-04 3.13665E-03 5.62119E-03-1.26278E-03 2.37248E-03 2.89034E-03-1.09290E-03



 n o d a l   p r i n t   o u t   f o r   t i m e  s t e p   14202                              ( at time 7.0997895E+00 )

 nodal point  x-disp     y-disp      z-disp      x-vel       y-vel       z-vel      x-accl      y-accl      z-accl      x-coor      y-coor      z-coor
    22626  7.37942E-02 3.30930E-02-2.17224E+01 1.14576E-01 1.09430E-01-2.40244E+00 1.08802E-01 7.20128E-02 5.45972E-01 4.80380E+01-2.19967E+01-1.43839E+01



 n o d a l   p r i n t   o u t   f o r   t i m e  s t e p   14202                              ( at time 7.0997895E+00 )

 nodal point  x-rot      y-rot       z-rot       x-rot vel   y-rot vel   z-rot vel   x-rot acc   y-rot acc   z-rot acc
    22626  2.73258E-03 5.65723E-03-6.15806E-04 3.38526E-03 5.89802E-03-1.38839E-03 2.48636E-03 2.76855E-03-1.25626E-03



 n o d a l   p r i n t   o u t   f o r   t i m e  s t e p   14402                              ( at time 7.1997794E+00 )

 nodal point  x-disp     y-disp      z-disp      x-vel       y-vel       z-vel      x-accl      y-accl      z-accl      x-coor      y-coor      z-coor
    22626  8.57079E-02 4.43238E-02-2.19598E+01 1.24240E-01 1.15187E-01-2.34627E+00 9.66504E-02 5.75833E-02 5.61773E-01 4.80499E+01-2.19855E+01-1.46213E+01



 n o d a l   p r i n t   o u t   f o r   t i m e  s t e p   14402                              ( at time 7.1997794E+00 )

 nodal point  x-rot      y-rot       z-rot       x-rot vel   y-rot vel   z-rot vel   x-rot acc   y-rot acc   z-rot acc
    22626  3.08173E-03 6.26185E-03-7.61502E-04 3.61592E-03 6.19329E-03-1.50333E-03 2.30677E-03 2.95306E-03-1.14950E-03



 n o d a l   p r i n t   o u t   f o r   t i m e  s t e p   14602                              ( at time 7.2997694E+00 )

 nodal point  x-disp     y-disp      z-disp      x-vel       y-vel       z-vel      x-accl      y-accl      z-accl      x-coor      y-coor      z-coor
    22626  9.85430E-02 5.62318E-02-2.21916E+01 1.32682E-01 1.22003E-01-2.29023E+00 8.44227E-02 6.81658E-02 5.60479E-01 4.80627E+01-2.19736E+01-1.48531E+01



 n o d a l   p r i n t   o u t   f o r   t i m e  s t e p   14602                              ( at time 7.2997694E+00 )

 nodal point  x-rot      y-rot       z-rot       x-rot vel   y-rot vel   z-rot vel   x-rot acc   y-rot acc   z-rot acc
    22626  3.45699E-03 6.89460E-03-9.18314E-04 3.87595E-03 6.47101E-03-1.62265E-03 2.60055E-03 2.77740E-03-1.19331E-03



 n o d a l   p r i n t   o u t   f o r   t i m e  s t e p   14802                              ( at time 7.3997594E+00 )

 nodal point  x-disp     y-disp      z-disp      x-vel       y-vel       z-vel      x-accl      y-accl      z-accl      x-coor      y-coor      z-coor
    22626  1.12275E-01 6.87332E-02-2.24178E+01 1.41652E-01 1.27212E-01-2.23319E+00 8.97173E-02 5.20912E-02 5.70465E-01 4.80765E+01-2.19611E+01-1.50793E+01



 n o d a l   p r i n t   o u t   f o r   t i m e  s t e p   14802                              ( at time 7.3997594E+00 )

 nodal point  x-rot      y-rot       z-rot       x-rot vel   y-rot vel   z-rot vel   x-rot acc   y-rot acc   z-rot acc
    22626  3.85793E-03 7.55535E-03-1.08660E-03 4.13347E-03 6.75427E-03-1.73597E-03 2.57546E-03 2.83294E-03-1.13329E-03



 n o d a l   p r i n t   o u t   f o r   t i m e  s t e p   15002                              ( at time 7.4997494E+00 )

 nodal point  x-disp     y-disp      z-disp      x-vel       y-vel       z-vel      x-accl      y-accl      z-accl      x-coor      y-coor      z-coor
    22626  1.26853E-01 8.16804E-02-2.26381E+01 1.49743E-01 1.32283E-01-2.17335E+00 8.09113E-02 5.07167E-02 5.98424E-01 4.80910E+01-2.19481E+01-1.52996E+01



 n o d a l   p r i n t   o u t   f o r   t i m e  s t e p   15002                              ( at time 7.4997494E+00 )

 nodal point  x-rot      y-rot       z-rot       x-rot vel   y-rot vel   z-rot vel   x-rot acc   y-rot acc   z-rot acc
    22626  4.28482E-03 8.24512E-03-1.26535E-03 4.40082E-03 7.04645E-03-1.84224E-03 2.67381E-03 2.92207E-03-1.06286E-03



 n o d a l   p r i n t   o u t   f o r   t i m e  s t e p   15202                              ( at time 7.5997394E+00 )

 nodal point  x-disp     y-disp      z-disp      x-vel       y-vel       z-vel      x-accl      y-accl      z-accl      x-coor      y-coor      z-coor
    22626  1.42203E-01 9.50437E-02-2.28524E+01 1.57665E-01 1.34522E-01-2.11318E+00 7.92274E-02 2.23953E-02 6.01815E-01 4.81064E+01-2.19347E+01-1.55139E+01



 n o d a l   p r i n t   o u t   f o r   t i m e  s t e p   15202                              ( at time 7.5997394E+00 )

 nodal point  x-rot      y-rot       z-rot       x-rot vel   y-rot vel   z-rot vel   x-rot acc   y-rot acc   z-rot acc
    22626  4.73864E-03 8.96317E-03-1.45398E-03 4.68414E-03 7.31740E-03-1.93301E-03 2.83347E-03 2.70981E-03-9.07792E-04



 n o d a l   p r i n t   o u t   f o r   t i m e  s t e p   15402                              ( at time 7.6997294E+00 )

 nodal point  x-disp     y-disp      z-disp      x-vel       y-vel       z-vel      x-accl      y-accl      z-accl      x-coor      y-coor      z-coor
    22626  1.58257E-01 1.08658E-01-2.30603E+01 1.63813E-01 1.37159E-01-2.04676E+00 6.14865E-02 2.63713E-02 6.64194E-01 4.81224E+01-2.19211E+01-1.57218E+01



 n o d a l   p r i n t   o u t   f o r   t i m e  s t e p   15402                              ( at time 7.6997294E+00 )

 nodal point  x-rot      y-rot       z-rot       x-rot vel   y-rot vel   z-rot vel   x-rot acc   y-rot acc   z-rot acc
    22626  5.22191E-03 9.71121E-03-1.65254E-03 4.98341E-03 7.62629E-03-2.03219E-03 2.99296E-03 3.08915E-03-9.91839E-04



 n o d a l   p r i n t   o u t   f o r   t i m e  s t e p   15602                              ( at time 7.7997194E+00 )

 nodal point  x-disp     y-disp      z-disp      x-vel       y-vel       z-vel      x-accl      y-accl      z-accl      x-coor      y-coor      z-coor
    22626  1.75009E-01 1.22447E-01-2.32617E+01 1.70935E-01 1.39516E-01-1.98115E+00 7.12304E-02 2.35742E-02 6.56166E-01 4.81392E+01-2.19073E+01-1.59232E+01



 n o d a l   p r i n t   o u t   f o r   t i m e  s t e p   15602                              ( at time 7.7997194E+00 )

 nodal point  x-rot      y-rot       z-rot       x-rot vel   y-rot vel   z-rot vel   x-rot acc   y-rot acc   z-rot acc
    22626  5.73484E-03 1.04867E-02-1.85957E-03 5.26950E-03 7.89748E-03-2.12095E-03 2.86119E-03 2.71223E-03-8.87726E-04



 n o d a l   p r i n t   o u t   f o r   t i m e  s t e p   15802                              ( at time 7.8997094E+00 )

 nodal point  x-disp     y-disp      z-disp      x-vel       y-vel       z-vel      x-accl      y-accl      z-accl      x-coor      y-coor      z-coor
    22626  1.92464E-01 1.36365E-01-2.34565E+01 1.78363E-01 1.39387E-01-1.91469E+00 7.42861E-02-1.29921E-03 6.64672E-01 4.81566E+01-2.18934E+01-1.61180E+01



 n o d a l   p r i n t   o u t   f o r   t i m e  s t e p   15802                              ( at time 7.8997094E+00 )

 nodal point  x-rot      y-rot       z-rot       x-rot vel   y-rot vel   z-rot vel   x-rot acc   y-rot acc   z-rot acc
    22626  6.27737E-03 1.12877E-02-2.07504E-03 5.58240E-03 8.12767E-03-2.18445E-03 3.12933E-03 2.30215E-03-6.35084E-04



 n o d a l   p r i n t   o u t   f o r   t i m e  s t e p   16002                              ( at time 7.9996994E+00 )

 nodal point  x-disp     y-disp      z-disp      x-vel       y-vel       z-vel      x-accl      y-accl      z-accl      x-coor      y-coor      z-coor
    22626  2.10616E-01 1.50333E-01-2.36445E+01 1.85091E-01 1.39398E-01-1.84535E+00 6.72828E-02 1.19668E-04 6.93516E-01 4.81748E+01-2.18795E+01-1.63060E+01



 n o d a l   p r i n t   o u t   f o r   t i m e  s t e p   16002                              ( at time 7.9996994E+00 )

 nodal point  x-rot      y-rot       z-rot       x-rot vel   y-rot vel   z-rot vel   x-rot acc   y-rot acc   z-rot acc
    22626  6.85183E-03 1.21140E-02-2.29834E-03 5.91284E-03 8.37891E-03-2.25721E-03 3.30475E-03 2.51262E-03-7.27691E-04



 n o d a l   p r i n t   o u t   f o r   t i m e  s t e p   16202                              ( at time 8.0996894E+00 )

 nodal point  x-disp     y-disp      z-disp      x-vel       y-vel       z-vel      x-accl      y-accl      z-accl      x-coor      y-coor      z-coor
    22626  2.29443E-01 1.64241E-01-2.38254E+01 1.92191E-01 1.38940E-01-1.77323E+00 7.10109E-02-4.58794E-03 7.21265E-01 4.81936E+01-2.18655E+01-1.64869E+01



 n o d a l   p r i n t   o u t   f o r   t i m e  s t e p   16202                              ( at time 8.0996894E+00 )

 nodal point  x-rot      y-rot       z-rot       x-rot vel   y-rot vel   z-rot vel   x-rot acc   y-rot acc   z-rot acc
    22626  7.45948E-03 1.29626E-02-2.52891E-03 6.24951E-03 8.59702E-03-2.34881E-03 3.36702E-03 2.18135E-03-9.16060E-04



 n o d a l   p r i n t   o u t   f o r   t i m e  s t e p   16402                              ( at time 8.1996794E+00 )

 nodal point  x-disp     y-disp      z-disp      x-vel       y-vel       z-vel      x-accl      y-accl      z-accl      x-coor      y-coor      z-coor
    22626  2.49072E-01 1.77998E-01-2.39993E+01 1.99356E-01 1.36751E-01-1.70330E+00 7.16575E-02-2.18896E-02 6.99335E-01 4.82133E+01-2.18518E+01-1.66608E+01



 n o d a l   p r i n t   o u t   f o r   t i m e  s t e p   16402                              ( at time 8.1996794E+00 )

 nodal point  x-rot      y-rot       z-rot       x-rot vel   y-rot vel   z-rot vel   x-rot acc   y-rot acc   z-rot acc
    22626  8.10126E-03 1.38316E-02-2.76708E-03 6.58794E-03 8.79797E-03-2.41345E-03 3.38463E-03 2.00967E-03-6.46413E-04



 n o d a l   p r i n t   o u t   f o r   t i m e  s t e p   16602                              ( at time 8.2996694E+00 )

 nodal point  x-disp     y-disp      z-disp      x-vel       y-vel       z-vel      x-accl      y-accl      z-accl      x-coor      y-coor      z-coor
    22626  2.69322E-01 1.91652E-01-2.41660E+01 2.05168E-01 1.35445E-01-1.63218E+00 5.81259E-02-1.30614E-02 7.11276E-01 4.82335E+01-2.18381E+01-1.68275E+01



 n o d a l   p r i n t   o u t   f o r   t i m e  s t e p   16602                              ( at time 8.2996694E+00 )

 nodal point  x-rot      y-rot       z-rot       x-rot vel   y-rot vel   z-rot vel   x-rot acc   y-rot acc   z-rot acc
    22626  8.77619E-03 1.47221E-02-3.01155E-03 6.93497E-03 8.98653E-03-2.47126E-03 3.47071E-03 1.88580E-03-5.78200E-04



 n o d a l   p r i n t   o u t   f o r   t i m e  s t e p   16802                              ( at time 8.3996594E+00 )

 nodal point  x-disp     y-disp      z-disp      x-vel       y-vel       z-vel      x-accl      y-accl      z-accl      x-coor      y-coor      z-coor
    22626  2.90246E-01 2.05000E-01-2.43255E+01 2.12800E-01 1.31681E-01-1.55760E+00 7.63291E-02-3.76483E-02 7.45930E-01 4.82544E+01-2.18248E+01-1.69870E+01



 n o d a l   p r i n t   o u t   f o r   t i m e  s t e p   16802                              ( at time 8.3996594E+00 )

 nodal point  x-rot      y-rot       z-rot       x-rot vel   y-rot vel   z-rot vel   x-rot acc   y-rot acc   z-rot acc
    22626  9.48755E-03 1.56283E-02-3.26246E-03 7.29581E-03 9.14334E-03-2.54954E-03 3.60871E-03 1.56823E-03-7.82909E-04



 n o d a l   p r i n t   o u t   f o r   t i m e  s t e p   17002                              ( at time 8.4996494E+00 )

 nodal point  x-disp     y-disp      z-disp      x-vel       y-vel       z-vel      x-accl      y-accl      z-accl      x-coor      y-coor      z-coor
    22626  3.11865E-01 2.17899E-01-2.44774E+01 2.19493E-01 1.25740E-01-1.48249E+00 6.69349E-02-5.94111E-02 7.51122E-01 4.82760E+01-2.18119E+01-1.71389E+01



 n o d a l   p r i n t   o u t   f o r   t i m e  s t e p   17002                              ( at time 8.4996494E+00 )

 nodal point  x-rot      y-rot       z-rot       x-rot vel   y-rot vel   z-rot vel   x-rot acc   y-rot acc   z-rot acc
    22626  1.02353E-02 1.65504E-02-3.52066E-03 7.64524E-03 9.29856E-03-2.59821E-03 3.49469E-03 1.55238E-03-4.86763E-04



 n o d a l   p r i n t   o u t   f o r   t i m e  s t e p   17202                              ( at time 8.5996394E+00 )

 nodal point  x-disp     y-disp      z-disp      x-vel       y-vel       z-vel      x-accl      y-accl      z-accl      x-coor      y-coor      z-coor
    22626  3.34092E-01 2.30164E-01-2.46218E+01 2.25286E-01 1.19945E-01-1.40503E+00 5.79378E-02-5.79564E-02 7.74718E-01 4.82983E+01-2.17996E+01-1.72833E+01



 n o d a l   p r i n t   o u t   f o r   t i m e  s t e p   17202                              ( at time 8.5996394E+00 )

 nodal point  x-rot      y-rot       z-rot       x-rot vel   y-rot vel   z-rot vel   x-rot acc   y-rot acc   z-rot acc
    22626  1.10192E-02 1.74868E-02-3.78464E-03 8.03259E-03 9.43341E-03-2.66934E-03 3.87383E-03 1.34858E-03-7.11360E-04



 n o d a l   p r i n t   o u t   f o r   t i m e  s t e p   17402                              ( at time 8.6996293E+00 )

 nodal point  x-disp     y-disp      z-disp      x-vel       y-vel       z-vel      x-accl      y-accl      z-accl      x-coor      y-coor      z-coor
    22626  3.56979E-01 2.41856E-01-2.47584E+01 2.32523E-01 1.14204E-01-1.32759E+00 7.23756E-02-5.74155E-02 7.74471E-01 4.83212E+01-2.17879E+01-1.74199E+01



 n o d a l   p r i n t   o u t   f o r   t i m e  s t e p   17402                              ( at time 8.6996293E+00 )

 nodal point  x-rot      y-rot       z-rot       x-rot vel   y-rot vel   z-rot vel   x-rot acc   y-rot acc   z-rot acc
    22626  1.18430E-02 1.84359E-02-4.05501E-03 8.43377E-03 9.54080E-03-2.74058E-03 4.01224E-03 1.07404E-03-7.12438E-04



 n o d a l   p r i n t   o u t   f o r   t i m e  s t e p   17602                              ( at time 8.7996193E+00 )

 nodal point  x-disp     y-disp      z-disp      x-vel       y-vel       z-vel      x-accl      y-accl      z-accl      x-coor      y-coor      z-coor
    22626  3.80663E-01 2.52939E-01-2.48872E+01 2.40439E-01 1.06409E-01-1.24893E+00 7.91709E-02-7.79614E-02 7.86680E-01 4.83448E+01-2.17769E+01-1.75487E+01



 n o d a l   p r i n t   o u t   f o r   t i m e  s t e p   17602                              ( at time 8.7996193E+00 )

 nodal point  x-rot      y-rot       z-rot       x-rot vel   y-rot vel   z-rot vel   x-rot acc   y-rot acc   z-rot acc
    22626  1.27056E-02 1.93926E-02-4.33175E-03 8.81968E-03 9.61523E-03-2.77508E-03 3.85942E-03 7.44351E-04-3.45032E-04



 n o d a l   p r i n t   o u t   f o r   t i m e  s t e p   17802                              ( at time 8.8996093E+00 )

 nodal point  x-disp     y-disp      z-disp      x-vel       y-vel       z-vel      x-accl      y-accl      z-accl      x-coor      y-coor      z-coor
    22626  4.04991E-01 2.63250E-01-2.50082E+01 2.45878E-01 9.98910E-02-1.17148E+00 5.43958E-02-6.51823E-02 7.74540E-01 4.83692E+01-2.17665E+01-1.76697E+01



 n o d a l   p r i n t   o u t   f o r   t i m e  s t e p   17802                              ( at time 8.8996093E+00 )

 nodal point  x-rot      y-rot       z-rot       x-rot vel   y-rot vel   z-rot vel   x-rot acc   y-rot acc   z-rot acc
    22626  1.36075E-02 2.03599E-02-4.61356E-03 9.21715E-03 9.75216E-03-2.84748E-03 3.97518E-03 1.36943E-03-7.24116E-04



 n o d a l   p r i n t   o u t   f o r   t i m e  s t e p   18002                              ( at time 8.9995993E+00 )

 nodal point  x-disp     y-disp      z-disp      x-vel       y-vel       z-vel      x-accl      y-accl      z-accl      x-coor      y-coor      z-coor
    22626  4.29918E-01 2.72931E-01-2.51216E+01 2.52948E-01 9.38107E-02-1.09669E+00 7.07021E-02-6.08095E-02 7.47960E-01 4.83941E+01-2.17569E+01-1.77831E+01



 n o d a l   p r i n t   o u t   f o r   t i m e  s t e p   18002                              ( at time 8.9995993E+00 )

 nodal point  x-rot      y-rot       z-rot       x-rot vel   y-rot vel   z-rot vel   x-rot acc   y-rot acc   z-rot acc
    22626  1.45497E-02 2.13380E-02-4.90126E-03 9.61567E-03 9.81855E-03-2.90182E-03 3.98552E-03 6.63970E-04-5.43377E-04



 n o d a l   p r i n t   o u t   f o r   t i m e  s t e p   18202                              ( at time 9.0995893E+00 )

 nodal point  x-disp     y-disp      z-disp      x-vel       y-vel       z-vel      x-accl      y-accl      z-accl      x-coor      y-coor      z-coor
    22626  4.55682E-01 2.82077E-01-2.52274E+01 2.61628E-01 8.87128E-02-1.02138E+00 8.68068E-02-5.09840E-02 7.53155E-01 4.84199E+01-2.17477E+01-1.78889E+01



 n o d a l   p r i n t   o u t   f o r   t i m e  s t e p   18202                              ( at time 9.0995893E+00 )

 nodal point  x-rot      y-rot       z-rot       x-rot vel   y-rot vel   z-rot vel   x-rot acc   y-rot acc   z-rot acc
    22626  1.55305E-02 2.23231E-02-5.19348E-03 9.99759E-03 9.88847E-03-2.95164E-03 3.81967E-03 6.99336E-04-4.98329E-04



 n o d a l   p r i n t   o u t   f o r   t i m e  s t e p   18402                              ( at time 9.1995793E+00 )

 nodal point  x-disp     y-disp      z-disp      x-vel       y-vel       z-vel      x-accl      y-accl      z-accl      x-coor      y-coor      z-coor
    22626  4.82140E-01 2.90658E-01-2.53259E+01 2.67062E-01 8.31413E-02-9.49148E-01 5.43470E-02-5.57202E-02 7.22440E-01 4.84463E+01-2.17391E+01-1.79874E+01



 n o d a l   p r i n t   o u t   f o r   t i m e  s t e p   18402                              ( at time 9.1995793E+00 )

 nodal point  x-rot      y-rot       z-rot       x-rot vel   y-rot vel   z-rot vel   x-rot acc   y-rot acc   z-rot acc
    22626  1.65508E-02 2.33170E-02-5.49000E-03 1.04058E-02 9.99096E-03-2.98786E-03 4.08270E-03 1.02496E-03-3.62191E-04



 n o d a l   p r i n t   o u t   f o r   t i m e  s t e p   18602                              ( at time 9.2995693E+00 )

 nodal point  x-disp     y-disp      z-disp      x-vel       y-vel       z-vel      x-accl      y-accl      z-accl      x-coor      y-coor      z-coor
    22626  5.09165E-01 2.98831E-01-2.54172E+01 2.73899E-01 8.02635E-02-8.77951E-01 6.83794E-02-2.87811E-02 7.12042E-01 4.84733E+01-2.17310E+01-1.80787E+01



 n o d a l   p r i n t   o u t   f o r   t i m e  s t e p   18602                              ( at time 9.2995693E+00 )

 nodal point  x-rot      y-rot       z-rot       x-rot vel   y-rot vel   z-rot vel   x-rot acc   y-rot acc   z-rot acc
    22626  1.76120E-02 2.43201E-02-5.79086E-03 1.08215E-02 1.00707E-02-3.04409E-03 4.15681E-03 7.97637E-04-5.62394E-04



 n o d a l   p r i n t   o u t   f o r   t i m e  s t e p   18802                              ( at time 9.3995593E+00 )

 nodal point  x-disp     y-disp      z-disp      x-vel       y-vel       z-vel      x-accl      y-accl      z-accl      x-coor      y-coor      z-coor
    22626  5.36996E-01 3.06518E-01-2.55014E+01 2.82690E-01 7.35474E-02-8.06703E-01 8.79207E-02-6.71683E-02 7.12548E-01 4.85012E+01-2.17233E+01-1.81629E+01



 n o d a l   p r i n t   o u t   f o r   t i m e  s t e p   18802                              ( at time 9.3995593E+00 )

 nodal point  x-rot      y-rot       z-rot       x-rot vel   y-rot vel   z-rot vel   x-rot acc   y-rot acc   z-rot acc
    22626  1.87123E-02 2.53301E-02-6.09711E-03 1.11852E-02 1.01360E-02-3.08004E-03 3.63779E-03 6.52839E-04-3.59462E-04



 n o d a l   p r i n t   o u t   f o r   t i m e  s t e p   19002                              ( at time 9.4995493E+00 )

 nodal point  x-disp     y-disp      z-disp      x-vel       y-vel       z-vel      x-accl      y-accl      z-accl      x-coor      y-coor      z-coor
    22626  5.65590E-01 3.13798E-01-2.55786E+01 2.88807E-01 7.20474E-02-7.38699E-01 6.11766E-02-1.50010E-02 6.80109E-01 4.85298E+01-2.17160E+01-1.82401E+01



 n o d a l   p r i n t   o u t   f o r   t i m e  s t e p   19002                              ( at time 9.4995493E+00 )

 nodal point  x-rot      y-rot       z-rot       x-rot vel   y-rot vel   z-rot vel   x-rot acc   y-rot acc   z-rot acc
    22626  1.98515E-02 2.63471E-02-6.40624E-03 1.16030E-02 1.02056E-02-3.09410E-03 4.17825E-03 6.96355E-04-1.40665E-04



 n o d a l   p r i n t   o u t   f o r   t i m e  s t e p   19202                              ( at time 9.5995393E+00 )

 nodal point  x-disp     y-disp      z-disp      x-vel       y-vel       z-vel      x-accl      y-accl      z-accl      x-coor      y-coor      z-coor
    22626  5.94722E-01 3.20960E-01-2.56490E+01 2.96139E-01 6.98524E-02-6.69632E-01 7.33225E-02-2.19521E-02 6.90739E-01 4.85589E+01-2.17088E+01-1.83105E+01



 n o d a l   p r i n t   o u t   f o r   t i m e  s t e p   19202                              ( at time 9.5995393E+00 )

 nodal point  x-rot      y-rot       z-rot       x-rot vel   y-rot vel   z-rot vel   x-rot acc   y-rot acc   z-rot acc
    22626  2.10318E-02 2.73702E-02-6.71961E-03 1.19871E-02 1.02686E-02-3.12343E-03 3.84157E-03 6.30060E-04-2.93354E-04



 n o d a l   p r i n t   o u t   f o r   t i m e  s t e p   19402                              ( at time 9.6995293E+00 )

 nodal point  x-disp     y-disp      z-disp      x-vel       y-vel       z-vel      x-accl      y-accl      z-accl      x-coor      y-coor      z-coor
    22626  6.24716E-01 3.27872E-01-2.57126E+01 3.04772E-01 6.65823E-02-6.03696E-01 8.63377E-02-3.27041E-02 6.59422E-01 4.85889E+01-2.17019E+01-1.83741E+01



 n o d a l   p r i n t   o u t   f o r   t i m e  s t e p   19402                              ( at time 9.6995293E+00 )

 nodal point  x-rot      y-rot       z-rot       x-rot vel   y-rot vel   z-rot vel   x-rot acc   y-rot acc   z-rot acc
    22626  2.22506E-02 2.84002E-02-7.03875E-03 1.23839E-02 1.03286E-02-3.19005E-03 3.96835E-03 6.00242E-04-6.66198E-04



 n o d a l   p r i n t   o u t   f o r   t i m e  s t e p   19602                              ( at time 9.7995193E+00 )

 nodal point  x-disp     y-disp      z-disp      x-vel       y-vel       z-vel      x-accl      y-accl      z-accl      x-coor      y-coor      z-coor
    22626  6.55484E-01 3.34480E-01-2.57697E+01 3.10438E-01 6.72467E-02-5.39156E-01 5.66635E-02 6.64383E-03 6.45470E-01 4.86197E+01-2.16953E+01-1.84312E+01



 n o d a l   p r i n t   o u t   f o r   t i m e  s t e p   19602                              ( at time 9.7995193E+00 )

 nodal point  x-rot      y-rot       z-rot       x-rot vel   y-rot vel   z-rot vel   x-rot acc   y-rot acc   z-rot acc
    22626  2.35077E-02 2.94348E-02-7.36147E-03 1.27927E-02 1.03598E-02-3.26829E-03 4.08885E-03 3.12043E-04-7.82532E-04



 n o d a l   p r i n t   o u t   f o r   t i m e  s t e p   19802                              ( at time 9.8995093E+00 )

 nodal point  x-disp     y-disp      z-disp      x-vel       y-vel       z-vel      x-accl      y-accl      z-accl      x-coor      y-coor      z-coor
    22626  6.86825E-01 3.41305E-01-2.58204E+01 3.17409E-01 6.73222E-02-4.76821E-01 6.97260E-02 7.55193E-04 6.23408E-01 4.86510E+01-2.16885E+01-1.84819E+01



 n o d a l   p r i n t   o u t   f o r   t i m e  s t e p   19802                              ( at time 9.8995093E+00 )

 nodal point  x-rot      y-rot       z-rot       x-rot vel   y-rot vel   z-rot vel   x-rot acc   y-rot acc   z-rot acc
    22626  2.48048E-02 3.04757E-02-7.68835E-03 1.31545E-02 1.04272E-02-3.29855E-03 3.61835E-03 6.73638E-04-3.02571E-04



 n o d a l   p r i n t   o u t   f o r   t i m e  s t e p   20003                              ( at time 9.9999992E+00 )

 nodal point  x-disp     y-disp      z-disp      x-vel       y-vel       z-vel      x-accl      y-accl      z-accl      x-coor      y-coor      z-coor
[...]
    22626  2.57559E-01 1.54514E-01-7.07733E-02 1.79399E-02 8.19123E-03-6.06001E-03-5.85893E-04-3.57996E-04 4.13363E-04



 n o d a l   p r i n t   o u t   f o r   t i m e  s t e p   45205                              ( at time 2.2599738E+01 )

 nodal point  x-disp     y-disp      z-disp      x-vel       y-vel       z-vel      x-accl      y-accl      z-accl      x-coor      y-coor      z-coor
    22626  4.67821E+00 9.29052E-01-2.02951E+01 2.75870E-01-6.97739E-02 4.54664E-01 2.04516E-02-4.21308E-02-2.96557E-02 5.26424E+01-2.11007E+01-1.29566E+01



 n o d a l   p r i n t   o u t   f o r   t i m e  s t e p   45205                              ( at time 2.2599738E+01 )

 nodal point  x-rot      y-rot       z-rot       x-rot vel   y-rot vel   z-rot vel   x-rot acc   y-rot acc   z-rot acc
    22626  2.59350E-01 1.55331E-01-7.13770E-02 1.78916E-02 8.16808E-03-6.00925E-03-4.83047E-04-2.31539E-04 5.07641E-04



 n o d a l   p r i n t   o u t   f o r   t i m e  s t e p   45405                              ( at time 2.2699728E+01 )

 nodal point  x-disp     y-disp      z-disp      x-vel       y-vel       z-vel      x-accl      y-accl      z-accl      x-coor      y-coor      z-coor
    22626  4.70589E+00 9.21887E-01-2.02498E+01 2.77864E-01-7.36138E-02 4.50982E-01 1.99468E-02-3.84036E-02-3.68284E-02 5.26701E+01-2.11079E+01-1.29113E+01



 n o d a l   p r i n t   o u t   f o r   t i m e  s t e p   45405                              ( at time 2.2699728E+01 )

 nodal point  x-rot      y-rot       z-rot       x-rot vel   y-rot vel   z-rot vel   x-rot acc   y-rot acc   z-rot acc
    22626  2.61136E-01 1.56147E-01-7.19751E-02 1.78463E-02 8.13715E-03-5.95342E-03-4.52915E-04-3.09345E-04 5.58301E-04



 n o d a l   p r i n t   o u t   f o r   t i m e  s t e p   45605                              ( at time 2.2799718E+01 )

 nodal point  x-disp     y-disp      z-disp      x-vel       y-vel       z-vel      x-accl      y-accl      z-accl      x-coor      y-coor      z-coor
    22626  4.73374E+00 9.14363E-01-2.02049E+01 2.79045E-01-7.68963E-02 4.47740E-01 1.18055E-02-3.28280E-02-3.24163E-02 5.26979E+01-2.11154E+01-1.28664E+01



 n o d a l   p r i n t   o u t   f o r   t i m e  s t e p   45605                              ( at time 2.2799718E+01 )

 nodal point  x-rot      y-rot       z-rot       x-rot vel   y-rot vel   z-rot vel   x-rot acc   y-rot acc   z-rot acc
    22626  2.62919E-01 1.56959E-01-7.25681E-02 1.78049E-02 8.11551E-03-5.91002E-03-4.13620E-04-2.16394E-04 4.34045E-04



 n o d a l   p r i n t   o u t   f o r   t i m e  s t e p   45805                              ( at time 2.2899708E+01 )

 nodal point  x-disp     y-disp      z-disp      x-vel       y-vel       z-vel      x-accl      y-accl      z-accl      x-coor      y-coor      z-coor
    22626  4.76173E+00 9.06507E-01-2.01603E+01 2.80699E-01-8.02743E-02 4.44932E-01 1.65391E-02-3.37832E-02-2.80906E-02 5.27259E+01-2.11233E+01-1.28218E+01



 n o d a l   p r i n t   o u t   f o r   t i m e  s t e p   45805                              ( at time 2.2899708E+01 )

 nodal point  x-rot      y-rot       z-rot       x-rot vel   y-rot vel   z-rot vel   x-rot acc   y-rot acc   z-rot acc
    22626  2.64697E-01 1.57770E-01-7.31563E-02 1.77694E-02 8.09347E-03-5.85852E-03-3.54631E-04-2.20394E-04 5.15102E-04



 n o d a l   p r i n t   o u t   f o r   t i m e  s t e p   46005                              ( at time 2.2999698E+01 )

 nodal point  x-disp     y-disp      z-disp      x-vel       y-vel       z-vel      x-accl      y-accl      z-accl      x-coor      y-coor      z-coor
    22626  4.78987E+00 8.98339E-01-2.01159E+01 2.82173E-01-8.30716E-02 4.42145E-01 1.47455E-02-2.79757E-02-2.78734E-02 5.27541E+01-2.11315E+01-1.27774E+01



 n o d a l   p r i n t   o u t   f o r   t i m e  s t e p   46005                              ( at time 2.2999698E+01 )

 nodal point  x-rot      y-rot       z-rot       x-rot vel   y-rot vel   z-rot vel   x-rot acc   y-rot acc   z-rot acc
    22626  2.66473E-01 1.58578E-01-7.37398E-02 1.77591E-02 8.07565E-03-5.80982E-03-1.03554E-04-1.78234E-04 4.87089E-04



 n o d a l   p r i n t   o u t   f o r   t i m e  s t e p   46205                              ( at time 2.3099688E+01 )

 nodal point  x-disp     y-disp      z-disp      x-vel       y-vel       z-vel      x-accl      y-accl      z-accl      x-coor      y-coor      z-coor
    22626  4.81812E+00 8.89931E-01-2.00718E+01 2.83081E-01-8.52517E-02 4.39631E-01 9.07760E-03-2.18039E-02-2.51381E-02 5.27823E+01-2.11399E+01-1.27333E+01



 n o d a l   p r i n t   o u t   f o r   t i m e  s t e p   46205                              ( at time 2.3099688E+01 )

 nodal point  x-rot      y-rot       z-rot       x-rot vel   y-rot vel   z-rot vel   x-rot acc   y-rot acc   z-rot acc
    22626  2.68248E-01 1.59385E-01-7.43185E-02 1.77314E-02 8.06350E-03-5.75920E-03-2.76969E-04-1.21523E-04 5.06225E-04



 n o d a l   p r i n t   o u t   f o r   t i m e  s t e p   46405                              ( at time 2.3199678E+01 )

 nodal point  x-disp     y-disp      z-disp      x-vel       y-vel       z-vel      x-accl      y-accl      z-accl      x-coor      y-coor      z-coor
    22626  4.84647E+00 8.81329E-01-2.00280E+01 2.83976E-01-8.69191E-02 4.37134E-01 8.95731E-03-1.66756E-02-2.49701E-02 5.28107E+01-2.11485E+01-1.26895E+01



 n o d a l   p r i n t   o u t   f o r   t i m e  s t e p   46405                              ( at time 2.3199678E+01 )

 nodal point  x-rot      y-rot       z-rot       x-rot vel   y-rot vel   z-rot vel   x-rot acc   y-rot acc   z-rot acc
    22626  2.70020E-01 1.60190E-01-7.48929E-02 1.77233E-02 8.03260E-03-5.72419E-03-8.09393E-05-3.09060E-04 3.50098E-04



 n o d a l   p r i n t   o u t   f o r   t i m e  s t e p   46605                              ( at time 2.3299668E+01 )

 nodal point  x-disp     y-disp      z-disp      x-vel       y-vel       z-vel      x-accl      y-accl      z-accl      x-coor      y-coor      z-coor
    22626  4.87491E+00 8.72560E-01-1.99844E+01 2.84870E-01-8.82134E-02 4.35009E-01 8.93990E-03-1.29439E-02-2.12574E-02 5.28391E+01-2.11572E+01-1.26459E+01



 n o d a l   p r i n t   o u t   f o r   t i m e  s t e p   46605                              ( at time 2.3299668E+01 )

 nodal point  x-rot      y-rot       z-rot       x-rot vel   y-rot vel   z-rot vel   x-rot acc   y-rot acc   z-rot acc
    22626  2.71792E-01 1.60992E-01-7.54631E-02 1.77175E-02 8.01447E-03-5.67854E-03-5.76739E-05-1.81302E-04 4.56543E-04



 n o d a l   p r i n t   o u t   f o r   t i m e  s t e p   46805                              ( at time 2.3399658E+01 )

 nodal point  x-disp     y-disp      z-disp      x-vel       y-vel       z-vel      x-accl      y-accl      z-accl      x-coor      y-coor      z-coor
    22626  4.90343E+00 8.63673E-01-1.99410E+01 2.85517E-01-8.94399E-02 4.32272E-01 6.46859E-03-1.22658E-02-2.73700E-02 5.28676E+01-2.11661E+01-1.26025E+01



 n o d a l   p r i n t   o u t   f o r   t i m e  s t e p   46805                              ( at time 2.3399658E+01 )

 nodal point  x-rot      y-rot       z-rot       x-rot vel   y-rot vel   z-rot vel   x-rot acc   y-rot acc   z-rot acc
    22626  2.73563E-01 1.61792E-01-7.60287E-02 1.77029E-02 7.98785E-03-5.63346E-03-1.46641E-04-2.66243E-04 4.50834E-04



 n o d a l   p r i n t   o u t   f o r   t i m e  s t e p   47005                              ( at time 2.3499648E+01 )

 nodal point  x-disp     y-disp      z-disp      x-vel       y-vel       z-vel      x-accl      y-accl      z-accl      x-coor      y-coor      z-coor
    22626  4.93199E+00 8.54667E-01-1.98979E+01 2.85895E-01-9.04839E-02 4.30087E-01 3.77719E-03-1.04418E-02-2.18477E-02 5.28962E+01-2.11751E+01-1.25594E+01



 n o d a l   p r i n t   o u t   f o r   t i m e  s t e p   47005                              ( at time 2.3499648E+01 )

 nodal point  x-rot      y-rot       z-rot       x-rot vel   y-rot vel   z-rot vel   x-rot acc   y-rot acc   z-rot acc
    22626  2.75333E-01 1.62589E-01-7.65906E-02 1.76953E-02 7.96022E-03-5.59701E-03-7.57793E-05-2.76237E-04 3.64516E-04



 n o d a l   p r i n t   o u t   f o r   t i m e  s t e p   47205                              ( at time 2.3599638E+01 )

 nodal point  x-disp     y-disp      z-disp      x-vel       y-vel       z-vel      x-accl      y-accl      z-accl      x-coor      y-coor      z-coor
    22626  4.96059E+00 8.45624E-01-1.98550E+01 2.86042E-01-9.03700E-02 4.27567E-01 1.47508E-03 1.13992E-03-2.52084E-02 5.29248E+01-2.11842E+01-1.25165E+01



 n o d a l   p r i n t   o u t   f o r   t i m e  s t e p   47205                              ( at time 2.3599638E+01 )

 nodal point  x-rot      y-rot       z-rot       x-rot vel   y-rot vel   z-rot vel   x-rot acc   y-rot acc   z-rot acc
    22626  2.77101E-01 1.63384E-01-7.71485E-02 1.76827E-02 7.93200E-03-5.55885E-03-1.26320E-04-2.82278E-04 3.81656E-04



 n o d a l   p r i n t   o u t   f o r   t i m e  s t e p   47405                              ( at time 2.3699628E+01 )

 nodal point  x-disp     y-disp      z-disp      x-vel       y-vel       z-vel      x-accl      y-accl      z-accl      x-coor      y-coor      z-coor
    22626  4.98920E+00 8.36619E-01-1.98124E+01 2.86145E-01-8.97445E-02 4.25523E-01 1.02738E-03 6.25474E-03-2.04415E-02 5.29534E+01-2.11932E+01-1.24739E+01



 n o d a l   p r i n t   o u t   f o r   t i m e  s t e p   47405                              ( at time 2.3699628E+01 )

 nodal point  x-rot      y-rot       z-rot       x-rot vel   y-rot vel   z-rot vel   x-rot acc   y-rot acc   z-rot acc
    22626  2.78869E-01 1.64175E-01-7.77025E-02 1.76792E-02 7.90369E-03-5.52312E-03-3.43503E-05-2.83157E-04 3.57395E-04



 n o d a l   p r i n t   o u t   f o r   t i m e  s t e p   47605                              ( at time 2.3799618E+01 )

 nodal point  x-disp     y-disp      z-disp      x-vel       y-vel       z-vel      x-accl      y-accl      z-accl      x-coor      y-coor      z-coor
    22626  5.01780E+00 8.27657E-01-1.97700E+01 2.85641E-01-8.97998E-02 4.22993E-01-5.04371E-03-5.52447E-04-2.53026E-02 5.29820E+01-2.12021E+01-1.24315E+01



 n o d a l   p r i n t   o u t   f o r   t i m e  s t e p   47605                              ( at time 2.3799618E+01 )

 nodal point  x-rot      y-rot       z-rot       x-rot vel   y-rot vel   z-rot vel   x-rot acc   y-rot acc   z-rot acc
    22626  2.80636E-01 1.64964E-01-7.82531E-02 1.76709E-02 7.87632E-03-5.49177E-03-8.35116E-05-2.73662E-04 3.13523E-04



 n o d a l   p r i n t   o u t   f o r   t i m e  s t e p   47805                              ( at time 2.3899608E+01 )

 nodal point  x-disp     y-disp      z-disp      x-vel       y-vel       z-vel      x-accl      y-accl      z-accl      x-coor      y-coor      z-coor
    22626  5.04635E+00 8.18709E-01-1.97278E+01 2.85746E-01-8.89216E-02 4.20623E-01 1.05510E-03 8.78280E-03-2.36986E-02 5.30105E+01-2.12111E+01-1.23893E+01



 n o d a l   p r i n t   o u t   f o r   t i m e  s t e p   47805                              ( at time 2.3899608E+01 )

 nodal point  x-rot      y-rot       z-rot       x-rot vel   y-rot vel   z-rot vel   x-rot acc   y-rot acc   z-rot acc
    22626  2.82404E-01 1.65750E-01-7.88007E-02 1.76827E-02 7.84967E-03-5.45684E-03 1.18494E-04-2.66532E-04 3.49338E-04



 n o d a l   p r i n t   o u t   f o r   t i m e  s t e p   48005                              ( at time 2.3999598E+01 )

 nodal point  x-disp     y-disp      z-disp      x-vel       y-vel       z-vel      x-accl      y-accl      z-accl      x-coor      y-coor      z-coor
    22626  5.07491E+00 8.09860E-01-1.96859E+01 2.85579E-01-8.83599E-02 4.18379E-01-1.67508E-03 5.61739E-03-2.24442E-02 5.30391E+01-2.12199E+01-1.23474E+01



 n o d a l   p r i n t   o u t   f o r   t i m e  s t e p   48005                              ( at time 2.3999598E+01 )

 nodal point  x-rot      y-rot       z-rot       x-rot vel   y-rot vel   z-rot vel   x-rot acc   y-rot acc   z-rot acc
    22626  2.84173E-01 1.66534E-01-7.93441E-02 1.77145E-02 7.81648E-03-5.40587E-03 3.18212E-04-3.31951E-04 5.09718E-04



 n o d a l   p r i n t   o u t   f o r   t i m e  s t e p   48205                              ( at time 2.4099588E+01 )

 nodal point  x-disp     y-disp      z-disp      x-vel       y-vel       z-vel      x-accl      y-accl      z-accl      x-coor      y-coor      z-coor
    22626  5.10344E+00 8.01073E-01-1.96442E+01 2.84993E-01-8.73431E-02 4.15468E-01-5.85580E-03 1.01693E-02-2.91142E-02 5.30676E+01-2.12287E+01-1.23057E+01



 n o d a l   p r i n t   o u t   f o r   t i m e  s t e p   48205                              ( at time 2.4099588E+01 )

 nodal point  x-rot      y-rot       z-rot       x-rot vel   y-rot vel   z-rot vel   x-rot acc   y-rot acc   z-rot acc
    22626  2.85945E-01 1.67314E-01-7.98839E-02 1.77200E-02 7.78712E-03-5.37741E-03 5.41334E-05-2.93622E-04 2.84620E-04



 n o d a l   p r i n t   o u t   f o r   t i m e  s t e p   48405                              ( at time 2.4199578E+01 )

 nodal point  x-disp     y-disp      z-disp      x-vel       y-vel       z-vel      x-accl      y-accl      z-accl      x-coor      y-coor      z-coor
    22626  5.13191E+00 7.92406E-01-1.96027E+01 2.84222E-01-8.59657E-02 4.13002E-01-7.71161E-03 1.37753E-02-2.46606E-02 5.30961E+01-2.12374E+01-1.22642E+01



 n o d a l   p r i n t   o u t   f o r   t i m e  s t e p   48405                              ( at time 2.4199578E+01 )

 nodal point  x-rot      y-rot       z-rot       x-rot vel   y-rot vel   z-rot vel   x-rot acc   y-rot acc   z-rot acc
    22626  2.87718E-01 1.68091E-01-8.04206E-02 1.77400E-02 7.76325E-03-5.35490E-03 2.00890E-04-2.38729E-04 2.25177E-04



 n o d a l   p r i n t   o u t   f o r   t i m e  s t e p   48605                              ( at time 2.4299568E+01 )

 nodal point  x-disp     y-disp      z-disp      x-vel       y-vel       z-vel      x-accl      y-accl      z-accl      x-coor      y-coor      z-coor
    22626  5.16033E+00 7.83878E-01-1.95616E+01 2.84034E-01-8.46504E-02 4.10842E-01-1.88159E-03 1.31544E-02-2.16051E-02 5.31245E+01-2.12459E+01-1.22231E+01



 n o d a l   p r i n t   o u t   f o r   t i m e  s t e p   48605                              ( at time 2.4299568E+01 )

 nodal point  x-rot      y-rot       z-rot       x-rot vel   y-rot vel   z-rot vel   x-rot acc   y-rot acc   z-rot acc
    22626  2.89493E-01 1.68865E-01-8.09544E-02 1.77603E-02 7.72048E-03-5.32054E-03 2.02637E-04-4.27758E-04 3.43629E-04



 n o d a l   p r i n t   o u t   f o r   t i m e  s t e p   48805                              ( at time 2.4399558E+01 )

 nodal point  x-disp     y-disp      z-disp      x-vel       y-vel       z-vel      x-accl      y-accl      z-accl      x-coor      y-coor      z-coor
    22626  5.18869E+00 7.75474E-01-1.95206E+01 2.83532E-01-8.34789E-02 4.08087E-01-5.02006E-03 1.17157E-02-2.75479E-02 5.31529E+01-2.12543E+01-1.21821E+01



 n o d a l   p r i n t   o u t   f o r   t i m e  s t e p   48805                              ( at time 2.4399558E+01 )

 nodal point  x-rot      y-rot       z-rot       x-rot vel   y-rot vel   z-rot vel   x-rot acc   y-rot acc   z-rot acc
    22626  2.91269E-01 1.69636E-01-8.14849E-02 1.77803E-02 7.69964E-03-5.29213E-03 1.99731E-04-2.08403E-04 2.84089E-04



 n o d a l   p r i n t   o u t   f o r   t i m e  s t e p   49006                              ( at time 2.4500048E+01 )

 nodal point  x-disp     y-disp      z-disp      x-vel       y-vel       z-vel      x-accl      y-accl      z-accl      x-coor      y-coor      z-coor
    22626  5.21712E+00 7.67185E-01-1.94797E+01 2.82258E-01-8.15723E-02 4.05262E-01-1.26759E-02 1.89732E-02-2.81155E-02 5.31813E+01-2.12626E+01-1.21412E+01



 n o d a l   p r i n t   o u t   f o r   t i m e  s t e p   49006                              ( at time 2.4500048E+01 )

 nodal point  x-rot      y-rot       z-rot       x-rot vel   y-rot vel   z-rot vel   x-rot acc   y-rot acc   z-rot acc
    22626  2.93056E-01 1.70408E-01-8.20152E-02 1.77821E-02 7.66038E-03-5.26212E-03 1.85173E-05-3.90704E-04 2.98692E-04



 n o d a l   p r i n t   o u t   f o r   t i m e  s t e p   49206                              ( at time 2.4600038E+01 )

 nodal point  x-disp     y-disp      z-disp      x-vel       y-vel       z-vel      x-accl      y-accl      z-accl      x-coor      y-coor      z-coor
    22626  5.24528E+00 7.59165E-01-1.94393E+01 2.81513E-01-7.90694E-02 4.04297E-01-7.45096E-03 2.50318E-02-9.65266E-03 5.32095E+01-2.12706E+01-1.21008E+01



 n o d a l   p r i n t   o u t   f o r   t i m e  s t e p   49206                              ( at time 2.4600038E+01 )

 nodal point  x-rot      y-rot       z-rot       x-rot vel   y-rot vel   z-rot vel   x-rot acc   y-rot acc   z-rot acc
    22626  2.94835E-01 1.71173E-01-8.25399E-02 1.78066E-02 7.64535E-03-5.23184E-03 2.44681E-04-1.50287E-04 3.02740E-04



 n o d a l   p r i n t   o u t   f o r   t i m e  s t e p   49406                              ( at time 2.4700028E+01 )

 nodal point  x-disp     y-disp      z-disp      x-vel       y-vel       z-vel      x-accl      y-accl      z-accl      x-coor      y-coor      z-coor
    22626  5.27339E+00 7.51323E-01-1.93990E+01 2.80988E-01-7.80167E-02 4.01395E-01-5.25592E-03 1.05283E-02-2.90193E-02 5.32376E+01-2.12785E+01-1.20605E+01



 n o d a l   p r i n t   o u t   f o r   t i m e  s t e p   49406                              ( at time 2.4700028E+01 )

 nodal point  x-rot      y-rot       z-rot       x-rot vel   y-rot vel   z-rot vel   x-rot acc   y-rot acc   z-rot acc
    22626  2.96616E-01 1.71935E-01-8.30620E-02 1.78191E-02 7.60319E-03-5.21301E-03 1.25072E-04-4.21675E-04 1.88390E-04



 n o d a l   p r i n t   o u t   f o r   t i m e  s t e p   49606                              ( at time 2.4800018E+01 )

 nodal point  x-disp     y-disp      z-disp      x-vel       y-vel       z-vel      x-accl      y-accl      z-accl      x-coor      y-coor      z-coor
    22626  5.30138E+00 7.43599E-01-1.93590E+01 2.79087E-01-7.61622E-02 3.98541E-01-1.90064E-02 1.85461E-02-2.85431E-02 5.32656E+01-2.12862E+01-1.20205E+01



 n o d a l   p r i n t   o u t   f o r   t i m e  s t e p   49606                              ( at time 2.4800018E+01 )

 nodal point  x-rot      y-rot       z-rot       x-rot vel   y-rot vel   z-rot vel   x-rot acc   y-rot acc   z-rot acc
    22626  2.98398E-01 1.72694E-01-8.35819E-02 1.78227E-02 7.57376E-03-5.18400E-03 3.53749E-05-2.94278E-04 2.90124E-04



 n o d a l   p r i n t   o u t   f o r   t i m e  s t e p   49806                              ( at time 2.4900008E+01 )

 nodal point  x-disp     y-disp      z-disp      x-vel       y-vel       z-vel      x-accl      y-accl      z-accl      x-coor      y-coor      z-coor
    22626  5.32921E+00 7.36103E-01-1.93192E+01 2.77878E-01-7.37327E-02 3.96968E-01-1.20889E-02 2.42981E-02-1.57302E-02 5.32934E+01-2.12937E+01-1.19807E+01



 n o d a l   p r i n t   o u t   f o r   t i m e  s t e p   49806                              ( at time 2.4900008E+01 )

 nodal point  x-rot      y-rot       z-rot       x-rot vel   y-rot vel   z-rot vel   x-rot acc   y-rot acc   z-rot acc
    22626  3.00182E-01 1.73450E-01-8.40989E-02 1.78559E-02 7.54398E-03-5.16117E-03 3.32724E-04-2.97903E-04 2.28339E-04



 n o d a l   p r i n t   o u t   f o r   t i m e  s t e p   50006                              ( at time 2.4999998E+01 )

 nodal point  x-disp     y-disp      z-disp      x-vel       y-vel       z-vel      x-accl      y-accl      z-accl      x-coor      y-coor      z-coor
    22626  5.35694E+00 7.28789E-01-1.92797E+01 2.76476E-01-7.23954E-02 3.94429E-01-1.40218E-02 1.33735E-02-2.53975E-02 5.33211E+01-2.13010E+01-1.19412E+01



 n o d a l   p r i n t   o u t   f o r   t i m e  s t e p   50006                              ( at time 2.4999998E+01 )

 nodal point  x-rot      y-rot       z-rot       x-rot vel   y-rot vel   z-rot vel   x-rot acc   y-rot acc   z-rot acc
    22626  3.01969E-01 1.74202E-01-8.46139E-02 1.78738E-02 7.50999E-03-5.14190E-03 1.78942E-04-3.39903E-04 1.92708E-04
