 LSTC 50th% Full_FE H-III Dummy (Beta Version, February 17, 2019)        
                    ls-dyna smp s R16 R16.0_619_d222963 date 03/18/2025

{BEGIN LEGEND}
 Entity #        Title
    22626                                                                                     
{END LEGEND}




 n o d a l   p r i n t   o u t   f o r   t i m e  s t e p       1                              ( at time 0.0000000E+00 )

 nodal point  x-disp     y-disp      z-disp      x-vel       y-vel       z-vel      x-accl      y-accl      z-accl      x-coor      y-coor      z-coor
    22626  0.00000E+00 0.00000E+00 0.00000E+00 0.00000E+00 0.00000E+00-3.12000E+00 0.00000E+00 0.00000E+00 0.00000E+00 4.79642E+01-2.20298E+01 7.33850E+00



 n o d a l   p r i n t   o u t   f o r   t i m e  s t e p       1                              ( at time 0.0000000E+00 )

 nodal point  x-rot      y-rot       z-rot       x-rot vel   y-rot vel   z-rot vel   x-rot acc   y-rot acc   z-rot acc
    22626  0.00000E+00 0.00000E+00 0.00000E+00 0.00000E+00 0.00000E+00 0.00000E+00 0.00000E+00 0.00000E+00 0.00000E+00



 n o d a l   p r i n t   o u t   f o r   t i m e  s t e p     201                              ( at time 9.9989993E-02 )

 nodal point  x-disp     y-disp      z-disp      x-vel       y-vel       z-vel      x-accl      y-accl      z-accl      x-coor      y-coor      z-coor
    22626  8.34195E-07-4.04503E-06-3.12016E-01 4.76717E-05-4.96466E-04-3.12074E+00 4.76765E-04-4.96515E-03-7.42748E-03 4.79642E+01-2.20298E+01 7.02648E+00



 n o d a l   p r i n t   o u t   f o r   t i m e  s t e p     201                              ( at time 9.9989993E-02 )

 nodal point  x-rot      y-rot       z-rot       x-rot vel   y-rot vel   z-rot vel   x-rot acc   y-rot acc   z-rot acc
    22626  9.60809E-09 3.04008E-08 5.27021E-08 1.30664E-06 2.72188E-06 5.21217E-06 1.30677E-05 2.72215E-05 5.21269E-05



 n o d a l   p r i n t   o u t   f o r   t i m e  s t e p     401                              ( at time 1.9997999E-01 )

 nodal point  x-disp     y-disp      z-disp      x-vel       y-vel       z-vel      x-accl      y-accl      z-accl      x-coor      y-coor      z-coor
    22626 -5.12720E-05-5.21583E-04-6.23853E-01-1.09622E-03-1.11142E-02-3.11558E+00-1.14400E-02-1.06188E-01 5.16204E-02 4.79641E+01-2.20303E+01 6.71465E+00



 n o d a l   p r i n t   o u t   f o r   t i m e  s t e p     401                              ( at time 1.9997999E-01 )

 nodal point  x-rot      y-rot       z-rot       x-rot vel   y-rot vel   z-rot vel   x-rot acc   y-rot acc   z-rot acc
    22626  4.60490E-07 1.32991E-06 2.50246E-06 2.65858E-06 1.90473E-05 3.49372E-05 1.35207E-05 1.63270E-04 2.97280E-04



 n o d a l   p r i n t   o u t   f o r   t i m e  s t e p     601                              ( at time 2.9996998E-01 )

 nodal point  x-disp     y-disp      z-disp      x-vel       y-vel       z-vel      x-accl      y-accl      z-accl      x-coor      y-coor      z-coor
    22626 -2.45847E-05-1.97632E-03-9.35238E-01 1.66147E-03-1.60456E-02-3.11415E+00 2.75796E-02-4.93185E-02 1.43328E-02 4.79642E+01-2.20318E+01 6.40326E+00



 n o d a l   p r i n t   o u t   f o r   t i m e  s t e p     601                              ( at time 2.9996998E-01 )

 nodal point  x-rot      y-rot       z-rot       x-rot vel   y-rot vel   z-rot vel   x-rot acc   y-rot acc   z-rot acc
    22626  6.75362E-07 2.41147E-06 4.82745E-06 8.25141E-06 5.38788E-06 1.47660E-05 5.59339E-05-1.36608E-04-2.01732E-04



 n o d a l   p r i n t   o u t   f o r   t i m e  s t e p     801                              ( at time 3.9995997E-01 )

 nodal point  x-disp     y-disp      z-disp      x-vel       y-vel       z-vel      x-accl      y-accl      z-accl      x-coor      y-coor      z-coor
    22626  5.94491E-05-3.57407E-03-1.24663E+00 1.94837E-04-1.73890E-02-3.11353E+00-1.46678E-02-1.34357E-02 6.16135E-03 4.79642E+01-2.20334E+01 6.09187E+00



 n o d a l   p r i n t   o u t   f o r   t i m e  s t e p     801                              ( at time 3.9995997E-01 )

 nodal point  x-rot      y-rot       z-rot       x-rot vel   y-rot vel   z-rot vel   x-rot acc   y-rot acc   z-rot acc
    22626  1.58170E-06 3.68087E-06 6.68068E-06 6.26979E-06 2.42551E-05 3.82762E-05-1.98181E-05 1.88691E-04 2.35125E-04



 n o d a l   p r i n t   o u t   f o r   t i m e  s t e p    1001                              ( at time 4.9994997E-01 )

 nodal point  x-disp     y-disp      z-disp      x-vel       y-vel       z-vel      x-accl      y-accl      z-accl      x-coor      y-coor      z-coor
    22626  7.27137E-05-5.63144E-03-1.55782E+00 8.89329E-04-2.38466E-02-3.11085E+00 6.94561E-03-6.45826E-02 2.68129E-02 4.79643E+01-2.20354E+01 5.78068E+00



 n o d a l   p r i n t   o u t   f o r   t i m e  s t e p    1001                              ( at time 4.9994997E-01 )

 nodal point  x-rot      y-rot       z-rot       x-rot vel   y-rot vel   z-rot vel   x-rot acc   y-rot acc   z-rot acc
    22626  1.49451E-06 6.64876E-06 1.18371E-05-4.86371E-06 4.38078E-05 7.19926E-05-1.11346E-04 1.95546E-04 3.37198E-04



 n o d a l   p r i n t   o u t   f o r   t i m e  s t e p    1201                              ( at time 5.9993996E-01 )

 nodal point  x-disp     y-disp      z-disp      x-vel       y-vel       z-vel      x-accl      y-accl      z-accl      x-coor      y-coor      z-coor
    22626  5.29536E-05-8.13746E-03-1.86888E+00-5.63598E-04-2.61227E-02-3.11084E+00-1.45307E-02-2.27627E-02 1.16837E-04 4.79642E+01-2.20379E+01 5.46962E+00



 n o d a l   p r i n t   o u t   f o r   t i m e  s t e p    1201                              ( at time 5.9993996E-01 )

 nodal point  x-rot      y-rot       z-rot       x-rot vel   y-rot vel   z-rot vel   x-rot acc   y-rot acc   z-rot acc
    22626  1.26562E-06 9.87451E-06 1.77368E-05-2.14851E-06 2.63970E-05 5.30579E-05 2.71547E-05-1.74125E-04-1.89366E-04



 n o d a l   p r i n t   o u t   f o r   t i m e  s t e p    1401                              ( at time 6.9992995E-01 )

 nodal point  x-disp     y-disp      z-disp      x-vel       y-vel       z-vel      x-accl      y-accl      z-accl      x-coor      y-coor      z-coor
    22626  1.96848E-05-1.10207E-02-2.17976E+00 7.13022E-04-3.22431E-02-3.10770E+00 1.27675E-02-6.12099E-02 3.14076E-02 4.79642E+01-2.20408E+01 5.15874E+00



 n o d a l   p r i n t   o u t   f o r   t i m e  s t e p    1401                              ( at time 6.9992995E-01 )

 nodal point  x-rot      y-rot       z-rot       x-rot vel   y-rot vel   z-rot vel   x-rot acc   y-rot acc   z-rot acc
    22626  1.10242E-06 1.30700E-05 2.27048E-05-2.35509E-06 3.78424E-05 5.92617E-05-2.06601E-06 1.14465E-04 6.20436E-05



 n o d a l   p r i n t   o u t   f o r   t i m e  s t e p    1601                              ( at time 7.9991994E-01 )

 nodal point  x-disp     y-disp      z-disp      x-vel       y-vel       z-vel      x-accl      y-accl      z-accl      x-coor      y-coor      z-coor
    22626  1.33064E-04-1.45710E-02-2.49038E+00 1.37057E-03-3.68153E-02-3.10600E+00 6.57617E-03-4.57272E-02 1.70057E-02 4.79643E+01-2.20444E+01 4.84812E+00



 n o d a l   p r i n t   o u t   f o r   t i m e  s t e p    1601                              ( at time 7.9991994E-01 )

 nodal point  x-rot      y-rot       z-rot       x-rot vel   y-rot vel   z-rot vel   x-rot acc   y-rot acc   z-rot acc
    22626  1.00762E-06 1.72055E-05 2.96647E-05 3.00499E-06 4.88162E-05 7.64763E-05 5.36062E-05 1.09749E-04 1.72163E-04



 n o d a l   p r i n t   o u t   f o r   t i m e  s t e p    1801                              ( at time 8.9990994E-01 )

 nodal point  x-disp     y-disp      z-disp      x-vel       y-vel       z-vel      x-accl      y-accl      z-accl      x-coor      y-coor      z-coor
    22626  2.07387E-04-1.82141E-02-2.80104E+00-5.07103E-04-3.64279E-02-3.10742E+00-1.87787E-02 3.87462E-03-1.42064E-02 4.79644E+01-2.20480E+01 4.53746E+00



 n o d a l   p r i n t   o u t   f o r   t i m e  s t e p    1801                              ( at time 8.9990994E-01 )

 nodal point  x-rot      y-rot       z-rot       x-rot vel   y-rot vel   z-rot vel   x-rot acc   y-rot acc   z-rot acc
    22626  1.02454E-06 2.13201E-05 3.66562E-05-1.99150E-06 3.80114E-05 6.83205E-05-4.99700E-05-1.08058E-04-8.15658E-05



 n o d a l   p r i n t   o u t   f o r   t i m e  s t e p    2001                              ( at time 9.9989993E-01 )

 nodal point  x-disp     y-disp      z-disp      x-vel       y-vel       z-vel      x-accl      y-accl      z-accl      x-coor      y-coor      z-coor
    22626  1.09775E-04-2.19276E-02-3.11175E+00-8.15194E-04-3.84004E-02-3.10756E+00-3.08122E-03-1.97272E-02-1.39012E-03 4.79643E+01-2.20517E+01 4.22675E+00



 n o d a l   p r i n t   o u t   f o r   t i m e  s t e p    2001                              ( at time 9.9989993E-01 )

 nodal point  x-rot      y-rot       z-rot       x-rot vel   y-rot vel   z-rot vel   x-rot acc   y-rot acc   z-rot acc
    22626  8.56228E-07 2.55340E-05 4.38503E-05-8.58625E-07 4.62130E-05 8.59529E-05 1.13299E-05 8.20238E-05 1.76342E-04



 n o d a l   p r i n t   o u t   f o r   t i m e  s t e p    2201                              ( at time 1.0998899E+00 )

 nodal point  x-disp     y-disp      z-disp      x-vel       y-vel       z-vel      x-accl      y-accl      z-accl      x-coor      y-coor      z-coor
    22626  9.18615E-05-2.58761E-02-3.42246E+00-2.19838E-04-4.02591E-02-3.10712E+00 5.95416E-03-1.85882E-02 4.42788E-03 4.79643E+01-2.20557E+01 3.91605E+00



 n o d a l   p r i n t   o u t   f o r   t i m e  s t e p    2201                              ( at time 1.0998899E+00 )

 nodal point  x-rot      y-rot       z-rot       x-rot vel   y-rot vel   z-rot vel   x-rot acc   y-rot acc   z-rot acc
    22626  9.33212E-07 3.03121E-05 5.24794E-05 5.31726E-06 4.65323E-05 7.51549E-05 6.17650E-05 3.19367E-06-1.07992E-04



 n o d a l   p r i n t   o u t   f o r   t i m e  s t e p    2401                              ( at time 1.1998799E+00 )

 nodal point  x-disp     y-disp      z-disp      x-vel       y-vel       z-vel      x-accl      y-accl      z-accl      x-coor      y-coor      z-coor
    22626  1.34284E-04-2.98901E-02-3.73320E+00 7.34399E-04-3.98046E-02-3.10850E+00 9.54332E-03 4.54486E-03-1.38273E-02 4.79643E+01-2.20597E+01 3.60531E+00



 n o d a l   p r i n t   o u t   f o r   t i m e  s t e p    2401                              ( at time 1.1998799E+00 )

 nodal point  x-rot      y-rot       z-rot       x-rot vel   y-rot vel   z-rot vel   x-rot acc   y-rot acc   z-rot acc
    22626  1.33719E-06 3.44662E-05 5.93275E-05 5.01654E-06 3.98907E-05 6.55292E-05-3.00744E-06-6.64234E-05-9.62660E-05



 n o d a l   p r i n t   o u t   f o r   t i m e  s t e p    2601                              ( at time 1.2998699E+00 )

 nodal point  x-disp     y-disp      z-disp      x-vel       y-vel       z-vel      x-accl      y-accl      z-accl      x-coor      y-coor      z-coor
    22626  1.46132E-04-3.37304E-02-4.04413E+00-4.24355E-04-3.65919E-02-3.11133E+00-1.15887E-02 3.21307E-02-2.83222E-02 4.79643E+01-2.20635E+01 3.29437E+00



 n o d a l   p r i n t   o u t   f o r   t i m e  s t e p    2601                              ( at time 1.2998699E+00 )

 nodal point  x-rot      y-rot       z-rot       x-rot vel   y-rot vel   z-rot vel   x-rot acc   y-rot acc   z-rot acc
    22626  1.63857E-06 3.85445E-05 6.61325E-05-2.52441E-06 4.54009E-05 7.98359E-05-7.54171E-05 5.51084E-05 1.43081E-04



 n o d a l   p r i n t   o u t   f o r   t i m e  s t e p    2801                              ( at time 1.3998599E+00 )

 nodal point  x-disp     y-disp      z-disp      x-vel       y-vel       z-vel      x-accl      y-accl      z-accl      x-coor      y-coor      z-coor
    22626  3.21954E-05-3.71241E-02-4.35543E+00-1.30744E-03-3.14337E-02-3.11510E+00-8.83176E-03 5.15863E-02-3.77216E-02 4.79642E+01-2.20669E+01 2.98307E+00



 n o d a l   p r i n t   o u t   f o r   t i m e  s t e p    2801                              ( at time 1.3998599E+00 )

 nodal point  x-rot      y-rot       z-rot       x-rot vel   y-rot vel   z-rot vel   x-rot acc   y-rot acc   z-rot acc
    22626  1.20404E-06 4.29500E-05 7.39878E-05-4.57858E-06 4.45576E-05 7.35109E-05-2.05437E-05-8.43419E-06-6.32556E-05



 n o d a l   p r i n t   o u t   f o r   t i m e  s t e p    3001                              ( at time 1.4998499E+00 )

 nodal point  x-disp     y-disp      z-disp      x-vel       y-vel       z-vel      x-accl      y-accl      z-accl      x-coor      y-coor      z-coor
    22626 -7.76015E-05-4.01687E-02-4.66702E+00-4.94657E-04-2.97671E-02-3.11714E+00 8.12867E-03 1.66681E-02-2.03391E-02 4.79641E+01-2.20700E+01 2.67148E+00



 n o d a l   p r i n t   o u t   f o r   t i m e  s t e p    3001                              ( at time 1.4998499E+00 )

 nodal point  x-rot      y-rot       z-rot       x-rot vel   y-rot vel   z-rot vel   x-rot acc   y-rot acc   z-rot acc
    22626  8.27017E-07 4.68534E-05 8.05187E-05-1.54771E-06 3.19331E-05 5.71104E-05 3.03118E-05-1.26258E-04-1.64022E-04



 n o d a l   p r i n t   o u t   f o r   t i m e  s t e p    3201                              ( at time 1.5998399E+00 )

 nodal point  x-disp     y-disp      z-disp      x-vel       y-vel       z-vel      x-accl      y-accl      z-accl      x-coor      y-coor      z-coor
    22626 -1.24360E-04-4.30593E-02-4.97879E+00-6.96068E-04-2.75113E-02-3.11940E+00-2.01431E-03 2.25599E-02-2.26616E-02 4.79641E+01-2.20728E+01 2.35971E+00



 n o d a l   p r i n t   o u t   f o r   t i m e  s t e p    3201                              ( at time 1.5998399E+00 )

 nodal point  x-rot      y-rot       z-rot       x-rot vel   y-rot vel   z-rot vel   x-rot acc   y-rot acc   z-rot acc
    22626  5.14769E-07 4.99127E-05 8.53943E-05-1.52314E-06 3.25674E-05 4.79049E-05 2.45747E-07 6.34440E-06-9.20641E-05



 n o d a l   p r i n t   o u t   f o r   t i m e  s t e p    3401                              ( at time 1.6998299E+00 )

 nodal point  x-disp     y-disp      z-disp      x-vel       y-vel       z-vel      x-accl      y-accl      z-accl      x-coor      y-coor      z-coor
    22626 -2.10944E-04-4.55737E-02-5.29089E+00-1.13076E-03-2.24407E-02-3.12325E+00-4.34735E-03 5.07111E-02-3.84941E-02 4.79640E+01-2.20754E+01 2.04762E+00



 n o d a l   p r i n t   o u t   f o r   t i m e  s t e p    3401                              ( at time 1.6998299E+00 )

 nodal point  x-rot      y-rot       z-rot       x-rot vel   y-rot vel   z-rot vel   x-rot acc   y-rot acc   z-rot acc
    22626  3.00362E-07 5.29965E-05 9.04293E-05-3.79213E-06 2.98641E-05 4.78189E-05-2.26922E-05-2.70356E-05-8.60068E-07



 n o d a l   p r i n t   o u t   f o r   t i m e  s t e p    3601                              ( at time 1.7998199E+00 )

 nodal point  x-disp     y-disp      z-disp      x-vel       y-vel       z-vel      x-accl      y-accl      z-accl      x-coor      y-coor      z-coor
    22626 -3.12603E-04-4.75644E-02-5.60339E+00-1.32748E-03-1.77143E-02-3.12732E+00-1.96741E-03 4.72695E-02-4.06855E-02 4.79639E+01-2.20774E+01 1.73511E+00



 n o d a l   p r i n t   o u t   f o r   t i m e  s t e p    3601                              ( at time 1.7998199E+00 )

 nodal point  x-rot      y-rot       z-rot       x-rot vel   y-rot vel   z-rot vel   x-rot acc   y-rot acc   z-rot acc
    22626  1.53556E-07 5.57843E-05 9.51862E-05-3.78457E-07 2.14879E-05 4.21870E-05 3.41401E-05-8.37713E-05-5.63249E-05



 n o d a l   p r i n t   o u t   f o r   t i m e  s t e p    3801                              ( at time 1.8998099E+00 )

 nodal point  x-disp     y-disp      z-disp      x-vel       y-vel       z-vel      x-accl      y-accl      z-accl      x-coor      y-coor      z-coor
    22626 -5.00231E-04-4.92022E-02-5.91621E+00-2.16550E-03-1.51699E-02-3.12982E+00-8.38099E-03 2.54467E-02-2.50126E-02 4.79637E+01-2.20790E+01 1.42229E+00



 n o d a l   p r i n t   o u t   f o r   t i m e  s t e p    3801                              ( at time 1.8998099E+00 )

 nodal point  x-rot      y-rot       z-rot       x-rot vel   y-rot vel   z-rot vel   x-rot acc   y-rot acc   z-rot acc
    22626 -9.21129E-08 5.76833E-05 9.86026E-05 1.62248E-06 1.54504E-05 2.73441E-05 2.00114E-05-6.03803E-05-1.48444E-04



 n o d a l   p r i n t   o u t   f o r   t i m e  s t e p    4001                              ( at time 1.9997999E+00 )

 nodal point  x-disp     y-disp      z-disp      x-vel       y-vel       z-vel      x-accl      y-accl      z-accl      x-coor      y-coor      z-coor
    22626 -6.73602E-04-5.05927E-02-6.22929E+00-1.64969E-03-1.28113E-02-3.13210E+00 5.15854E-03 2.35883E-02-2.28094E-02 4.79635E+01-2.20804E+01 1.10921E+00



 n o d a l   p r i n t   o u t   f o r   t i m e  s t e p    4001                              ( at time 1.9997999E+00 )

 nodal point  x-rot      y-rot       z-rot       x-rot vel   y-rot vel   z-rot vel   x-rot acc   y-rot acc   z-rot acc
    22626  1.13895E-07 5.90196E-05 1.00912E-04 3.40923E-06 1.32515E-05 2.01766E-05 1.78693E-05-2.19918E-05-7.16824E-05



 n o d a l   p r i n t   o u t   f o r   t i m e  s t e p    4201                              ( at time 2.0997899E+00 )

 nodal point  x-disp     y-disp      z-disp      x-vel       y-vel       z-vel      x-accl      y-accl      z-accl      x-coor      y-coor      z-coor
    22626 -8.42916E-04-5.16837E-02-6.54262E+00-1.86047E-03-9.15340E-03-3.13518E+00-2.10800E-03 3.65822E-02-3.08258E-02 4.79633E+01-2.20815E+01 7.95877E-01



 n o d a l   p r i n t   o u t   f o r   t i m e  s t e p    4201                              ( at time 2.0997899E+00 )

 nodal point  x-rot      y-rot       z-rot       x-rot vel   y-rot vel   z-rot vel   x-rot acc   y-rot acc   z-rot acc
    22626  3.98246E-07 5.96622E-05 1.02001E-04-1.36541E-06 3.34613E-06 1.51279E-06-4.77513E-05-9.90633E-05-1.86657E-04



 n o d a l   p r i n t   o u t   f o r   t i m e  s t e p    4401                              ( at time 2.1997798E+00 )

 nodal point  x-disp     y-disp      z-disp      x-vel       y-vel       z-vel      x-accl      y-accl      z-accl      x-coor      y-coor      z-coor
    22626 -1.08514E-03-5.23703E-02-6.85629E+00-2.77458E-03-4.41509E-03-3.13895E+00-9.14195E-03 4.73879E-02-3.76382E-02 4.79631E+01-2.20822E+01 4.82212E-01



 n o d a l   p r i n t   o u t   f o r   t i m e  s t e p    4401                              ( at time 2.1997798E+00 )

 nodal point  x-rot      y-rot       z-rot       x-rot vel   y-rot vel   z-rot vel   x-rot acc   y-rot acc   z-rot acc
    22626  2.18603E-07 5.96551E-05 1.01931E-04-1.25934E-06-2.21443E-06-3.18832E-06 1.06089E-06-5.56113E-05-4.70158E-05



 n o d a l   p r i n t   o u t   f o r   t i m e  s t e p    4601                              ( at time 2.2997698E+00 )

 nodal point  x-disp     y-disp      z-disp      x-vel       y-vel       z-vel      x-accl      y-accl      z-accl      x-coor      y-coor      z-coor
    22626 -1.39409E-03-5.25656E-02-7.17034E+00-3.51503E-03-8.59929E-05-3.14228E+00-7.40530E-03 4.32952E-02-3.33151E-02 4.79628E+01-2.20824E+01 1.68162E-01



 n o d a l   p r i n t   o u t   f o r   t i m e  s t e p    4601                              ( at time 2.2997698E+00 )

 nodal point  x-rot      y-rot       z-rot       x-rot vel   y-rot vel   z-rot vel   x-rot acc   y-rot acc   z-rot acc
    22626 -1.70683E-07 5.93431E-05 1.01559E-04-4.51274E-06-9.74236E-06-1.29397E-05-3.25373E-05-7.52867E-05-9.75237E-05



 n o d a l   p r i n t   o u t   f o r   t i m e  s t e p    4801                              ( at time 2.3997598E+00 )

 nodal point  x-disp     y-disp      z-disp      x-vel       y-vel       z-vel      x-accl      y-accl      z-accl      x-coor      y-coor      z-coor
    22626 -1.76306E-03-5.24781E-02-7.48464E+00-3.61195E-03 1.87127E-03-3.14440E+00-9.69283E-04 1.95746E-02-2.12500E-02 4.79624E+01-2.20823E+01-1.46135E-01



 n o d a l   p r i n t   o u t   f o r   t i m e  s t e p    4801                              ( at time 2.3997598E+00 )

 nodal point  x-rot      y-rot       z-rot       x-rot vel   y-rot vel   z-rot vel   x-rot acc   y-rot acc   z-rot acc
    22626 -7.20075E-07 5.80766E-05 9.90710E-05-5.97472E-06-1.62643E-05-3.38015E-05-1.46213E-05-6.52261E-05-2.08639E-04



 n o d a l   p r i n t   o u t   f o r   t i m e  s t e p    5001                              ( at time 2.4997498E+00 )

 nodal point  x-disp     y-disp      z-disp      x-vel       y-vel       z-vel      x-accl      y-accl      z-accl      x-coor      y-coor      z-coor
    22626 -2.15642E-03-5.21707E-02-7.79916E+00-4.23948E-03 4.95860E-03-3.14711E+00-6.27587E-03 3.08764E-02-2.70560E-02 4.79620E+01-2.20820E+01-4.60662E-01



 n o d a l   p r i n t   o u t   f o r   t i m e  s t e p    5001                              ( at time 2.4997498E+00 )

 nodal point  x-rot      y-rot       z-rot       x-rot vel   y-rot vel   z-rot vel   x-rot acc   y-rot acc   z-rot acc
    22626 -1.16934E-06 5.58467E-05 9.51065E-05-4.11492E-06-2.63631E-05-4.86759E-05 1.85998E-05-1.00998E-04-1.48758E-04



 n o d a l   p r i n t   o u t   f o r   t i m e  s t e p    5201                              ( at time 2.5997398E+00 )

 nodal point  x-disp     y-disp      z-disp      x-vel       y-vel       z-vel      x-accl      y-accl      z-accl      x-coor      y-coor      z-coor
    22626 -2.63067E-03-5.14564E-02-8.11403E+00-5.26481E-03 9.27751E-03-3.15070E+00-1.02543E-02 4.31935E-02-3.58999E-02 4.79615E+01-2.20812E+01-7.75527E-01



 n o d a l   p r i n t   o u t   f o r   t i m e  s t e p    5201                              ( at time 2.5997398E+00 )

 nodal point  x-rot      y-rot       z-rot       x-rot vel   y-rot vel   z-rot vel   x-rot acc   y-rot acc   z-rot acc
    22626 -1.53939E-06 5.27425E-05 8.96671E-05-4.75806E-06-3.58919E-05-6.25141E-05-6.43203E-06-9.52970E-05-1.38396E-04



 n o d a l   p r i n t   o u t   f o r   t i m e  s t e p    5401                              ( at time 2.6997298E+00 )

 nodal point  x-disp     y-disp      z-disp      x-vel       y-vel       z-vel      x-accl      y-accl      z-accl      x-coor      y-coor      z-coor
    22626 -3.20066E-03-5.03212E-02-8.42925E+00-6.42962E-03 1.29754E-02-3.15422E+00-1.16493E-02 3.69830E-02-3.52107E-02 4.79610E+01-2.20801E+01-1.09075E+00



 n o d a l   p r i n t   o u t   f o r   t i m e  s t e p    5401                              ( at time 2.6997298E+00 )

 nodal point  x-rot      y-rot       z-rot       x-rot vel   y-rot vel   z-rot vel   x-rot acc   y-rot acc   z-rot acc
    22626 -1.83939E-06 4.89927E-05 8.31621E-05-1.78046E-06-4.13082E-05-6.67149E-05 2.97789E-05-5.41684E-05-4.20121E-05



 n o d a l   p r i n t   o u t   f o r   t i m e  s t e p    5601                              ( at time 2.7997198E+00 )

 nodal point  x-disp     y-disp      z-disp      x-vel       y-vel       z-vel      x-accl      y-accl      z-accl      x-coor      y-coor      z-coor
    22626 -3.91455E-03-4.88968E-02-8.74475E+00-7.68345E-03 1.51481E-02-3.15635E+00-1.25395E-02 2.17289E-02-2.13263E-02 4.79603E+01-2.20787E+01-1.40625E+00



 n o d a l   p r i n t   o u t   f o r   t i m e  s t e p    5601                              ( at time 2.7997198E+00 )

 nodal point  x-rot      y-rot       z-rot       x-rot vel   y-rot vel   z-rot vel   x-rot acc   y-rot acc   z-rot acc
    22626 -1.97079E-06 4.41013E-05 7.50551E-05 2.96597E-07-5.73644E-05-9.85539E-05 2.07727E-05-1.60579E-04-3.18423E-04



 n o d a l   p r i n t   o u t   f o r   t i m e  s t e p    5801                              ( at time 2.8997098E+00 )

 nodal point  x-disp     y-disp      z-disp      x-vel       y-vel       z-vel      x-accl      y-accl      z-accl      x-coor      y-coor      z-coor
    22626 -4.68648E-03-4.73282E-02-9.06045E+00-7.82335E-03 1.61445E-02-3.15804E+00-1.39916E-03 9.96456E-03-1.68555E-02 4.79595E+01-2.20771E+01-1.72195E+00



 n o d a l   p r i n t   o u t   f o r   t i m e  s t e p    5801                              ( at time 2.8997098E+00 )

 nodal point  x-rot      y-rot       z-rot       x-rot vel   y-rot vel   z-rot vel   x-rot acc   y-rot acc   z-rot acc
    22626 -1.77350E-06 3.76601E-05 6.41475E-05 2.34292E-06-6.64353E-05-1.15424E-04 2.04653E-05-9.07178E-05-1.68721E-04



 n o d a l   p r i n t   o u t   f o r   t i m e  s t e p    6001                              ( at time 2.9996998E+00 )

 nodal point  x-disp     y-disp      z-disp      x-vel       y-vel       z-vel      x-accl      y-accl      z-accl      x-coor      y-coor      z-coor
    22626 -5.50731E-03-4.55962E-02-9.37632E+00-8.82534E-03 1.86368E-02-3.16042E+00-1.00209E-02 2.49262E-02-2.38108E-02 4.79587E+01-2.20754E+01-2.03782E+00



 n o d a l   p r i n t   o u t   f o r   t i m e  s t e p    6001                              ( at time 2.9996998E+00 )

 nodal point  x-rot      y-rot       z-rot       x-rot vel   y-rot vel   z-rot vel   x-rot acc   y-rot acc   z-rot acc
    22626 -1.54420E-06 3.08000E-05 5.25800E-05 5.22796E-07-7.08925E-05-1.20819E-04-1.82030E-05-4.45766E-05-5.39533E-05



 n o d a l   p r i n t   o u t   f o r   t i m e  s t e p    6201                              ( at time 3.0996898E+00 )

 nodal point  x-disp     y-disp      z-disp      x-vel       y-vel       z-vel      x-accl      y-accl      z-accl      x-coor      y-coor      z-coor
    22626 -6.47279E-03-4.36149E-02-9.69245E+00-1.04106E-02 2.05626E-02-3.16240E+00-1.58544E-02 1.92596E-02-1.98837E-02 4.79577E+01-2.20734E+01-2.35395E+00



 n o d a l   p r i n t   o u t   f o r   t i m e  s t e p    6201                              ( at time 3.0996898E+00 )

 nodal point  x-rot      y-rot       z-rot       x-rot vel   y-rot vel   z-rot vel   x-rot acc   y-rot acc   z-rot acc
    22626 -1.59234E-06 2.34437E-05 3.99507E-05-1.94136E-06-7.57445E-05-1.33347E-04-2.46441E-05-4.85252E-05-1.25293E-04



 n o d a l   p r i n t   o u t   f o r   t i m e  s t e p    6401                              ( at time 3.1996798E+00 )

 nodal point  x-disp     y-disp      z-disp      x-vel       y-vel       z-vel      x-accl      y-accl      z-accl      x-coor      y-coor      z-coor
    22626 -7.54399E-03-4.15842E-02-1.00087E+01-1.09333E-02 1.97634E-02-3.16297E+00-5.22735E-03-7.99295E-03-5.69400E-03 4.79566E+01-2.20714E+01-2.67020E+00



 n o d a l   p r i n t   o u t   f o r   t i m e  s t e p    6401                              ( at time 3.1996798E+00 )

 nodal point  x-rot      y-rot       z-rot       x-rot vel   y-rot vel   z-rot vel   x-rot acc   y-rot acc   z-rot acc
    22626 -1.72680E-06 1.53704E-05 2.63562E-05-1.61560E-06-8.51487E-05-1.43804E-04 3.25797E-06-9.40508E-05-1.04582E-04



 n o d a l   p r i n t   o u t   f o r   t i m e  s t e p    6601                              ( at time 3.2996698E+00 )

 nodal point  x-disp     y-disp      z-disp      x-vel       y-vel       z-vel      x-accl      y-accl      z-accl      x-coor      y-coor      z-coor
    22626 -8.65010E-03-3.97043E-02-1.03249E+01-1.11938E-02 1.78244E-02-3.16270E+00-2.60567E-03-1.93915E-02 2.73017E-03 4.79555E+01-2.20695E+01-2.98645E+00



 n o d a l   p r i n t   o u t   f o r   t i m e  s t e p    6601                              ( at time 3.2996698E+00 )

 nodal point  x-rot      y-rot       z-rot       x-rot vel   y-rot vel   z-rot vel   x-rot acc   y-rot acc   z-rot acc
    22626 -1.99533E-06 6.67956E-06 1.15952E-05-2.52621E-06-8.95579E-05-1.51581E-04-9.10702E-06-4.40968E-05-7.77729E-05



 n o d a l   p r i n t   o u t   f o r   t i m e  s t e p    6801                              ( at time 3.3996598E+00 )

 nodal point  x-disp     y-disp      z-disp      x-vel       y-vel       z-vel      x-accl      y-accl      z-accl      x-coor      y-coor      z-coor
    22626 -9.80059E-03-3.80130E-02-1.06412E+01-1.16996E-02 1.60353E-02-3.16262E+00-5.05796E-03-1.78933E-02 7.98781E-04 4.79544E+01-2.20678E+01-3.30268E+00



 n o d a l   p r i n t   o u t   f o r   t i m e  s t e p    6801                              ( at time 3.3996598E+00 )

 nodal point  x-rot      y-rot       z-rot       x-rot vel   y-rot vel   z-rot vel   x-rot acc   y-rot acc   z-rot acc
    22626 -2.04386E-06-2.20538E-06-3.69663E-06-2.60972E-06-8.80554E-05-1.53169E-04-8.35171E-07 1.50263E-05-1.58869E-05



 n o d a l   p r i n t   o u t   f o r   t i m e  s t e p    7001                              ( at time 3.4996498E+00 )

 nodal point  x-disp     y-disp      z-disp      x-vel       y-vel       z-vel      x-accl      y-accl      z-accl      x-coor      y-coor      z-coor
    22626 -1.09982E-02-3.64834E-02-1.09574E+01-1.23279E-02 1.44955E-02-3.16281E+00-6.28424E-03-1.53991E-02-1.90277E-03 4.79532E+01-2.20663E+01-3.61893E+00



 n o d a l   p r i n t   o u t   f o r   t i m e  s t e p    7001                              ( at time 3.4996498E+00 )

 nodal point  x-rot      y-rot       z-rot       x-rot vel   y-rot vel   z-rot vel   x-rot acc   y-rot acc   z-rot acc
    22626 -2.03546E-06-1.08684E-05-1.85245E-05 6.81349E-07-8.70721E-05-1.47340E-04 3.29140E-05 9.83423E-06 5.82991E-05



 n o d a l   p r i n t   o u t   f o r   t i m e  s t e p    7201                              ( at time 3.5996397E+00 )

 nodal point  x-disp     y-disp      z-disp      x-vel       y-vel       z-vel      x-accl      y-accl      z-accl      x-coor      y-coor      z-coor
    22626 -1.22530E-02-3.51402E-02-1.12737E+01-1.24128E-02 1.20898E-02-3.16261E+00-8.48185E-04-2.40596E-02 2.03392E-03 4.79519E+01-2.20649E+01-3.93517E+00



 n o d a l   p r i n t   o u t   f o r   t i m e  s t e p    7201                              ( at time 3.5996397E+00 )

 nodal point  x-rot      y-rot       z-rot       x-rot vel   y-rot vel   z-rot vel   x-rot acc   y-rot acc   z-rot acc
    22626 -2.04278E-06-1.94905E-05-3.30080E-05 2.06140E-06-8.48459E-05-1.38662E-04 1.38019E-05 2.22647E-05 8.67912E-05



 n o d a l   p r i n t   o u t   f o r   t i m e  s t e p    7401                              ( at time 3.6996297E+00 )

 nodal point  x-disp     y-disp      z-disp      x-vel       y-vel       z-vel      x-accl      y-accl      z-accl      x-coor      y-coor      z-coor
    22626 -1.34828E-02-3.40965E-02-1.15899E+01-1.21435E-02 8.70161E-03-3.16160E+00 2.69326E-03-3.38854E-02 1.01243E-02 4.79507E+01-2.20639E+01-4.25135E+00



 n o d a l   p r i n t   o u t   f o r   t i m e  s t e p    7401                              ( at time 3.6996297E+00 )

 nodal point  x-rot      y-rot       z-rot       x-rot vel   y-rot vel   z-rot vel   x-rot acc   y-rot acc   z-rot acc
    22626 -1.78903E-06-2.77727E-05-4.67992E-05 3.74769E-06-8.12804E-05-1.36489E-04 1.68645E-05 3.56586E-05 2.17274E-05



 n o d a l   p r i n t   o u t   f o r   t i m e  s t e p    7601                              ( at time 3.7996197E+00 )

 nodal point  x-disp     y-disp      z-disp      x-vel       y-vel       z-vel      x-accl      y-accl      z-accl      x-coor      y-coor      z-coor
    22626 -1.46677E-02-3.33638E-02-1.19059E+01-1.15815E-02 6.01010E-03-3.16088E+00 5.61980E-03-2.69178E-02 7.18428E-03 4.79495E+01-2.20632E+01-4.56744E+00



 n o d a l   p r i n t   o u t   f o r   t i m e  s t e p    7601                              ( at time 3.7996197E+00 )

 nodal point  x-rot      y-rot       z-rot       x-rot vel   y-rot vel   z-rot vel   x-rot acc   y-rot acc   z-rot acc
    22626 -1.32457E-06-3.55865E-05-6.00650E-05 5.29639E-06-7.23468E-05-1.21934E-04 1.54886E-05 8.93442E-05 1.45563E-04



 n o d a l   p r i n t   o u t   f o r   t i m e  s t e p    7801                              ( at time 3.8996097E+00 )

 nodal point  x-disp     y-disp      z-disp      x-vel       y-vel       z-vel      x-accl      y-accl      z-accl      x-coor      y-coor      z-coor
    22626 -1.57951E-02-3.28626E-02-1.22220E+01-1.09355E-02 4.22272E-03-3.16081E+00 6.46133E-03-1.78756E-02 6.67638E-04 4.79484E+01-2.20627E+01-4.88349E+00



 n o d a l   p r i n t   o u t   f o r   t i m e  s t e p    7801                              ( at time 3.8996097E+00 )

 nodal point  x-rot      y-rot       z-rot       x-rot vel   y-rot vel   z-rot vel   x-rot acc   y-rot acc   z-rot acc
    22626 -9.61547E-07-4.21869E-05-7.11836E-05 5.78378E-07-5.77334E-05-9.61519E-05-4.71847E-05 1.46149E-04 2.57850E-04



 n o d a l   p r i n t   o u t   f o r   t i m e  s t e p    8001                              ( at time 3.9995997E+00 )

 nodal point  x-disp     y-disp      z-disp      x-vel       y-vel       z-vel      x-accl      y-accl      z-accl      x-coor      y-coor      z-coor
    22626 -1.68626E-02-3.24921E-02-1.25381E+01-1.03858E-02 3.14284E-03-3.16115E+00 5.49722E-03-1.07999E-02-3.35489E-03 4.79473E+01-2.20623E+01-5.19956E+00



 n o d a l   p r i n t   o u t   f o r   t i m e  s t e p    8001                              ( at time 3.9995997E+00 )

 nodal point  x-rot      y-rot       z-rot       x-rot vel   y-rot vel   z-rot vel   x-rot acc   y-rot acc   z-rot acc
    22626 -8.33790E-07-4.74288E-05-7.98637E-05-1.57301E-07-4.66720E-05-7.99404E-05-7.35753E-06 1.10625E-04 1.62131E-04



 n o d a l   p r i n t   o u t   f o r   t i m e  s t e p    8201                              ( at time 4.0995897E+00 )

 nodal point  x-disp     y-disp      z-disp      x-vel       y-vel       z-vel      x-accl      y-accl      z-accl      x-coor      y-coor      z-coor
    22626 -1.78189E-02-3.22924E-02-1.28541E+01-8.60379E-03 6.39048E-04-3.16063E+00 1.78218E-02-2.50404E-02 5.11697E-03 4.79464E+01-2.20621E+01-5.51562E+00



 n o d a l   p r i n t   o u t   f o r   t i m e  s t e p    8201                              ( at time 4.0995897E+00 )

 nodal point  x-rot      y-rot       z-rot       x-rot vel   y-rot vel   z-rot vel   x-rot acc   y-rot acc   z-rot acc
    22626 -8.42933E-07-5.15543E-05-8.68312E-05-2.60752E-07-3.22433E-05-5.65206E-05-1.03461E-06 1.44302E-04 2.34222E-04



 n o d a l   p r i n t   o u t   f o r   t i m e  s t e p    8401                              ( at time 4.1995797E+00 )

 nodal point  x-disp     y-disp      z-disp      x-vel       y-vel       z-vel      x-accl      y-accl      z-accl      x-coor      y-coor      z-coor
    22626 -1.86001E-02-3.23549E-02-1.31701E+01-6.96970E-03-1.79671E-03-3.16004E+00 1.63426E-02-2.43600E-02 5.93007E-03 4.79456E+01-2.20621E+01-5.83162E+00



 n o d a l   p r i n t   o u t   f o r   t i m e  s t e p    8401                              ( at time 4.1995797E+00 )

 nodal point  x-rot      y-rot       z-rot       x-rot vel   y-rot vel   z-rot vel   x-rot acc   y-rot acc   z-rot acc
    22626 -8.26600E-07-5.39318E-05-9.07834E-05-1.49256E-07-1.39617E-05-2.28550E-05 1.11507E-06 1.82834E-04 3.36689E-04



 n o d a l   p r i n t   o u t   f o r   t i m e  s t e p    8601                              ( at time 4.2995697E+00 )

 nodal point  x-disp     y-disp      z-disp      x-vel       y-vel       z-vel      x-accl      y-accl      z-accl      x-coor      y-coor      z-coor
    22626 -1.92332E-02-3.26537E-02-1.34861E+01-5.56321E-03-3.87827E-03-3.15987E+00 1.40664E-02-2.08178E-02 1.66433E-03 4.79449E+01-2.20624E+01-6.14757E+00



 n o d a l   p r i n t   o u t   f o r   t i m e  s t e p    8601                              ( at time 4.2995697E+00 )

 nodal point  x-rot      y-rot       z-rot       x-rot vel   y-rot vel   z-rot vel   x-rot acc   y-rot acc   z-rot acc
    22626 -8.46517E-07-5.43645E-05-9.16332E-05-4.31097E-07 2.79793E-06 4.56259E-06-2.81869E-06 1.67613E-04 2.74204E-04



 n o d a l   p r i n t   o u t   f o r   t i m e  s t e p    8801                              ( at time 4.3995597E+00 )

 nodal point  x-disp     y-disp      z-disp      x-vel       y-vel       z-vel      x-accl      y-accl      z-accl      x-coor      y-coor      z-coor
    22626 -1.96994E-02-3.30823E-02-1.38021E+01-3.80164E-03-4.73986E-03-3.16048E+00 1.76175E-02-8.61668E-03-6.00876E-03 4.79445E+01-2.20629E+01-6.46355E+00



 n o d a l   p r i n t   o u t   f o r   t i m e  s t e p    8801                              ( at time 4.3995597E+00 )

 nodal point  x-rot      y-rot       z-rot       x-rot vel   y-rot vel   z-rot vel   x-rot acc   y-rot acc   z-rot acc
    22626 -8.23835E-07-5.30829E-05-8.93091E-05 7.19621E-07 2.21913E-05 4.00607E-05 1.15083E-05 1.93953E-04 3.55017E-04



 n o d a l   p r i n t   o u t   f o r   t i m e  s t e p    9001                              ( at time 4.4995497E+00 )

 nodal point  x-disp     y-disp      z-disp      x-vel       y-vel       z-vel      x-accl      y-accl      z-accl      x-coor      y-coor      z-coor
    22626 -1.99970E-02-3.36519E-02-1.41181E+01-2.04326E-03-6.99577E-03-3.16009E+00 1.75854E-02-2.25613E-02 3.83891E-03 4.79442E+01-2.20634E+01-6.77956E+00



 n o d a l   p r i n t   o u t   f o r   t i m e  s t e p    9001                              ( at time 4.4995497E+00 )

 nodal point  x-rot      y-rot       z-rot       x-rot vel   y-rot vel   z-rot vel   x-rot acc   y-rot acc   z-rot acc
    22626 -6.88154E-07-4.96204E-05-8.32028E-05 3.54305E-06 4.40808E-05 7.66232E-05 2.82370E-05 2.18917E-04 3.65660E-04



 n o d a l   p r i n t   o u t   f o r   t i m e  s t e p    9201                              ( at time 4.5995397E+00 )

 nodal point  x-disp     y-disp      z-disp      x-vel       y-vel       z-vel      x-accl      y-accl      z-accl      x-coor      y-coor      z-coor
    22626 -2.01081E-02-3.45058E-02-1.44340E+01-1.16557E-04-9.89558E-03-3.15951E+00 1.92690E-02-2.90011E-02 5.80608E-03 4.79441E+01-2.20643E+01-7.09550E+00



 n o d a l   p r i n t   o u t   f o r   t i m e  s t e p    9201                              ( at time 4.5995397E+00 )

 nodal point  x-rot      y-rot       z-rot       x-rot vel   y-rot vel   z-rot vel   x-rot acc   y-rot acc   z-rot acc
    22626 -3.80961E-07-4.43959E-05-7.40885E-05 4.21079E-06 6.00032E-05 1.02898E-04 6.67810E-06 1.59239E-04 2.62774E-04



 n o d a l   p r i n t   o u t   f o r   t i m e  s t e p    9401                              ( at time 4.6995297E+00 )

 nodal point  x-disp     y-disp      z-disp      x-vel       y-vel       z-vel      x-accl      y-accl      z-accl      x-coor      y-coor      z-coor
    22626 -2.00033E-02-3.55763E-02-1.47499E+01 2.12713E-03-1.14997E-02-3.15936E+00 2.24392E-02-1.60425E-02 1.53319E-03 4.79442E+01-2.20654E+01-7.41142E+00



 n o d a l   p r i n t   o u t   f o r   t i m e  s t e p    9401                              ( at time 4.6995297E+00 )

 nodal point  x-rot      y-rot       z-rot       x-rot vel   y-rot vel   z-rot vel   x-rot acc   y-rot acc   z-rot acc
    22626 -3.80686E-09-3.72397E-05-6.16478E-05 2.61277E-06 8.46248E-05 1.45687E-04-1.59819E-05 2.46241E-04 4.27932E-04



 n o d a l   p r i n t   o u t   f o r   t i m e  s t e p    9601                              ( at time 4.7995197E+00 )

 nodal point  x-disp     y-disp      z-disp      x-vel       y-vel       z-vel      x-accl      y-accl      z-accl      x-coor      y-coor      z-coor
    22626 -1.96918E-02-3.67980E-02-1.50658E+01 4.00076E-03-1.27503E-02-3.15962E+00 1.87382E-02-1.25074E-02-2.60379E-03 4.79445E+01-2.20666E+01-7.72733E+00



 n o d a l   p r i n t   o u t   f o r   t i m e  s t e p    9601                              ( at time 4.7995197E+00 )

 nodal point  x-rot      y-rot       z-rot       x-rot vel   y-rot vel   z-rot vel   x-rot acc   y-rot acc   z-rot acc
    22626  2.94772E-07-2.75254E-05-4.49988E-05-2.01092E-07 1.09421E-04 1.87298E-04-2.81414E-05 2.47991E-04 4.16157E-04



 n o d a l   p r i n t   o u t   f o r   t i m e  s t e p    9801                              ( at time 4.8995097E+00 )

 nodal point  x-disp     y-disp      z-disp      x-vel       y-vel       z-vel      x-accl      y-accl      z-accl      x-coor      y-coor      z-coor
    22626 -1.92024E-02-3.81245E-02-1.53818E+01 5.78394E-03-1.38637E-02-3.15986E+00 1.78336E-02-1.11355E-02-2.38681E-03 4.79450E+01-2.20679E+01-8.04328E+00



 n o d a l   p r i n t   o u t   f o r   t i m e  s t e p    9801                              ( at time 4.8995097E+00 )

 nodal point  x-rot      y-rot       z-rot       x-rot vel   y-rot vel   z-rot vel   x-rot acc   y-rot acc   z-rot acc
    22626  3.19937E-07-1.56841E-05-2.46394E-05-9.39903E-07 1.26245E-04 2.16723E-04-7.38885E-06 1.68258E-04 2.94275E-04



 n o d a l   p r i n t   o u t   f o r   t i m e  s t e p   10001                              ( at time 4.9994997E+00 )

 nodal point  x-disp     y-disp      z-disp      x-vel       y-vel       z-vel      x-accl      y-accl      z-accl      x-coor      y-coor      z-coor
    22626 -1.85092E-02-3.96030E-02-1.56977E+01 8.02166E-03-1.57815E-02-3.15969E+00 2.23794E-02-1.91797E-02 1.68340E-03 4.79457E+01-2.20694E+01-8.35922E+00



 n o d a l   p r i n t   o u t   f o r   t i m e  s t e p   10001                              ( at time 4.9994997E+00 )

 nodal point  x-rot      y-rot       z-rot       x-rot vel   y-rot vel   z-rot vel   x-rot acc   y-rot acc   z-rot acc
    22626  2.07078E-07-2.12948E-06-1.40044E-06-7.16868E-07 1.44241E-04 2.47622E-04 2.23056E-06 1.79969E-04 3.09022E-04



 n o d a l   p r i n t   o u t   f o r   t i m e  s t e p   10202                              ( at time 5.0999896E+00 )

 nodal point  x-disp     y-disp      z-disp      x-vel       y-vel       z-vel      x-accl      y-accl      z-accl      x-coor      y-coor      z-coor
    22626 -1.75981E-02-4.12607E-02-1.60152E+01 1.00293E-02-1.70351E-02-3.15982E+00 1.99790E-02-1.24745E-02-1.31440E-03 4.79466E+01-2.20711E+01-8.67674E+00



 n o d a l   p r i n t   o u t   f o r   t i m e  s t e p   10202                              ( at time 5.0999896E+00 )

 nodal point  x-rot      y-rot       z-rot       x-rot vel   y-rot vel   z-rot vel   x-rot acc   y-rot acc   z-rot acc
    22626  7.00535E-08 1.35788E-05 2.53694E-05-2.83663E-06 1.65244E-04 2.82713E-04-2.10944E-05 2.09012E-04 3.49198E-04



 n o d a l   p r i n t   o u t   f o r   t i m e  s t e p   10402                              ( at time 5.1999796E+00 )

 nodal point  x-disp     y-disp      z-disp      x-vel       y-vel       z-vel      x-accl      y-accl      z-accl      x-coor      y-coor      z-coor
    22626 -1.64958E-02-4.29925E-02-1.63312E+01 1.18284E-02-1.72640E-02-3.15955E+00 1.79925E-02-2.28958E-03 2.71823E-03 4.79477E+01-2.20728E+01-8.99269E+00



 n o d a l   p r i n t   o u t   f o r   t i m e  s t e p   10402                              ( at time 5.1999796E+00 )

 nodal point  x-rot      y-rot       z-rot       x-rot vel   y-rot vel   z-rot vel   x-rot acc   y-rot acc   z-rot acc
    22626 -5.37220E-07 3.14828E-05 5.56869E-05-8.89426E-06 1.93326E-04 3.15695E-04-6.05821E-05 2.80841E-04 3.29858E-04



 n o d a l   p r i n t   o u t   f o r   t i m e  s t e p   10602                              ( at time 5.2999696E+00 )

 nodal point  x-disp     y-disp      z-disp      x-vel       y-vel       z-vel      x-accl      y-accl      z-accl      x-coor      y-coor      z-coor
    22626 -1.52578E-02-4.46354E-02-1.66471E+01 1.31391E-02-1.61644E-02-3.15820E+00 1.31082E-02 1.09969E-02 1.35269E-02 4.79489E+01-2.20744E+01-9.30857E+00



 n o d a l   p r i n t   o u t   f o r   t i m e  s t e p   10602                              ( at time 5.2999696E+00 )

 nodal point  x-rot      y-rot       z-rot       x-rot vel   y-rot vel   z-rot vel   x-rot acc   y-rot acc   z-rot acc
    22626 -5.14142E-07 5.27056E-05 8.79103E-05 4.01289E-06 2.38814E-04 3.34198E-04 1.29085E-04 4.54927E-04 1.85047E-04



 n o d a l   p r i n t   o u t   f o r   t i m e  s t e p   10802                              ( at time 5.3999596E+00 )

 nodal point  x-disp     y-disp      z-disp      x-vel       y-vel       z-vel      x-accl      y-accl      z-accl      x-coor      y-coor      z-coor
    22626 -1.38940E-02-4.61912E-02-1.69625E+01 1.43792E-02-1.48449E-02-3.15047E+00 1.24026E-02 1.31970E-02 7.72912E-02 4.79503E+01-2.20760E+01-9.62401E+00



 n o d a l   p r i n t   o u t   f o r   t i m e  s t e p   10802                              ( at time 5.3999596E+00 )

 nodal point  x-rot      y-rot       z-rot       x-rot vel   y-rot vel   z-rot vel   x-rot acc   y-rot acc   z-rot acc
    22626  3.41736E-07 8.12518E-05 1.21891E-04 2.43029E-05 3.36251E-04 3.32413E-04 2.02921E-04 9.74472E-04-1.78596E-05



 n o d a l   p r i n t   o u t   f o r   t i m e  s t e p   11002                              ( at time 5.4999496E+00 )

 nodal point  x-disp     y-disp      z-disp      x-vel       y-vel       z-vel      x-accl      y-accl      z-accl      x-coor      y-coor      z-coor
    22626 -1.23887E-02-4.74604E-02-1.72770E+01 1.59752E-02-1.11673E-02-3.13958E+00 1.59616E-02 3.67794E-02 1.08849E-01 4.79518E+01-2.20772E+01-9.93849E+00



 n o d a l   p r i n t   o u t   f o r   t i m e  s t e p   11002                              ( at time 5.4999496E+00 )

 nodal point  x-rot      y-rot       z-rot       x-rot vel   y-rot vel   z-rot vel   x-rot acc   y-rot acc   z-rot acc
    22626  6.94339E-06 1.21177E-04 1.54316E-04 9.88283E-05 4.70195E-04 3.22042E-04 7.45329E-04 1.33958E-03-1.03718E-04



 n o d a l   p r i n t   o u t   f o r   t i m e  s t e p   11202                              ( at time 5.5999396E+00 )

 nodal point  x-disp     y-disp      z-disp      x-vel       y-vel       z-vel      x-accl      y-accl      z-accl      x-coor      y-coor      z-coor
    22626 -1.07773E-02-4.83407E-02-1.75900E+01 1.65264E-02-6.05416E-03-3.12115E+00 5.51233E-03 5.11364E-02 1.84388E-01 4.79534E+01-2.20781E+01-1.02515E+01



 n o d a l   p r i n t   o u t   f o r   t i m e  s t e p   11202                              ( at time 5.5999396E+00 )

 nodal point  x-rot      y-rot       z-rot       x-rot vel   y-rot vel   z-rot vel   x-rot acc   y-rot acc   z-rot acc
    22626  2.02098E-05 1.78219E-04 1.85169E-04 1.75487E-04 6.59227E-04 2.84273E-04 7.66669E-04 1.89051E-03-3.77729E-04



 n o d a l   p r i n t   o u t   f o r   t i m e  s t e p   11402                              ( at time 5.6999296E+00 )

 nodal point  x-disp     y-disp      z-disp      x-vel       y-vel       z-vel      x-accl      y-accl      z-accl      x-coor      y-coor      z-coor
    22626 -9.03477E-03-4.87342E-02-1.79011E+01 1.73640E-02-1.68809E-04-3.09997E+00 8.37619E-03 5.88591E-02 2.11789E-01 4.79551E+01-2.20785E+01-1.05626E+01



 n o d a l   p r i n t   o u t   f o r   t i m e  s t e p   11402                              ( at time 5.6999296E+00 )

 nodal point  x-rot      y-rot       z-rot       x-rot vel   y-rot vel   z-rot vel   x-rot acc   y-rot acc   z-rot acc
    22626  4.30806E-05 2.55673E-04 2.13004E-04 2.82814E-04 8.89477E-04 2.44229E-04 1.07337E-03 2.30272E-03-4.00473E-04



 n o d a l   p r i n t   o u t   f o r   t i m e  s t e p   11602                              ( at time 5.7999195E+00 )

 nodal point  x-disp     y-disp      z-disp      x-vel       y-vel       z-vel      x-accl      y-accl      z-accl      x-coor      y-coor      z-coor
    22626 -7.18798E-03-4.85000E-02-1.82100E+01 1.95447E-02 4.63923E-03-3.07612E+00 2.18096E-02 4.80853E-02 2.38557E-01 4.79570E+01-2.20783E+01-1.08715E+01



 n o d a l   p r i n t   o u t   f o r   t i m e  s t e p   11602                              ( at time 5.7999195E+00 )

 nodal point  x-rot      y-rot       z-rot       x-rot vel   y-rot vel   z-rot vel   x-rot acc   y-rot acc   z-rot acc
    22626  7.65196E-05 3.55624E-04 2.36260E-04 3.77892E-04 1.13481E-03 2.11083E-04 9.50876E-04 2.45353E-03-3.31491E-04



 n o d a l   p r i n t   o u t   f o r   t i m e  s t e p   11802                              ( at time 5.8999095E+00 )

 nodal point  x-disp     y-disp      z-disp      x-vel       y-vel       z-vel      x-accl      y-accl      z-accl      x-coor      y-coor      z-coor
    22626 -5.20562E-03-4.77791E-02-1.85162E+01 2.07464E-02 9.49692E-03-3.04847E+00 1.20185E-02 4.85818E-02 2.76527E-01 4.79590E+01-2.20776E+01-1.11777E+01



 n o d a l   p r i n t   o u t   f o r   t i m e  s t e p   11802                              ( at time 5.8999095E+00 )

 nodal point  x-rot      y-rot       z-rot       x-rot vel   y-rot vel   z-rot vel   x-rot acc   y-rot acc   z-rot acc
    22626  1.21803E-04 4.83220E-04 2.53089E-04 5.31039E-04 1.41156E-03 1.46176E-04 1.53163E-03 2.76784E-03-6.49141E-04



 n o d a l   p r i n t   o u t   f o r   t i m e  s t e p   12002                              ( at time 5.9998995E+00 )

 nodal point  x-disp     y-disp      z-disp      x-vel       y-vel       z-vel      x-accl      y-accl      z-accl      x-coor      y-coor      z-coor
    22626 -3.07341E-03-4.65206E-02-1.88194E+01 2.14092E-02 1.56306E-02-3.01687E+00 6.62886E-03 6.13435E-02 3.16022E-01 4.79611E+01-2.20763E+01-1.14809E+01



 n o d a l   p r i n t   o u t   f o r   t i m e  s t e p   12002                              ( at time 5.9998995E+00 )

 nodal point  x-rot      y-rot       z-rot       x-rot vel   y-rot vel   z-rot vel   x-rot acc   y-rot acc   z-rot acc
    22626  1.82012E-04 6.39512E-04 2.63529E-04 6.85778E-04 1.71571E-03 5.74717E-05 1.54754E-03 3.04184E-03-8.87132E-04



 n o d a l   p r i n t   o u t   f o r   t i m e  s t e p   12202                              ( at time 6.0998895E+00 )

 nodal point  x-disp     y-disp      z-disp      x-vel       y-vel       z-vel      x-accl      y-accl      z-accl      x-coor      y-coor      z-coor
    22626 -7.94133E-04-4.46432E-02-1.91194E+01 2.28008E-02 2.19111E-02-2.98362E+00 1.39170E-02 6.28103E-02 3.32535E-01 4.79634E+01-2.20744E+01-1.17809E+01



 n o d a l   p r i n t   o u t   f o r   t i m e  s t e p   12202                              ( at time 6.0998895E+00 )

 nodal point  x-rot      y-rot       z-rot       x-rot vel   y-rot vel   z-rot vel   x-rot acc   y-rot acc   z-rot acc
    22626  2.57408E-04 8.27925E-04 2.65133E-04 8.35180E-04 2.04916E-03-2.56091E-05 1.49416E-03 3.33477E-03-8.30889E-04



 n o d a l   p r i n t   o u t   f o r   t i m e  s t e p   12402                              ( at time 6.1998795E+00 )

 nodal point  x-disp     y-disp      z-disp      x-vel       y-vel       z-vel      x-accl      y-accl      z-accl      x-coor      y-coor      z-coor
    22626  1.62780E-03-4.21318E-02-1.94160E+01 2.58329E-02 2.77825E-02-2.94844E+00 3.03241E-02 5.87202E-02 3.51820E-01 4.79658E+01-2.20719E+01-1.20775E+01



 n o d a l   p r i n t   o u t   f o r   t i m e  s t e p   12402                              ( at time 6.1998795E+00 )

 nodal point  x-rot      y-rot       z-rot       x-rot vel   y-rot vel   z-rot vel   x-rot acc   y-rot acc   z-rot acc
    22626  3.49066E-04 1.04724E-03 2.58255E-04 9.84885E-04 2.36070E-03-1.05095E-04 1.49720E-03 3.11574E-03-7.94935E-04



 n o d a l   p r i n t   o u t   f o r   t i m e  s t e p   12602                              ( at time 6.2998695E+00 )

 nodal point  x-disp     y-disp      z-disp      x-vel       y-vel       z-vel      x-accl      y-accl      z-accl      x-coor      y-coor      z-coor
    22626  4.29990E-03-3.90744E-02-1.97090E+01 2.83354E-02 3.39148E-02-2.91116E+00 2.50274E-02 6.13289E-02 3.72865E-01 4.79685E+01-2.20689E+01-1.23705E+01



 n o d a l   p r i n t   o u t   f o r   t i m e  s t e p   12602                              ( at time 6.2998695E+00 )

 nodal point  x-rot      y-rot       z-rot       x-rot vel   y-rot vel   z-rot vel   x-rot acc   y-rot acc   z-rot acc
    22626  4.55512E-04 1.29983E-03 2.41252E-04 1.14206E-03 2.70280E-03-2.21057E-04 1.57191E-03 3.42136E-03-1.15974E-03



 n o d a l   p r i n t   o u t   f o r   t i m e  s t e p   12802                              ( at time 6.3998595E+00 )

 nodal point  x-disp     y-disp      z-disp      x-vel       y-vel       z-vel      x-accl      y-accl      z-accl      x-coor      y-coor      z-coor
    22626  7.28206E-03-3.53672E-02-1.99981E+01 3.13296E-02 3.97779E-02-2.87235E+00 2.99448E-02 5.86369E-02 3.88132E-01 4.79715E+01-2.20652E+01-1.26596E+01



 n o d a l   p r i n t   o u t   f o r   t i m e  s t e p   12802                              ( at time 6.3998595E+00 )

 nodal point  x-rot      y-rot       z-rot       x-rot vel   y-rot vel   z-rot vel   x-rot acc   y-rot acc   z-rot acc
    22626  5.79427E-04 1.58630E-03 2.14188E-04 1.32398E-03 3.02106E-03-3.17698E-04 1.81942E-03 3.18290E-03-9.66500E-04



 n o d a l   p r i n t   o u t   f o r   t i m e  s t e p   13002                              ( at time 6.4998495E+00 )

 nodal point  x-disp     y-disp      z-disp      x-vel       y-vel       z-vel      x-accl      y-accl      z-accl      x-coor      y-coor      z-coor
    22626  1.06835E-02-3.10085E-02-2.02832E+01 3.54757E-02 4.71947E-02-2.83046E+00 4.14650E-02 7.41759E-02 4.18939E-01 4.79749E+01-2.20608E+01-1.29447E+01



 n o d a l   p r i n t   o u t   f o r   t i m e  s t e p   13002                              ( at time 6.4998495E+00 )

 nodal point  x-rot      y-rot       z-rot       x-rot vel   y-rot vel   z-rot vel   x-rot acc   y-rot acc   z-rot acc
    22626  7.19937E-04 1.90669E-03 1.76611E-04 1.48783E-03 3.38035E-03-4.41640E-04 1.63868E-03 3.59326E-03-1.23955E-03



 n o d a l   p r i n t   o u t   f o r   t i m e  s t e p   13202                              ( at time 6.5998395E+00 )

 nodal point  x-disp     y-disp      z-disp      x-vel       y-vel       z-vel      x-accl      y-accl      z-accl      x-coor      y-coor      z-coor
    22626  1.45019E-02-2.59389E-02-2.05641E+01 4.05279E-02 5.50661E-02-2.78791E+00 5.05273E-02 7.87218E-02 4.25518E-01 4.79787E+01-2.20557E+01-1.32256E+01



 n o d a l   p r i n t   o u t   f o r   t i m e  s t e p   13202                              ( at time 6.5998395E+00 )

 nodal point  x-rot      y-rot       z-rot       x-rot vel   y-rot vel   z-rot vel   x-rot acc   y-rot acc   z-rot acc
    22626  8.79032E-04 2.26204E-03 1.27579E-04 1.69820E-03 3.71849E-03-5.51490E-04 2.10383E-03 3.38177E-03-1.09860E-03



 n o d a l   p r i n t   o u t   f o r   t i m e  s t e p   13402                              ( at time 6.6998295E+00 )

 nodal point  x-disp     y-disp      z-disp      x-vel       y-vel       z-vel      x-accl      y-accl      z-accl      x-coor      y-coor      z-coor
    22626  1.88776E-02-2.00934E-02-2.08407E+01 4.72681E-02 6.18618E-02-2.74242E+00 6.74086E-02 6.79640E-02 4.54925E-01 4.79831E+01-2.20499E+01-1.35021E+01



 n o d a l   p r i n t   o u t   f o r   t i m e  s t e p   13402                              ( at time 6.6998295E+00 )

 nodal point  x-rot      y-rot       z-rot       x-rot vel   y-rot vel   z-rot vel   x-rot acc   y-rot acc   z-rot acc
    22626  1.05802E-03 2.64956E-03 6.66911E-05 1.89131E-03 4.04392E-03-6.70239E-04 1.93128E-03 3.25458E-03-1.18761E-03



 n o d a l   p r i n t   o u t   f o r   t i m e  s t e p   13602                              ( at time 6.7998195E+00 )

 nodal point  x-disp     y-disp      z-disp      x-vel       y-vel       z-vel      x-accl      y-accl      z-accl      x-coor      y-coor      z-coor
    22626  2.39012E-02-1.35628E-02-2.11125E+01 5.39645E-02 6.79247E-02-2.69689E+00 6.69711E-02 6.06350E-02 4.55352E-01 4.79881E+01-2.20434E+01-1.37740E+01



 n o d a l   p r i n t   o u t   f o r   t i m e  s t e p   13602                              ( at time 6.7998195E+00 )

 nodal point  x-rot      y-rot       z-rot       x-rot vel   y-rot vel   z-rot vel   x-rot acc   y-rot acc   z-rot acc
    22626  1.25682E-03 3.07122E-03-6.76026E-06 2.09826E-03 4.36825E-03-7.83399E-04 2.06971E-03 3.24367E-03-1.13171E-03



 n o d a l   p r i n t   o u t   f o r   t i m e  s t e p   13802                              ( at time 6.8998095E+00 )

 nodal point  x-disp     y-disp      z-disp      x-vel       y-vel       z-vel      x-accl      y-accl      z-accl      x-coor      y-coor      z-coor
    22626  2.96409E-02-6.37883E-03-2.13796E+01 6.14620E-02 7.66604E-02-2.64578E+00 7.49828E-02 8.73652E-02 5.11162E-01 4.79938E+01-2.20362E+01-1.40411E+01



 n o d a l   p r i n t   o u t   f o r   t i m e  s t e p   13802                              ( at time 6.8998095E+00 )

 nodal point  x-rot      y-rot       z-rot       x-rot vel   y-rot vel   z-rot vel   x-rot acc   y-rot acc   z-rot acc
    22626  1.47650E-03 3.52435E-03-9.11318E-05 2.31903E-03 4.68103E-03-9.26520E-04 2.20796E-03 3.12807E-03-1.43136E-03



 n o d a l   p r i n t   o u t   f o r   t i m e  s t e p   14002                              ( at time 6.9997995E+00 )

 nodal point  x-disp     y-disp      z-disp      x-vel       y-vel       z-vel      x-accl      y-accl      z-accl      x-coor      y-coor      z-coor
    22626  3.61515E-02 1.65116E-03-2.16417E+01 6.89244E-02 8.38326E-02-2.59530E+00 7.46315E-02 7.17299E-02 5.04902E-01 4.80003E+01-2.20281E+01-1.43032E+01



 n o d a l   p r i n t   o u t   f o r   t i m e  s t e p   14002                              ( at time 6.9997995E+00 )

 nodal point  x-rot      y-rot       z-rot       x-rot vel   y-rot vel   z-rot vel   x-rot acc   y-rot acc   z-rot acc
    22626  1.71987E-03 4.00901E-03-1.89416E-04 2.52993E-03 5.01604E-03-1.04673E-03 2.10920E-03 3.35041E-03-1.20218E-03



 n o d a l   p r i n t   o u t   f o r   t i m e  s t e p   14202                              ( at time 7.0997895E+00 )

 nodal point  x-disp     y-disp      z-disp      x-vel       y-vel       z-vel      x-accl      y-accl      z-accl      x-coor      y-coor      z-coor
    22626  4.34525E-02 1.03253E-02-2.18987E+01 7.73254E-02 8.97465E-02-2.54322E+00 8.40173E-02 5.91446E-02 5.20826E-01 4.80076E+01-2.20195E+01-1.45602E+01



 n o d a l   p r i n t   o u t   f o r   t i m e  s t e p   14202                              ( at time 7.0997895E+00 )

 nodal point  x-rot      y-rot       z-rot       x-rot vel   y-rot vel   z-rot vel   x-rot acc   y-rot acc   z-rot acc
    22626  1.98472E-03 4.52589E-03-3.00009E-04 2.75395E-03 5.32350E-03-1.15963E-03 2.24045E-03 3.07496E-03-1.12914E-03



 n o d a l   p r i n t   o u t   f o r   t i m e  s t e p   14402                              ( at time 7.1997794E+00 )

 nodal point  x-disp     y-disp      z-disp      x-vel       y-vel       z-vel      x-accl      y-accl      z-accl      x-coor      y-coor      z-coor
    22626  5.16054E-02 1.97512E-02-2.21501E+01 8.61814E-02 9.78066E-02-2.48700E+00 8.85696E-02 8.06092E-02 5.62231E-01 4.80158E+01-2.20100E+01-1.48116E+01



 n o d a l   p r i n t   o u t   f o r   t i m e  s t e p   14402                              ( at time 7.1997794E+00 )

 nodal point  x-rot      y-rot       z-rot       x-rot vel   y-rot vel   z-rot vel   x-rot acc   y-rot acc   z-rot acc
    22626  2.27391E-03 5.07440E-03-4.23988E-04 3.01882E-03 5.65002E-03-1.30154E-03 2.64895E-03 3.26545E-03-1.41924E-03



 n o d a l   p r i n t   o u t   f o r   t i m e  s t e p   14602                              ( at time 7.2997694E+00 )

 nodal point  x-disp     y-disp      z-disp      x-vel       y-vel       z-vel      x-accl      y-accl      z-accl      x-coor      y-coor      z-coor
    22626  6.06923E-02 2.98161E-02-2.23960E+01 9.55380E-02 1.02988E-01-2.43091E+00 9.35749E-02 5.18162E-02 5.60996E-01 4.80249E+01-2.20000E+01-1.50575E+01



 n o d a l   p r i n t   o u t   f o r   t i m e  s t e p   14602                              ( at time 7.2997694E+00 )

 nodal point  x-rot      y-rot       z-rot       x-rot vel   y-rot vel   z-rot vel   x-rot acc   y-rot acc   z-rot acc
    22626  2.58770E-03 5.65394E-03-5.59862E-04 3.25759E-03 5.95176E-03-1.41894E-03 2.38791E-03 3.01778E-03-1.17409E-03



 n o d a l   p r i n t   o u t   f o r   t i m e  s t e p   14802                              ( at time 7.3997594E+00 )

 nodal point  x-disp     y-disp      z-disp      x-vel       y-vel       z-vel      x-accl      y-accl      z-accl      x-coor      y-coor      z-coor
    22626  7.07151E-02 4.04541E-02-2.26361E+01 1.04723E-01 1.09370E-01-2.37279E+00 9.18558E-02 6.38342E-02 5.81230E-01 4.80349E+01-2.19893E+01-1.52976E+01



 n o d a l   p r i n t   o u t   f o r   t i m e  s t e p   14802                              ( at time 7.3997594E+00 )

 nodal point  x-rot      y-rot       z-rot       x-rot vel   y-rot vel   z-rot vel   x-rot acc   y-rot acc   z-rot acc
    22626  2.92483E-03 6.26298E-03-7.07363E-04 3.49922E-03 6.22346E-03-1.54151E-03 2.41660E-03 2.71721E-03-1.22591E-03



 n o d a l   p r i n t   o u t   f o r   t i m e  s t e p   15002                              ( at time 7.4997494E+00 )

 nodal point  x-disp     y-disp      z-disp      x-vel       y-vel       z-vel      x-accl      y-accl      z-accl      x-coor      y-coor      z-coor
    22626  8.16517E-02 5.17135E-02-2.28704E+01 1.13906E-01 1.14929E-01-2.31384E+00 9.18413E-02 5.55864E-02 5.89518E-01 4.80458E+01-2.19781E+01-1.55319E+01



 n o d a l   p r i n t   o u t   f o r   t i m e  s t e p   15002                              ( at time 7.4997494E+00 )

 nodal point  x-rot      y-rot       z-rot       x-rot vel   y-rot vel   z-rot vel   x-rot acc   y-rot acc   z-rot acc
    22626  3.28996E-03 6.89988E-03-8.66297E-04 3.78139E-03 6.51437E-03-1.64186E-03 2.82191E-03 2.90938E-03-1.00351E-03



 n o d a l   p r i n t   o u t   f o r   t i m e  s t e p   15202                              ( at time 7.5997394E+00 )

 nodal point  x-disp     y-disp      z-disp      x-vel       y-vel       z-vel      x-accl      y-accl      z-accl      x-coor      y-coor      z-coor
    22626  9.35071E-02 6.34030E-02-2.30986E+01 1.22936E-01 1.18403E-01-2.25149E+00 9.03120E-02 3.47469E-02 6.23559E-01 4.80577E+01-2.19664E+01-1.57601E+01



 n o d a l   p r i n t   o u t   f o r   t i m e  s t e p   15202                              ( at time 7.5997394E+00 )

 nodal point  x-rot      y-rot       z-rot       x-rot vel   y-rot vel   z-rot vel   x-rot acc   y-rot acc   z-rot acc
    22626  3.68118E-03 7.56549E-03-1.03582E-03 4.03966E-03 6.79268E-03-1.74689E-03 2.58296E-03 2.78345E-03-1.05048E-03



 n o d a l   p r i n t   o u t   f o r   t i m e  s t e p   15402                              ( at time 7.6997294E+00 )

 nodal point  x-disp     y-disp      z-disp      x-vel       y-vel       z-vel      x-accl      y-accl      z-accl      x-coor      y-coor      z-coor
    22626  1.06222E-01 7.54416E-02-2.33206E+01 1.31761E-01 1.22850E-01-2.18755E+00 8.82546E-02 4.44781E-02 6.39465E-01 4.80704E+01-2.19543E+01-1.59821E+01



 n o d a l   p r i n t   o u t   f o r   t i m e  s t e p   15402                              ( at time 7.6997294E+00 )

 nodal point  x-rot      y-rot       z-rot       x-rot vel   y-rot vel   z-rot vel   x-rot acc   y-rot acc   z-rot acc
    22626  4.10135E-03 8.25811E-03-1.21587E-03 4.35880E-03 7.05720E-03-1.85301E-03 3.19179E-03 2.64541E-03-1.06124E-03



 n o d a l   p r i n t   o u t   f o r   t i m e  s t e p   15602                              ( at time 7.7997194E+00 )

 nodal point  x-disp     y-disp      z-disp      x-vel       y-vel       z-vel      x-accl      y-accl      z-accl      x-coor      y-coor      z-coor
    22626  1.19808E-01 8.78336E-02-2.35361E+01 1.40716E-01 1.25780E-01-2.12217E+00 8.95616E-02 2.93033E-02 6.53915E-01 4.80840E+01-2.19420E+01-1.61976E+01



 n o d a l   p r i n t   o u t   f o r   t i m e  s t e p   15602                              ( at time 7.7997194E+00 )

 nodal point  x-rot      y-rot       z-rot       x-rot vel   y-rot vel   z-rot vel   x-rot acc   y-rot acc   z-rot acc
    22626  4.55123E-03 8.97690E-03-1.40552E-03 4.65443E-03 7.31997E-03-1.95025E-03 2.95658E-03 2.62800E-03-9.72554E-04



 n o d a l   p r i n t   o u t   f o r   t i m e  s t e p   15802                              ( at time 7.8997094E+00 )

 nodal point  x-disp     y-disp      z-disp      x-vel       y-vel       z-vel      x-accl      y-accl      z-accl      x-coor      y-coor      z-coor
    22626  1.34224E-01 1.00491E-01-2.37451E+01 1.48144E-01 1.27377E-01-2.05745E+00 7.42880E-02 1.59724E-02 6.47250E-01 4.80984E+01-2.19293E+01-1.64066E+01



 n o d a l   p r i n t   o u t   f o r   t i m e  s t e p   15802                              ( at time 7.8997094E+00 )

 nodal point  x-rot      y-rot       z-rot       x-rot vel   y-rot vel   z-rot vel   x-rot acc   y-rot acc   z-rot acc
    22626  5.03229E-03 9.72158E-03-1.60472E-03 4.96402E-03 7.55376E-03-2.03511E-03 3.09621E-03 2.33816E-03-8.48665E-04



 n o d a l   p r i n t   o u t   f o r   t i m e  s t e p   16002                              ( at time 7.9996994E+00 )

 nodal point  x-disp     y-disp      z-disp      x-vel       y-vel       z-vel      x-accl      y-accl      z-accl      x-coor      y-coor      z-coor
    22626  1.49455E-01 1.13307E-01-2.39475E+01 1.56005E-01 1.28918E-01-1.99039E+00 7.86206E-02 1.54056E-02 6.70650E-01 4.81136E+01-2.19165E+01-1.66090E+01



 n o d a l   p r i n t   o u t   f o r   t i m e  s t e p   16002                              ( at time 7.9996994E+00 )

 nodal point  x-rot      y-rot       z-rot       x-rot vel   y-rot vel   z-rot vel   x-rot acc   y-rot acc   z-rot acc
    22626  5.54384E-03 1.04888E-02-1.81273E-03 5.27665E-03 7.78803E-03-2.12396E-03 3.12654E-03 2.34293E-03-8.88588E-04



 n o d a l   p r i n t   o u t   f o r   t i m e  s t e p   16202                              ( at time 8.0996894E+00 )

 nodal point  x-disp     y-disp      z-disp      x-vel       y-vel       z-vel      x-accl      y-accl      z-accl      x-coor      y-coor      z-coor
    22626  1.65503E-01 1.26267E-01-2.41431E+01 1.64362E-01 1.30318E-01-1.92353E+00 8.35798E-02 1.40072E-02 6.68714E-01 4.81297E+01-2.19035E+01-1.68046E+01



 n o d a l   p r i n t   o u t   f o r   t i m e  s t e p   16202                              ( at time 8.0996894E+00 )

 nodal point  x-rot      y-rot       z-rot       x-rot vel   y-rot vel   z-rot vel   x-rot acc   y-rot acc   z-rot acc
    22626  6.08816E-03 1.12785E-02-2.02915E-03 5.61026E-03 7.99279E-03-2.21555E-03 3.33644E-03 2.04779E-03-9.15983E-04



 n o d a l   p r i n t   o u t   f o r   t i m e  s t e p   16402                              ( at time 8.1996794E+00 )

 nodal point  x-disp     y-disp      z-disp      x-vel       y-vel       z-vel      x-accl      y-accl      z-accl      x-coor      y-coor      z-coor
    22626  1.82396E-01 1.39361E-01-2.43320E+01 1.73006E-01 1.31084E-01-1.85645E+00 8.64467E-02 7.65207E-03 6.70832E-01 4.81466E+01-2.18904E+01-1.69935E+01



 n o d a l   p r i n t   o u t   f o r   t i m e  s t e p   16402                              ( at time 8.1996794E+00 )

 nodal point  x-rot      y-rot       z-rot       x-rot vel   y-rot vel   z-rot vel   x-rot acc   y-rot acc   z-rot acc
    22626  6.66427E-03 1.20886E-02-2.25321E-03 5.92790E-03 8.21215E-03-2.27847E-03 3.17677E-03 2.19383E-03-6.29226E-04



 n o d a l   p r i n t   o u t   f o r   t i m e  s t e p   16602                              ( at time 8.2996694E+00 )

 nodal point  x-disp     y-disp      z-disp      x-vel       y-vel       z-vel      x-accl      y-accl      z-accl      x-coor      y-coor      z-coor
    22626  2.00034E-01 1.52506E-01-2.45142E+01 1.80301E-01 1.32418E-01-1.78703E+00 7.29533E-02 1.33428E-02 6.94309E-01 4.81642E+01-2.18773E+01-1.71756E+01



 n o d a l   p r i n t   o u t   f o r   t i m e  s t e p   16602                              ( at time 8.2996694E+00 )

 nodal point  x-rot      y-rot       z-rot       x-rot vel   y-rot vel   z-rot vel   x-rot acc   y-rot acc   z-rot acc
    22626  7.27378E-03 1.29190E-02-2.48275E-03 6.27459E-03 8.38372E-03-2.34297E-03 3.46725E-03 1.71585E-03-6.45125E-04



 n o d a l   p r i n t   o u t   f o r   t i m e  s t e p   16802                              ( at time 8.3996594E+00 )

 nodal point  x-disp     y-disp      z-disp      x-vel       y-vel       z-vel      x-accl      y-accl      z-accl      x-coor      y-coor      z-coor
    22626  2.18449E-01 1.65682E-01-2.46894E+01 1.88267E-01 1.30340E-01-1.71809E+00 7.96725E-02-2.07833E-02 6.89408E-01 4.81826E+01-2.18641E+01-1.73509E+01



 n o d a l   p r i n t   o u t   f o r   t i m e  s t e p   16802                              ( at time 8.3996594E+00 )

 nodal point  x-rot      y-rot       z-rot       x-rot vel   y-rot vel   z-rot vel   x-rot acc   y-rot acc   z-rot acc
    22626  7.91921E-03 1.37648E-02-2.71979E-03 6.61555E-03 8.53616E-03-2.40298E-03 3.40989E-03 1.52453E-03-6.00151E-04



 n o d a l   p r i n t   o u t   f o r   t i m e  s t e p   17002                              ( at time 8.4996494E+00 )

 nodal point  x-disp     y-disp      z-disp      x-vel       y-vel       z-vel      x-accl      y-accl      z-accl      x-coor      y-coor      z-coor
    22626  2.37685E-01 1.78577E-01-2.48575E+01 1.95954E-01 1.27809E-01-1.64459E+00 7.68782E-02-2.53113E-02 7.35093E-01 4.82019E+01-2.18512E+01-1.75190E+01



 n o d a l   p r i n t   o u t   f o r   t i m e  s t e p   17002                              ( at time 8.4996494E+00 )

 nodal point  x-rot      y-rot       z-rot       x-rot vel   y-rot vel   z-rot vel   x-rot acc   y-rot acc   z-rot acc
    22626  8.59830E-03 1.46264E-02-2.96359E-03 6.97558E-03 8.69178E-03-2.46568E-03 3.60076E-03 1.55637E-03-6.27016E-04



 n o d a l   p r i n t   o u t   f o r   t i m e  s t e p   17202                              ( at time 8.5996394E+00 )

 nodal point  x-disp     y-disp      z-disp      x-vel       y-vel       z-vel      x-accl      y-accl      z-accl      x-coor      y-coor      z-coor
    22626  2.57607E-01 1.91161E-01-2.50184E+01 2.02754E-01 1.24212E-01-1.57259E+00 6.80062E-02-3.59718E-02 7.20078E-01 4.82218E+01-2.18386E+01-1.76799E+01



 n o d a l   p r i n t   o u t   f o r   t i m e  s t e p   17202                              ( at time 8.5996394E+00 )

 nodal point  x-rot      y-rot       z-rot       x-rot vel   y-rot vel   z-rot vel   x-rot acc   y-rot acc   z-rot acc
    22626  9.31568E-03 1.55021E-02-3.21224E-03 7.36921E-03 8.80415E-03-2.52234E-03 3.93664E-03 1.12376E-03-5.66725E-04



 n o d a l   p r i n t   o u t   f o r   t i m e  s t e p   17402                              ( at time 8.6996293E+00 )

 nodal point  x-disp     y-disp      z-disp      x-vel       y-vel       z-vel      x-accl      y-accl      z-accl      x-coor      y-coor      z-coor
    22626  2.78216E-01 2.03372E-01-2.51717E+01 2.10137E-01 1.19423E-01-1.49634E+00 7.38311E-02-4.78911E-02 7.62528E-01 4.82424E+01-2.18264E+01-1.78332E+01



 n o d a l   p r i n t   o u t   f o r   t i m e  s t e p   17402                              ( at time 8.6996293E+00 )

 nodal point  x-rot      y-rot       z-rot       x-rot vel   y-rot vel   z-rot vel   x-rot acc   y-rot acc   z-rot acc
    22626  1.00695E-02 1.63884E-02-3.46868E-03 7.73758E-03 8.92063E-03-2.61189E-03 3.68402E-03 1.16496E-03-8.95525E-04



 n o d a l   p r i n t   o u t   f o r   t i m e  s t e p   17602                              ( at time 8.7996193E+00 )

 nodal point  x-disp     y-disp      z-disp      x-vel       y-vel       z-vel      x-accl      y-accl      z-accl      x-coor      y-coor      z-coor
    22626  2.99554E-01 2.14949E-01-2.53176E+01 2.16783E-01 1.12371E-01-1.42037E+00 6.64728E-02-7.05283E-02 7.59805E-01 4.82637E+01-2.18148E+01-1.79791E+01



 n o d a l   p r i n t   o u t   f o r   t i m e  s t e p   17602                              ( at time 8.7996193E+00 )

 nodal point  x-rot      y-rot       z-rot       x-rot vel   y-rot vel   z-rot vel   x-rot acc   y-rot acc   z-rot acc
    22626  1.08619E-02 1.72861E-02-3.73131E-03 8.11024E-03 9.03096E-03-2.65940E-03 3.72699E-03 1.10345E-03-4.75190E-04



 n o d a l   p r i n t   o u t   f o r   t i m e  s t e p   17802                              ( at time 8.8996093E+00 )

 nodal point  x-disp     y-disp      z-disp      x-vel       y-vel       z-vel      x-accl      y-accl      z-accl      x-coor      y-coor      z-coor
    22626  3.21590E-01 2.25883E-01-2.54557E+01 2.23311E-01 1.06493E-01-1.34298E+00 6.52856E-02-5.87895E-02 7.73987E-01 4.82858E+01-2.18039E+01-1.81172E+01



 n o d a l   p r i n t   o u t   f o r   t i m e  s t e p   17802                              ( at time 8.8996093E+00 )

 nodal point  x-rot      y-rot       z-rot       x-rot vel   y-rot vel   z-rot vel   x-rot acc   y-rot acc   z-rot acc
    22626  1.16928E-02 1.81928E-02-3.99942E-03 8.50897E-03 9.10180E-03-2.72617E-03 3.98771E-03 7.08380E-04-6.67728E-04



 n o d a l   p r i n t   o u t   f o r   t i m e  s t e p   18002                              ( at time 8.9995993E+00 )

 nodal point  x-disp     y-disp      z-disp      x-vel       y-vel       z-vel      x-accl      y-accl      z-accl      x-coor      y-coor      z-coor
    22626  3.44279E-01 2.36241E-01-2.55859E+01 2.30786E-01 1.00803E-01-1.26271E+00 7.47506E-02-5.69009E-02 8.02796E-01 4.83085E+01-2.17935E+01-1.82474E+01



 n o d a l   p r i n t   o u t   f o r   t i m e  s t e p   18002                              ( at time 8.9995993E+00 )

 nodal point  x-rot      y-rot       z-rot       x-rot vel   y-rot vel   z-rot vel   x-rot acc   y-rot acc   z-rot acc
    22626  1.25652E-02 1.91093E-02-4.27395E-03 8.92650E-03 9.17899E-03-2.78323E-03 4.17573E-03 7.72061E-04-5.70737E-04



 n o d a l   p r i n t   o u t   f o r   t i m e  s t e p   18202                              ( at time 9.0995893E+00 )

 nodal point  x-disp     y-disp      z-disp      x-vel       y-vel       z-vel      x-accl      y-accl      z-accl      x-coor      y-coor      z-coor
    22626  3.67799E-01 2.45983E-01-2.57083E+01 2.39178E-01 9.46297E-02-1.18364E+00 8.39357E-02-6.17415E-02 7.90794E-01 4.83320E+01-2.17838E+01-1.83698E+01



 n o d a l   p r i n t   o u t   f o r   t i m e  s t e p   18202                              ( at time 9.0995893E+00 )

 nodal point  x-rot      y-rot       z-rot       x-rot vel   y-rot vel   z-rot vel   x-rot acc   y-rot acc   z-rot acc
    22626  1.34779E-02 2.00316E-02-4.55415E-03 9.34173E-03 9.26067E-03-2.83668E-03 4.15270E-03 8.16899E-04-5.34505E-04



 n o d a l   p r i n t   o u t   f o r   t i m e  s t e p   18402                              ( at time 9.1995793E+00 )

 nodal point  x-disp     y-disp      z-disp      x-vel       y-vel       z-vel      x-accl      y-accl      z-accl      x-coor      y-coor      z-coor
    22626  3.91977E-01 2.55042E-01-2.58228E+01 2.45132E-01 8.74276E-02-1.10599E+00 5.95485E-02-7.20282E-02 7.76574E-01 4.83562E+01-2.17747E+01-1.84842E+01



 n o d a l   p r i n t   o u t   f o r   t i m e  s t e p   18402                              ( at time 9.1995793E+00 )

 nodal point  x-rot      y-rot       z-rot       x-rot vel   y-rot vel   z-rot vel   x-rot acc   y-rot acc   z-rot acc
    22626  1.44317E-02 2.09633E-02-4.84000E-03 9.74115E-03 9.35781E-03-2.88396E-03 3.99464E-03 9.71468E-04-4.72817E-04



 n o d a l   p r i n t   o u t   f o r   t i m e  s t e p   18602                              ( at time 9.2995693E+00 )

 nodal point  x-disp     y-disp      z-disp      x-vel       y-vel       z-vel      x-accl      y-accl      z-accl      x-coor      y-coor      z-coor
    22626  4.16838E-01 2.63552E-01-2.59295E+01 2.51744E-01 8.16560E-02-1.03073E+00 6.61176E-02-5.77218E-02 7.52660E-01 4.83810E+01-2.17662E+01-1.85910E+01



 n o d a l   p r i n t   o u t   f o r   t i m e  s t e p   18602                              ( at time 9.2995693E+00 )

 nodal point  x-rot      y-rot       z-rot       x-rot vel   y-rot vel   z-rot vel   x-rot acc   y-rot acc   z-rot acc
    22626  1.54262E-02 2.19025E-02-5.13185E-03 1.01352E-02 9.43613E-03-2.94325E-03 3.94091E-03 7.83228E-04-5.92956E-04



 n o d a l   p r i n t   o u t   f o r   t i m e  s t e p   18802                              ( at time 9.3995593E+00 )

 nodal point  x-disp     y-disp      z-disp      x-vel       y-vel       z-vel      x-accl      y-accl      z-accl      x-coor      y-coor      z-coor
    22626  4.42341E-01 2.71432E-01-2.60287E+01 2.58645E-01 7.56553E-02-9.54549E-01 6.90241E-02-6.00130E-02 7.61886E-01 4.84065E+01-2.17584E+01-1.86902E+01



 n o d a l   p r i n t   o u t   f o r   t i m e  s t e p   18802                              ( at time 9.3995593E+00 )

 nodal point  x-rot      y-rot       z-rot       x-rot vel   y-rot vel   z-rot vel   x-rot acc   y-rot acc   z-rot acc
    22626  1.64586E-02 2.28513E-02-5.42895E-03 1.05189E-02 9.53915E-03-2.99625E-03 3.83724E-03 1.03036E-03-5.30125E-04



 n o d a l   p r i n t   o u t   f o r   t i m e  s t e p   19002                              ( at time 9.4995493E+00 )

 nodal point  x-disp     y-disp      z-disp      x-vel       y-vel       z-vel      x-accl      y-accl      z-accl      x-coor      y-coor      z-coor
    22626  4.68542E-01 2.78742E-01-2.61204E+01 2.65115E-01 7.20238E-02-8.79162E-01 6.47029E-02-3.63181E-02 7.53945E-01 4.84327E+01-2.17510E+01-1.87819E+01



 n o d a l   p r i n t   o u t   f o r   t i m e  s t e p   19002                              ( at time 9.4995493E+00 )

 nodal point  x-rot      y-rot       z-rot       x-rot vel   y-rot vel   z-rot vel   x-rot acc   y-rot acc   z-rot acc
    22626  1.75331E-02 2.38071E-02-5.73044E-03 1.09821E-02 9.58078E-03-3.04532E-03 4.63267E-03 4.16278E-04-4.90736E-04



 n o d a l   p r i n t   o u t   f o r   t i m e  s t e p   19202                              ( at time 9.5995393E+00 )

 nodal point  x-disp     y-disp      z-disp      x-vel       y-vel       z-vel      x-accl      y-accl      z-accl      x-coor      y-coor      z-coor
    22626  4.95415E-01 2.85828E-01-2.62047E+01 2.71892E-01 6.70312E-02-8.08522E-01 6.77788E-02-4.99311E-02 7.06467E-01 4.84596E+01-2.17440E+01-1.88662E+01



 n o d a l   p r i n t   o u t   f o r   t i m e  s t e p   19202                              ( at time 9.5995393E+00 )

 nodal point  x-rot      y-rot       z-rot       x-rot vel   y-rot vel   z-rot vel   x-rot acc   y-rot acc   z-rot acc
    22626  1.86481E-02 2.47701E-02-6.03795E-03 1.13012E-02 9.70068E-03-3.09000E-03 3.19110E-03 1.19913E-03-4.46817E-04



 n o d a l   p r i n t   o u t   f o r   t i m e  s t e p   19402                              ( at time 9.6995293E+00 )

 nodal point  x-disp     y-disp      z-disp      x-vel       y-vel       z-vel      x-accl      y-accl      z-accl      x-coor      y-coor      z-coor
    22626  5.22955E-01 2.92347E-01-2.62820E+01 2.78898E-01 6.44104E-02-7.37017E-01 7.00643E-02-2.62104E-02 7.15125E-01 4.84871E+01-2.17374E+01-1.89435E+01



 n o d a l   p r i n t   o u t   f o r   t i m e  s t e p   19402                              ( at time 9.6995293E+00 )

 nodal point  x-rot      y-rot       z-rot       x-rot vel   y-rot vel   z-rot vel   x-rot acc   y-rot acc   z-rot acc
    22626  1.97996E-02 2.57427E-02-6.35068E-03 1.17365E-02 9.76234E-03-3.13690E-03 4.35344E-03 6.16644E-04-4.69052E-04



 n o d a l   p r i n t   o u t   f o r   t i m e  s t e p   19602                              ( at time 9.7995193E+00 )

 nodal point  x-disp     y-disp      z-disp      x-vel       y-vel       z-vel      x-accl      y-accl      z-accl      x-coor      y-coor      z-coor
    22626  5.51214E-01 2.98723E-01-2.63521E+01 2.85678E-01 6.35552E-02-6.65305E-01 6.78083E-02-8.55249E-03 7.17193E-01 4.85154E+01-2.17311E+01-1.90136E+01



 n o d a l   p r i n t   o u t   f o r   t i m e  s t e p   19602                              ( at time 9.7995193E+00 )

 nodal point  x-rot      y-rot       z-rot       x-rot vel   y-rot vel   z-rot vel   x-rot acc   y-rot acc   z-rot acc
    22626  2.09936E-02 2.67213E-02-6.66609E-03 1.21391E-02 9.81104E-03-3.19524E-03 4.02674E-03 4.87103E-04-5.83467E-04



 n o d a l   p r i n t   o u t   f o r   t i m e  s t e p   19802                              ( at time 9.8995093E+00 )

 nodal point  x-disp     y-disp      z-disp      x-vel       y-vel       z-vel      x-accl      y-accl      z-accl      x-coor      y-coor      z-coor
    22626  5.80242E-01 3.05015E-01-2.64152E+01 2.93749E-01 6.06722E-02-5.98627E-01 8.07170E-02-2.88335E-02 6.66848E-01 4.85444E+01-2.17248E+01-1.90767E+01



 n o d a l   p r i n t   o u t   f o r   t i m e  s t e p   19802                              ( at time 9.8995093E+00 )

 nodal point  x-rot      y-rot       z-rot       x-rot vel   y-rot vel   z-rot vel   x-rot acc   y-rot acc   z-rot acc
    22626  2.22279E-02 2.77086E-02-6.98935E-03 1.25238E-02 9.92054E-03-3.24747E-03 3.84703E-03 1.09514E-03-5.22292E-04



 n o d a l   p r i n t   o u t   f o r   t i m e  s t e p   20003                              ( at time 9.9999992E+00 )

 nodal point  x-disp     y-disp      z-disp      x-vel       y-vel       z-vel      x-accl      y-accl      z-accl      x-coor      y-coor      z-coor
[...]
    22626  2.50158E-01 1.50537E-01-6.88605E-02 1.79353E-02 8.04521E-03-5.99842E-03 9.61213E-06 1.21260E-04 2.86063E-04



 n o d a l   p r i n t   o u t   f o r   t i m e  s t e p   45205                              ( at time 2.2599738E+01 )

 nodal point  x-disp     y-disp      z-disp      x-vel       y-vel       z-vel      x-accl      y-accl      z-accl      x-coor      y-coor      z-coor
    22626  4.58673E+00 5.13779E-01-2.11612E+01 2.68008E-01-9.49623E-02 4.45755E-01 1.61698E-02-2.35888E-02-1.71111E-03 5.25509E+01-2.15160E+01-1.38227E+01



 n o d a l   p r i n t   o u t   f o r   t i m e  s t e p   45205                              ( at time 2.2599738E+01 )

 nodal point  x-rot      y-rot       z-rot       x-rot vel   y-rot vel   z-rot vel   x-rot acc   y-rot acc   z-rot acc
    22626  2.51952E-01 1.51342E-01-6.94585E-02 1.79435E-02 8.05649E-03-5.95998E-03 8.28953E-05 1.12793E-04 3.84471E-04



 n o d a l   p r i n t   o u t   f o r   t i m e  s t e p   45405                              ( at time 2.2699728E+01 )

 nodal point  x-disp     y-disp      z-disp      x-vel       y-vel       z-vel      x-accl      y-accl      z-accl      x-coor      y-coor      z-coor
    22626  4.61360E+00 5.04181E-01-2.11166E+01 2.69347E-01-9.71375E-02 4.45396E-01 1.33824E-02-2.17541E-02-3.58383E-03 5.25778E+01-2.15256E+01-1.37781E+01



 n o d a l   p r i n t   o u t   f o r   t i m e  s t e p   45405                              ( at time 2.2699728E+01 )

 nodal point  x-rot      y-rot       z-rot       x-rot vel   y-rot vel   z-rot vel   x-rot acc   y-rot acc   z-rot acc
    22626  2.53746E-01 1.52147E-01-7.00525E-02 1.79371E-02 8.06570E-03-5.91857E-03-6.41380E-05 9.20900E-05 4.14098E-04



 n o d a l   p r i n t   o u t   f o r   t i m e  s t e p   45605                              ( at time 2.2799718E+01 )

 nodal point  x-disp     y-disp      z-disp      x-vel       y-vel       z-vel      x-accl      y-accl      z-accl      x-coor      y-coor      z-coor
    22626  4.64060E+00 4.94351E-01-2.10721E+01 2.70720E-01-9.93788E-02 4.45168E-01 1.37407E-02-2.24152E-02-2.28605E-03 5.26048E+01-2.15354E+01-1.37336E+01



 n o d a l   p r i n t   o u t   f o r   t i m e  s t e p   45605                              ( at time 2.2799718E+01 )

 nodal point  x-rot      y-rot       z-rot       x-rot vel   y-rot vel   z-rot vel   x-rot acc   y-rot acc   z-rot acc
    22626  2.55539E-01 1.52955E-01-7.06428E-02 1.79368E-02 8.07960E-03-5.88655E-03-3.57661E-06 1.39003E-04 3.20288E-04



 n o d a l   p r i n t   o u t   f o r   t i m e  s t e p   45805                              ( at time 2.2899708E+01 )

 nodal point  x-disp     y-disp      z-disp      x-vel       y-vel       z-vel      x-accl      y-accl      z-accl      x-coor      y-coor      z-coor
    22626  4.66777E+00 4.84288E-01-2.10276E+01 2.72623E-01-1.01934E-01 4.45457E-01 1.90279E-02-2.55576E-02 2.88876E-03 5.26319E+01-2.15455E+01-1.36891E+01



 n o d a l   p r i n t   o u t   f o r   t i m e  s t e p   45805                              ( at time 2.2899708E+01 )

 nodal point  x-rot      y-rot       z-rot       x-rot vel   y-rot vel   z-rot vel   x-rot acc   y-rot acc   z-rot acc
    22626  2.57334E-01 1.53763E-01-7.12294E-02 1.79475E-02 8.08561E-03-5.84573E-03 1.06984E-04 6.01235E-05 4.08174E-04



 n o d a l   p r i n t   o u t   f o r   t i m e  s t e p   46005                              ( at time 2.2999698E+01 )

 nodal point  x-disp     y-disp      z-disp      x-vel       y-vel       z-vel      x-accl      y-accl      z-accl      x-coor      y-coor      z-coor
    22626  4.69511E+00 4.73980E-01-2.09831E+01 2.74119E-01-1.04133E-01 4.44560E-01 1.49565E-02-2.19890E-02-8.96804E-03 5.26593E+01-2.15558E+01-1.36446E+01



 n o d a l   p r i n t   o u t   f o r   t i m e  s t e p   46005                              ( at time 2.2999698E+01 )

 nodal point  x-rot      y-rot       z-rot       x-rot vel   y-rot vel   z-rot vel   x-rot acc   y-rot acc   z-rot acc
    22626  2.59128E-01 1.54572E-01-7.18118E-02 1.79468E-02 8.10175E-03-5.80985E-03-6.61300E-06 1.61422E-04 3.58881E-04



 n o d a l   p r i n t   o u t   f o r   t i m e  s t e p   46205                              ( at time 2.3099688E+01 )

 nodal point  x-disp     y-disp      z-disp      x-vel       y-vel       z-vel      x-accl      y-accl      z-accl      x-coor      y-coor      z-coor
    22626  4.72260E+00 4.63439E-01-2.09387E+01 2.75807E-01-1.06462E-01 4.44257E-01 1.68891E-02-2.32930E-02-3.02616E-03 5.26868E+01-2.15664E+01-1.36002E+01



 n o d a l   p r i n t   o u t   f o r   t i m e  s t e p   46205                              ( at time 2.3099688E+01 )

 nodal point  x-rot      y-rot       z-rot       x-rot vel   y-rot vel   z-rot vel   x-rot acc   y-rot acc   z-rot acc
    22626  2.60923E-01 1.55383E-01-7.23901E-02 1.79526E-02 8.10944E-03-5.76728E-03 5.76180E-05 7.69171E-05 4.25703E-04



 n o d a l   p r i n t   o u t   f o r   t i m e  s t e p   46405                              ( at time 2.3199678E+01 )

 nodal point  x-disp     y-disp      z-disp      x-vel       y-vel       z-vel      x-accl      y-accl      z-accl      x-coor      y-coor      z-coor
    22626  4.75026E+00 4.52698E-01-2.08943E+01 2.77424E-01-1.08473E-01 4.43584E-01 1.61686E-02-2.01142E-02-6.73594E-03 5.27144E+01-2.15771E+01-1.35558E+01



 n o d a l   p r i n t   o u t   f o r   t i m e  s t e p   46405                              ( at time 2.3199678E+01 )

 nodal point  x-rot      y-rot       z-rot       x-rot vel   y-rot vel   z-rot vel   x-rot acc   y-rot acc   z-rot acc
    22626  2.62719E-01 1.56195E-01-7.29649E-02 1.79691E-02 8.12645E-03-5.72795E-03 1.65418E-04 1.70150E-04 3.93380E-04



 n o d a l   p r i n t   o u t   f o r   t i m e  s t e p   46605                              ( at time 2.3299668E+01 )

 nodal point  x-disp     y-disp      z-disp      x-vel       y-vel       z-vel      x-accl      y-accl      z-accl      x-coor      y-coor      z-coor
    22626  4.77807E+00 4.41765E-01-2.08500E+01 2.78897E-01-1.10099E-01 4.42601E-01 1.47311E-02-1.62588E-02-9.83168E-03 5.27423E+01-2.15880E+01-1.35115E+01



 n o d a l   p r i n t   o u t   f o r   t i m e  s t e p   46605                              ( at time 2.3299668E+01 )

 nodal point  x-rot      y-rot       z-rot       x-rot vel   y-rot vel   z-rot vel   x-rot acc   y-rot acc   z-rot acc
    22626  2.64516E-01 1.57007E-01-7.35351E-02 1.79716E-02 8.12792E-03-5.68520E-03 2.44779E-05 1.46700E-05 4.27557E-04



 n o d a l   p r i n t   o u t   f o r   t i m e  s t e p   46805                              ( at time 2.3399658E+01 )

 nodal point  x-disp     y-disp      z-disp      x-vel       y-vel       z-vel      x-accl      y-accl      z-accl      x-coor      y-coor      z-coor
    22626  4.80604E+00 4.30660E-01-2.08058E+01 2.80340E-01-1.11956E-01 4.41442E-01 1.44274E-02-1.85689E-02-1.15876E-02 5.27702E+01-2.15991E+01-1.34673E+01



 n o d a l   p r i n t   o u t   f o r   t i m e  s t e p   46805                              ( at time 2.3399658E+01 )

 nodal point  x-rot      y-rot       z-rot       x-rot vel   y-rot vel   z-rot vel   x-rot acc   y-rot acc   z-rot acc
    22626  2.66314E-01 1.57820E-01-7.41016E-02 1.79984E-02 8.13799E-03-5.65505E-03 2.68115E-04 1.00741E-04 3.01473E-04



 n o d a l   p r i n t   o u t   f o r   t i m e  s t e p   47005                              ( at time 2.3499648E+01 )

 nodal point  x-disp     y-disp      z-disp      x-vel       y-vel       z-vel      x-accl      y-accl      z-accl      x-coor      y-coor      z-coor
    22626  4.83417E+00 4.19385E-01-2.07617E+01 2.81979E-01-1.13459E-01 4.40169E-01 1.63913E-02-1.50363E-02-1.27321E-02 5.27983E+01-2.16104E+01-1.34232E+01



 n o d a l   p r i n t   o u t   f o r   t i m e  s t e p   47005                              ( at time 2.3499648E+01 )

 nodal point  x-rot      y-rot       z-rot       x-rot vel   y-rot vel   z-rot vel   x-rot acc   y-rot acc   z-rot acc
    22626  2.68115E-01 1.58635E-01-7.46646E-02 1.80131E-02 8.14715E-03-5.60482E-03 1.46846E-04 9.15946E-05 5.02406E-04



 n o d a l   p r i n t   o u t   f o r   t i m e  s t e p   47205                              ( at time 2.3599638E+01 )

 nodal point  x-disp     y-disp      z-disp      x-vel       y-vel       z-vel      x-accl      y-accl      z-accl      x-coor      y-coor      z-coor
    22626  4.86243E+00 4.08010E-01-2.07178E+01 2.83189E-01-1.14115E-01 4.39036E-01 1.21070E-02-6.55902E-03-1.13264E-02 5.28266E+01-2.16218E+01-1.33793E+01



 n o d a l   p r i n t   o u t   f o r   t i m e  s t e p   47205                              ( at time 2.3599638E+01 )

 nodal point  x-rot      y-rot       z-rot       x-rot vel   y-rot vel   z-rot vel   x-rot acc   y-rot acc   z-rot acc
    22626  2.69917E-01 1.59449E-01-7.52233E-02 1.80366E-02 8.14946E-03-5.57348E-03 2.35148E-04 2.31273E-05 3.13369E-04



 n o d a l   p r i n t   o u t   f o r   t i m e  s t e p   47405                              ( at time 2.3699628E+01 )

 nodal point  x-disp     y-disp      z-disp      x-vel       y-vel       z-vel      x-accl      y-accl      z-accl      x-coor      y-coor      z-coor
    22626  4.89083E+00 3.96570E-01-2.06739E+01 2.84848E-01-1.14611E-01 4.37716E-01 1.65898E-02-4.95971E-03-1.32081E-02 5.28550E+01-2.16332E+01-1.33354E+01



 n o d a l   p r i n t   o u t   f o r   t i m e  s t e p   47405                              ( at time 2.3699628E+01 )

 nodal point  x-rot      y-rot       z-rot       x-rot vel   y-rot vel   z-rot vel   x-rot acc   y-rot acc   z-rot acc
    22626  2.71722E-01 1.60264E-01-7.57787E-02 1.80503E-02 8.15245E-03-5.53363E-03 1.36973E-04 2.98702E-05 3.98577E-04



 n o d a l   p r i n t   o u t   f o r   t i m e  s t e p   47605                              ( at time 2.3799618E+01 )

 nodal point  x-disp     y-disp      z-disp      x-vel       y-vel       z-vel      x-accl      y-accl      z-accl      x-coor      y-coor      z-coor
    22626  4.91936E+00 3.85074E-01-2.06302E+01 2.85887E-01-1.15311E-01 4.36105E-01 1.03953E-02-7.00223E-03-1.61081E-02 5.28835E+01-2.16447E+01-1.32917E+01



 n o d a l   p r i n t   o u t   f o r   t i m e  s t e p   47605                              ( at time 2.3799618E+01 )

 nodal point  x-rot      y-rot       z-rot       x-rot vel   y-rot vel   z-rot vel   x-rot acc   y-rot acc   z-rot acc
    22626  2.73528E-01 1.61079E-01-7.63305E-02 1.80737E-02 8.15681E-03-5.50575E-03 2.34887E-04 4.36093E-05 2.78794E-04



 n o d a l   p r i n t   o u t   f o r   t i m e  s t e p   47805                              ( at time 2.3899608E+01 )

 nodal point  x-disp     y-disp      z-disp      x-vel       y-vel       z-vel      x-accl      y-accl      z-accl      x-coor      y-coor      z-coor
    22626  4.94800E+00 3.73542E-01-2.05867E+01 2.86865E-01-1.15116E-01 4.34602E-01 9.77784E-03 1.94970E-03-1.50280E-02 5.29122E+01-2.16562E+01-1.32482E+01



 n o d a l   p r i n t   o u t   f o r   t i m e  s t e p   47805                              ( at time 2.3899608E+01 )

 nodal point  x-rot      y-rot       z-rot       x-rot vel   y-rot vel   z-rot vel   x-rot acc   y-rot acc   z-rot acc
    22626  2.75336E-01 1.61895E-01-7.68796E-02 1.80971E-02 8.15906E-03-5.47594E-03 2.33578E-04 2.24656E-05 2.98148E-04



 n o d a l   p r i n t   o u t   f o r   t i m e  s t e p   48005                              ( at time 2.3999598E+01 )

 nodal point  x-disp     y-disp      z-disp      x-vel       y-vel       z-vel      x-accl      y-accl      z-accl      x-coor      y-coor      z-coor
    22626  4.97673E+00 3.62048E-01-2.05433E+01 2.87666E-01-1.14767E-01 4.32899E-01 8.01473E-03 3.48815E-03-1.70306E-02 5.29409E+01-2.16677E+01-1.32048E+01



 n o d a l   p r i n t   o u t   f o r   t i m e  s t e p   48005                              ( at time 2.3999598E+01 )

 nodal point  x-rot      y-rot       z-rot       x-rot vel   y-rot vel   z-rot vel   x-rot acc   y-rot acc   z-rot acc
    22626  2.77147E-01 1.62711E-01-7.74257E-02 1.81175E-02 8.15156E-03-5.44893E-03 2.04373E-04-7.50356E-05 2.70179E-04



 n o d a l   p r i n t   o u t   f o r   t i m e  s t e p   48205                              ( at time 2.4099588E+01 )

 nodal point  x-disp     y-disp      z-disp      x-vel       y-vel       z-vel      x-accl      y-accl      z-accl      x-coor      y-coor      z-coor
    22626  5.00554E+00 3.50598E-01-2.05001E+01 2.88369E-01-1.14304E-01 4.30786E-01 7.02654E-03 4.63089E-03-2.11389E-02 5.29697E+01-2.16792E+01-1.31616E+01



 n o d a l   p r i n t   o u t   f o r   t i m e  s t e p   48205                              ( at time 2.4099588E+01 )

 nodal point  x-rot      y-rot       z-rot       x-rot vel   y-rot vel   z-rot vel   x-rot acc   y-rot acc   z-rot acc
    22626  2.78960E-01 1.63526E-01-7.79696E-02 1.81454E-02 8.15845E-03-5.42979E-03 2.79106E-04 6.89987E-05 1.91414E-04



 n o d a l   p r i n t   o u t   f o r   t i m e  s t e p   48405                              ( at time 2.4199578E+01 )

 nodal point  x-disp     y-disp      z-disp      x-vel       y-vel       z-vel      x-accl      y-accl      z-accl      x-coor      y-coor      z-coor
    22626  5.03440E+00 3.39244E-01-2.04572E+01 2.88887E-01-1.12983E-01 4.28666E-01 5.18081E-03 1.32131E-02-2.11963E-02 5.29986E+01-2.16905E+01-1.31187E+01



 n o d a l   p r i n t   o u t   f o r   t i m e  s t e p   48405                              ( at time 2.4199578E+01 )

 nodal point  x-rot      y-rot       z-rot       x-rot vel   y-rot vel   z-rot vel   x-rot acc   y-rot acc   z-rot acc
    22626  2.80775E-01 1.64341E-01-7.85114E-02 1.81643E-02 8.15608E-03-5.40826E-03 1.88837E-04-2.37327E-05 2.15252E-04



 n o d a l   p r i n t   o u t   f o r   t i m e  s t e p   48605                              ( at time 2.4299568E+01 )

 nodal point  x-disp     y-disp      z-disp      x-vel       y-vel       z-vel      x-accl      y-accl      z-accl      x-coor      y-coor      z-coor
    22626  5.06331E+00 3.27998E-01-2.04144E+01 2.89393E-01-1.11939E-01 4.26610E-01 5.06030E-03 1.04400E-02-2.05664E-02 5.30275E+01-2.17018E+01-1.30759E+01



 n o d a l   p r i n t   o u t   f o r   t i m e  s t e p   48605                              ( at time 2.4299568E+01 )

 nodal point  x-rot      y-rot       z-rot       x-rot vel   y-rot vel   z-rot vel   x-rot acc   y-rot acc   z-rot acc
    22626  2.82593E-01 1.65156E-01-7.90514E-02 1.82036E-02 8.14426E-03-5.39642E-03 3.93203E-04-1.18224E-04 1.18452E-04



 n o d a l   p r i n t   o u t   f o r   t i m e  s t e p   48805                              ( at time 2.4399558E+01 )

 nodal point  x-disp     y-disp      z-disp      x-vel       y-vel       z-vel      x-accl      y-accl      z-accl      x-coor      y-coor      z-coor
    22626  5.09223E+00 3.16862E-01-2.03719E+01 2.89439E-01-1.10543E-01 4.24154E-01 4.58998E-04 1.39596E-02-2.45594E-02 5.30564E+01-2.17129E+01-1.30334E+01



 n o d a l   p r i n t   o u t   f o r   t i m e  s t e p   48805                              ( at time 2.4399558E+01 )

 nodal point  x-rot      y-rot       z-rot       x-rot vel   y-rot vel   z-rot vel   x-rot acc   y-rot acc   z-rot acc
    22626  2.84414E-01 1.65971E-01-7.95902E-02 1.82263E-02 8.14517E-03-5.38268E-03 2.26164E-04 9.13711E-06 1.37429E-04



 n o d a l   p r i n t   o u t   f o r   t i m e  s t e p   49006                              ( at time 2.4500048E+01 )

 nodal point  x-disp     y-disp      z-disp      x-vel       y-vel       z-vel      x-accl      y-accl      z-accl      x-coor      y-coor      z-coor
    22626  5.12133E+00 3.05832E-01-2.03294E+01 2.89392E-01-1.09035E-01 4.21745E-01-4.62655E-04 1.50089E-02-2.39777E-02 5.30855E+01-2.17240E+01-1.29909E+01



 n o d a l   p r i n t   o u t   f o r   t i m e  s t e p   49006                              ( at time 2.4500048E+01 )

 nodal point  x-rot      y-rot       z-rot       x-rot vel   y-rot vel   z-rot vel   x-rot acc   y-rot acc   z-rot acc
    22626  2.86246E-01 1.66789E-01-8.01306E-02 1.82422E-02 8.13953E-03-5.36984E-03 1.58704E-04-5.61452E-05 1.27791E-04



 n o d a l   p r i n t   o u t   f o r   t i m e  s t e p   49206                              ( at time 2.4600038E+01 )

 nodal point  x-disp     y-disp      z-disp      x-vel       y-vel       z-vel      x-accl      y-accl      z-accl      x-coor      y-coor      z-coor
    22626  5.15025E+00 2.95037E-01-2.02873E+01 2.88950E-01-1.06972E-01 4.19593E-01-4.42754E-03 2.06351E-02-2.15166E-02 5.31144E+01-2.17348E+01-1.29488E+01



 n o d a l   p r i n t   o u t   f o r   t i m e  s t e p   49206                              ( at time 2.4600038E+01 )

 nodal point  x-rot      y-rot       z-rot       x-rot vel   y-rot vel   z-rot vel   x-rot acc   y-rot acc   z-rot acc
    22626  2.88073E-01 1.67602E-01-8.06678E-02 1.82799E-02 8.12724E-03-5.37178E-03 3.76754E-04-1.22909E-04-1.94804E-05



 n o d a l   p r i n t   o u t   f o r   t i m e  s t e p   49406                              ( at time 2.4700028E+01 )

 nodal point  x-disp     y-disp      z-disp      x-vel       y-vel       z-vel      x-accl      y-accl      z-accl      x-coor      y-coor      z-coor
    22626  5.17915E+00 2.84422E-01-2.02455E+01 2.88812E-01-1.05261E-01 4.17525E-01-1.37464E-03 1.71111E-02-2.06869E-02 5.31433E+01-2.17454E+01-1.29070E+01



 n o d a l   p r i n t   o u t   f o r   t i m e  s t e p   49406                              ( at time 2.4700028E+01 )

 nodal point  x-rot      y-rot       z-rot       x-rot vel   y-rot vel   z-rot vel   x-rot acc   y-rot acc   z-rot acc
    22626  2.89901E-01 1.68415E-01-8.12048E-02 1.82977E-02 8.12541E-03-5.36879E-03 1.77772E-04-1.83025E-05 2.99546E-05



 n o d a l   p r i n t   o u t   f o r   t i m e  s t e p   49606                              ( at time 2.4800018E+01 )

 nodal point  x-disp     y-disp      z-disp      x-vel       y-vel       z-vel      x-accl      y-accl      z-accl      x-coor      y-coor      z-coor
    22626  5.20802E+00 2.74025E-01-2.02039E+01 2.88435E-01-1.03167E-01 4.14489E-01-3.77094E-03 2.09401E-02-3.03564E-02 5.31722E+01-2.17558E+01-1.28654E+01



 n o d a l   p r i n t   o u t   f o r   t i m e  s t e p   49606                              ( at time 2.4800018E+01 )

 nodal point  x-rot      y-rot       z-rot       x-rot vel   y-rot vel   z-rot vel   x-rot acc   y-rot acc   z-rot acc
    22626  2.91732E-01 1.69227E-01-8.17417E-02 1.83168E-02 8.12127E-03-5.36553E-03 1.91423E-04-4.14663E-05 3.25806E-05



 n o d a l   p r i n t   o u t   f o r   t i m e  s t e p   49806                              ( at time 2.4900008E+01 )

 nodal point  x-disp     y-disp      z-disp      x-vel       y-vel       z-vel      x-accl      y-accl      z-accl      x-coor      y-coor      z-coor
    22626  5.23682E+00 2.63814E-01-2.01625E+01 2.87869E-01-1.00814E-01 4.12919E-01-5.66545E-03 2.35294E-02-1.57076E-02 5.32010E+01-2.17660E+01-1.28240E+01



 n o d a l   p r i n t   o u t   f o r   t i m e  s t e p   49806                              ( at time 2.4900008E+01 )

 nodal point  x-rot      y-rot       z-rot       x-rot vel   y-rot vel   z-rot vel   x-rot acc   y-rot acc   z-rot acc
    22626  2.93564E-01 1.70038E-01-8.22785E-02 1.83374E-02 8.11125E-03-5.37530E-03 2.05845E-04-1.00212E-04-9.77438E-05



 n o d a l   p r i n t   o u t   f o r   t i m e  s t e p   50006                              ( at time 2.4999998E+01 )

 nodal point  x-disp     y-disp      z-disp      x-vel       y-vel       z-vel      x-accl      y-accl      z-accl      x-coor      y-coor      z-coor
    22626  5.26557E+00 2.53843E-01-2.01213E+01 2.87167E-01-9.84967E-02 4.10502E-01-7.01849E-03 2.31792E-02-2.41728E-02 5.32298E+01-2.17759E+01-1.27828E+01



 n o d a l   p r i n t   o u t   f o r   t i m e  s t e p   50006                              ( at time 2.4999998E+01 )

 nodal point  x-rot      y-rot       z-rot       x-rot vel   y-rot vel   z-rot vel   x-rot acc   y-rot acc   z-rot acc
    22626  2.95399E-01 1.70849E-01-8.28159E-02 1.83646E-02 8.10630E-03-5.37556E-03 2.72511E-04-4.94578E-05-2.54274E-06
