 LSTC 50th% Full_FE H-III Dummy (Beta Version, February 17, 2019)        
                    ls-dyna smp s R16 R16.0_619_d222963 date 03/18/2025

{BEGIN LEGEND}
 Entity #        Title
    22626                                                                                     
{END LEGEND}




 n o d a l   p r i n t   o u t   f o r   t i m e  s t e p       1                              ( at time 0.0000000E+00 )

 nodal point  x-disp     y-disp      z-disp      x-vel       y-vel       z-vel      x-accl      y-accl      z-accl      x-coor      y-coor      z-coor
    22626  0.00000E+00 0.00000E+00 0.00000E+00 0.00000E+00 0.00000E+00-3.12000E+00 0.00000E+00 0.00000E+00 0.00000E+00 4.79642E+01-2.20298E+01 7.33850E+00



 n o d a l   p r i n t   o u t   f o r   t i m e  s t e p       1                              ( at time 0.0000000E+00 )

 nodal point  x-rot      y-rot       z-rot       x-rot vel   y-rot vel   z-rot vel   x-rot acc   y-rot acc   z-rot acc
    22626  0.00000E+00 0.00000E+00 0.00000E+00 0.00000E+00 0.00000E+00 0.00000E+00 0.00000E+00 0.00000E+00 0.00000E+00



 n o d a l   p r i n t   o u t   f o r   t i m e  s t e p     201                              ( at time 9.9989993E-02 )

 nodal point  x-disp     y-disp      z-disp      x-vel       y-vel       z-vel      x-accl      y-accl      z-accl      x-coor      y-coor      z-coor
    22626  8.34038E-07-4.04439E-06-3.12016E-01 4.76525E-05-4.96427E-04-3.12074E+00 4.76573E-04-4.96477E-03-7.42748E-03 4.79642E+01-2.20298E+01 7.02648E+00



 n o d a l   p r i n t   o u t   f o r   t i m e  s t e p     201                              ( at time 9.9989993E-02 )

 nodal point  x-rot      y-rot       z-rot       x-rot vel   y-rot vel   z-rot vel   x-rot acc   y-rot acc   z-rot acc
    22626  9.60992E-09 3.03975E-08 5.26903E-08 1.30725E-06 2.72143E-06 5.21157E-06 1.30738E-05 2.72170E-05 5.21209E-05



 n o d a l   p r i n t   o u t   f o r   t i m e  s t e p     401                              ( at time 1.9997999E-01 )

 nodal point  x-disp     y-disp      z-disp      x-vel       y-vel       z-vel      x-accl      y-accl      z-accl      x-coor      y-coor      z-coor
    22626 -5.12773E-05-5.21577E-04-6.23853E-01-1.09743E-03-1.11137E-02-3.11558E+00-1.14519E-02-1.06183E-01 5.16156E-02 4.79641E+01-2.20303E+01 6.71465E+00



 n o d a l   p r i n t   o u t   f o r   t i m e  s t e p     401                              ( at time 1.9997999E-01 )

 nodal point  x-rot      y-rot       z-rot       x-rot vel   y-rot vel   z-rot vel   x-rot acc   y-rot acc   z-rot acc
    22626  4.60694E-07 1.32974E-06 2.50225E-06 2.65119E-06 1.90426E-05 3.49395E-05 1.34408E-05 1.63228E-04 2.97309E-04



 n o d a l   p r i n t   o u t   f o r   t i m e  s t e p     601                              ( at time 2.9996998E-01 )

 nodal point  x-disp     y-disp      z-disp      x-vel       y-vel       z-vel      x-accl      y-accl      z-accl      x-coor      y-coor      z-coor
    22626 -2.42537E-05-1.97558E-03-9.35239E-01 1.67600E-03-1.60174E-02-3.11417E+00 2.77371E-02-4.90423E-02 1.41611E-02 4.79642E+01-2.20318E+01 6.40326E+00



 n o d a l   p r i n t   o u t   f o r   t i m e  s t e p     601                              ( at time 2.9996998E-01 )

 nodal point  x-rot      y-rot       z-rot       x-rot vel   y-rot vel   z-rot vel   x-rot acc   y-rot acc   z-rot acc
    22626  6.74550E-07 2.41181E-06 4.82872E-06 8.17179E-06 5.41157E-06 1.47437E-05 5.52115E-05-1.36324E-04-2.01978E-04



 n o d a l   p r i n t   o u t   f o r   t i m e  s t e p     801                              ( at time 3.9995997E-01 )

 nodal point  x-disp     y-disp      z-disp      x-vel       y-vel       z-vel      x-accl      y-accl      z-accl      x-coor      y-coor      z-coor
    22626  6.57118E-05-3.56218E-03-1.24663E+00 3.05194E-04-1.71781E-02-3.11367E+00-1.37094E-02-1.16084E-02 4.91668E-03 4.79642E+01-2.20334E+01 6.09187E+00



 n o d a l   p r i n t   o u t   f o r   t i m e  s t e p     801                              ( at time 3.9995997E-01 )

 nodal point  x-rot      y-rot       z-rot       x-rot vel   y-rot vel   z-rot vel   x-rot acc   y-rot acc   z-rot acc
    22626  1.55281E-06 3.67611E-06 6.66852E-06 5.55356E-06 2.40844E-05 3.78256E-05-2.61850E-05 1.86747E-04 2.30842E-04



 n o d a l   p r i n t   o u t   f o r   t i m e  s t e p    1001                              ( at time 4.9994997E-01 )

 nodal point  x-disp     y-disp      z-disp      x-vel       y-vel       z-vel      x-accl      y-accl      z-accl      x-coor      y-coor      z-coor
    22626  9.14213E-05-5.58897E-03-1.55785E+00 9.94324E-04-2.34422E-02-3.11111E+00 6.89200E-03-6.26475E-02 2.56230E-02 4.79643E+01-2.20354E+01 5.78065E+00



 n o d a l   p r i n t   o u t   f o r   t i m e  s t e p    1001                              ( at time 4.9994997E-01 )

 nodal point  x-rot      y-rot       z-rot       x-rot vel   y-rot vel   z-rot vel   x-rot acc   y-rot acc   z-rot acc
    22626  1.35783E-06 6.61759E-06 1.17402E-05-6.18834E-06 4.32803E-05 7.06570E-05-1.17431E-04 1.91978E-04 3.28347E-04



 n o d a l   p r i n t   o u t   f o r   t i m e  s t e p    1201                              ( at time 5.9993996E-01 )

 nodal point  x-disp     y-disp      z-disp      x-vel       y-vel       z-vel      x-accl      y-accl      z-accl      x-coor      y-coor      z-coor
    22626  8.81484E-05-8.04277E-03-1.86894E+00-2.83893E-04-2.54825E-02-3.11127E+00-1.27835E-02-2.04044E-02-1.53319E-03 4.79643E+01-2.20378E+01 5.46956E+00



 n o d a l   p r i n t   o u t   f o r   t i m e  s t e p    1201                              ( at time 5.9993996E-01 )

 nodal point  x-rot      y-rot       z-rot       x-rot vel   y-rot vel   z-rot vel   x-rot acc   y-rot acc   z-rot acc
    22626  9.59325E-07 9.77736E-06 1.74652E-05-4.27460E-06 2.51732E-05 5.02254E-05 1.91393E-05-1.81089E-04-2.04337E-04



 n o d a l   p r i n t   o u t   f o r   t i m e  s t e p    1401                              ( at time 6.9992995E-01 )

 nodal point  x-disp     y-disp      z-disp      x-vel       y-vel       z-vel      x-accl      y-accl      z-accl      x-coor      y-coor      z-coor
    22626  9.07334E-05-1.08571E-02-2.17987E+00 1.08842E-03-3.14767E-02-3.10819E+00 1.37245E-02-5.99482E-02 3.07138E-02 4.79643E+01-2.20406E+01 5.15863E+00



 n o d a l   p r i n t   o u t   f o r   t i m e  s t e p    1401                              ( at time 6.9992995E-01 )

 nodal point  x-rot      y-rot       z-rot       x-rot vel   y-rot vel   z-rot vel   x-rot acc   y-rot acc   z-rot acc
    22626  5.53849E-07 1.27593E-05 2.20268E-05-4.92325E-06 3.47037E-05 5.39880E-05-6.48709E-06 9.53150E-05 3.76301E-05



 n o d a l   p r i n t   o u t   f o r   t i m e  s t e p    1601                              ( at time 7.9991994E-01 )

 nodal point  x-disp     y-disp      z-disp      x-vel       y-vel       z-vel      x-accl      y-accl      z-accl      x-coor      y-coor      z-coor
    22626  2.41737E-04-1.43099E-02-2.49055E+00 1.77185E-03-3.55761E-02-3.10678E+00 6.83494E-03-4.09976E-02 1.41277E-02 4.79644E+01-2.20441E+01 4.84795E+00



 n o d a l   p r i n t   o u t   f o r   t i m e  s t e p    1601                              ( at time 7.9991994E-01 )

 nodal point  x-rot      y-rot       z-rot       x-rot vel   y-rot vel   z-rot vel   x-rot acc   y-rot acc   z-rot acc
    22626  1.79362E-07 1.66229E-05 2.84507E-05-5.69017E-07 4.60456E-05 7.07693E-05 4.35467E-05 1.13430E-04 1.67830E-04



 n o d a l   p r i n t   o u t   f o r   t i m e  s t e p    1801                              ( at time 8.9990994E-01 )

 nodal point  x-disp     y-disp      z-disp      x-vel       y-vel       z-vel      x-accl      y-accl      z-accl      x-coor      y-coor      z-coor
    22626  3.58196E-04-1.78093E-02-2.80130E+00-3.28870E-05-3.48972E-02-3.10843E+00-1.80491E-02 6.78917E-03-1.64978E-02 4.79645E+01-2.20476E+01 4.53720E+00



 n o d a l   p r i n t   o u t   f o r   t i m e  s t e p    1801                              ( at time 8.9990994E-01 )

 nodal point  x-rot      y-rot       z-rot       x-rot vel   y-rot vel   z-rot vel   x-rot acc   y-rot acc   z-rot acc
    22626 -2.89288E-07 2.03902E-05 3.47513E-05-7.70848E-06 3.41487E-05 6.06407E-05-7.14018E-05-1.18980E-04-1.01297E-04



 n o d a l   p r i n t   o u t   f o r   t i m e  s t e p    2001                              ( at time 9.9989993E-01 )

 nodal point  x-disp     y-disp      z-disp      x-vel       y-vel       z-vel      x-accl      y-accl      z-accl      x-coor      y-coor      z-coor
    22626  3.15131E-04-2.13623E-02-3.11212E+00-1.76592E-04-3.67047E-02-3.10865E+00-1.43719E-03-1.80768E-02-2.15552E-03 4.79645E+01-2.20512E+01 4.22638E+00



 n o d a l   p r i n t   o u t   f o r   t i m e  s t e p    2001                              ( at time 9.9989993E-01 )

 nodal point  x-rot      y-rot       z-rot       x-rot vel   y-rot vel   z-rot vel   x-rot acc   y-rot acc   z-rot acc
    22626 -1.01389E-06 2.40715E-05 4.09214E-05-6.22240E-06 3.93573E-05 7.33479E-05 1.48623E-05 5.20908E-05 1.27085E-04



 n o d a l   p r i n t   o u t   f o r   t i m e  s t e p    2201                              ( at time 1.0998899E+00 )

 nodal point  x-disp     y-disp      z-disp      x-vel       y-vel       z-vel      x-accl      y-accl      z-accl      x-coor      y-coor      z-coor
    22626  3.60825E-04-2.51224E-02-3.42294E+00 4.54513E-04-3.82119E-02-3.10839E+00 6.31168E-03-1.50730E-02 2.53703E-03 4.79645E+01-2.20549E+01 3.91556E+00



 n o d a l   p r i n t   o u t   f o r   t i m e  s t e p    2201                              ( at time 1.0998899E+00 )

 nodal point  x-rot      y-rot       z-rot       x-rot vel   y-rot vel   z-rot vel   x-rot acc   y-rot acc   z-rot acc
    22626 -1.49001E-06 2.80646E-05 4.80592E-05-1.11665E-06 3.81674E-05 5.86989E-05 5.10626E-05-1.19003E-05-1.46505E-04



 n o d a l   p r i n t   o u t   f o r   t i m e  s t e p    2401                              ( at time 1.1998799E+00 )

 nodal point  x-disp     y-disp      z-disp      x-vel       y-vel       z-vel      x-accl      y-accl      z-accl      x-coor      y-coor      z-coor
    22626  4.69752E-04-2.89181E-02-3.73382E+00 1.36284E-03-3.75131E-02-3.10994E+00 9.08419E-03 6.98826E-03-1.54272E-02 4.79646E+01-2.20587E+01 3.60468E+00



 n o d a l   p r i n t   o u t   f o r   t i m e  s t e p    2401                              ( at time 1.1998799E+00 )

 nodal point  x-rot      y-rot       z-rot       x-rot vel   y-rot vel   z-rot vel   x-rot acc   y-rot acc   z-rot acc
    22626 -1.76842E-06 3.13699E-05 5.32041E-05-2.22753E-06 3.09003E-05 4.80519E-05-1.11099E-05-7.26777E-05-1.06481E-04



 n o d a l   p r i n t   o u t   f o r   t i m e  s t e p    2601                              ( at time 1.2998699E+00 )

 nodal point  x-disp     y-disp      z-disp      x-vel       y-vel       z-vel      x-accl      y-accl      z-accl      x-coor      y-coor      z-coor
    22626  5.34654E-04-3.25105E-02-4.04491E+00 1.08841E-04-3.39108E-02-3.11297E+00-1.25413E-02 3.60267E-02-3.03251E-02 4.79647E+01-2.20623E+01 3.29359E+00



 n o d a l   p r i n t   o u t   f o r   t i m e  s t e p    2601                              ( at time 1.2998699E+00 )

 nodal point  x-rot      y-rot       z-rot       x-rot vel   y-rot vel   z-rot vel   x-rot acc   y-rot acc   z-rot acc
    22626 -2.24637E-06 3.44044E-05 5.80878E-05-1.08568E-05 3.28530E-05 5.76951E-05-8.63017E-05 1.95285E-05 9.64410E-05



 n o d a l   p r i n t   o u t   f o r   t i m e  s t e p    2801                              ( at time 1.3998599E+00 )

 nodal point  x-disp     y-disp      z-disp      x-vel       y-vel       z-vel      x-accl      y-accl      z-accl      x-coor      y-coor      z-coor
    22626  4.87851E-04-3.56341E-02-4.35637E+00-5.31045E-04-2.88585E-02-3.11672E+00-6.39950E-03 5.05277E-02-3.75523E-02 4.79647E+01-2.20654E+01 2.98213E+00



 n o d a l   p r i n t   o u t   f o r   t i m e  s t e p    2801                              ( at time 1.3998599E+00 )

 nodal point  x-rot      y-rot       z-rot       x-rot vel   y-rot vel   z-rot vel   x-rot acc   y-rot acc   z-rot acc
    22626 -3.51397E-06 3.74362E-05 6.33388E-05-1.27457E-05 2.91275E-05 4.48368E-05-1.88906E-05-3.72591E-05-1.28595E-04



 n o d a l   p r i n t   o u t   f o r   t i m e  s t e p    3001                              ( at time 1.4998499E+00 )

 nodal point  x-disp     y-disp      z-disp      x-vel       y-vel       z-vel      x-accl      y-accl      z-accl      x-coor      y-coor      z-coor
    22626  4.53623E-04-3.84154E-02-4.66812E+00 1.50389E-04-2.70046E-02-3.11876E+00 6.81502E-03 1.85407E-02-2.03511E-02 4.79646E+01-2.20682E+01 2.67038E+00



 n o d a l   p r i n t   o u t   f o r   t i m e  s t e p    3001                              ( at time 1.4998499E+00 )

 nodal point  x-rot      y-rot       z-rot       x-rot vel   y-rot vel   z-rot vel   x-rot acc   y-rot acc   z-rot acc
    22626 -4.63756E-06 3.96797E-05 6.68398E-05-9.12457E-06 1.55557E-05 2.65290E-05 3.62150E-05-1.35731E-04-1.83096E-04



 n o d a l   p r i n t   o u t   f o r   t i m e  s t e p    3201                              ( at time 1.5998399E+00 )

 nodal point  x-disp     y-disp      z-disp      x-vel       y-vel       z-vel      x-accl      y-accl      z-accl      x-coor      y-coor      z-coor
    22626  4.61292E-04-4.10291E-02-4.98005E+00-2.17065E-04-2.48737E-02-3.12092E+00-3.67490E-03 2.13111E-02-2.16744E-02 4.79646E+01-2.20708E+01 2.35845E+00



 n o d a l   p r i n t   o u t   f o r   t i m e  s t e p    3201                              ( at time 1.5998399E+00 )

 nodal point  x-rot      y-rot       z-rot       x-rot vel   y-rot vel   z-rot vel   x-rot acc   y-rot acc   z-rot acc
    22626 -5.72164E-06 4.10231E-05 6.85185E-05-8.69407E-06 1.52625E-05 1.44826E-05 4.30544E-06-2.93276E-06-1.20476E-04



 n o d a l   p r i n t   o u t   f o r   t i m e  s t e p    3401                              ( at time 1.6998299E+00 )

 nodal point  x-disp     y-disp      z-disp      x-vel       y-vel       z-vel      x-accl      y-accl      z-accl      x-coor      y-coor      z-coor
    22626  4.28477E-04-4.32892E-02-5.29230E+00-5.39066E-04-1.98785E-02-3.12470E+00-3.22033E-03 4.99570E-02-3.77955E-02 4.79646E+01-2.20731E+01 2.04620E+00



 n o d a l   p r i n t   o u t   f o r   t i m e  s t e p    3401                              ( at time 1.6998299E+00 )

 nodal point  x-rot      y-rot       z-rot       x-rot vel   y-rot vel   z-rot vel   x-rot acc   y-rot acc   z-rot acc
    22626 -6.60506E-06 4.20657E-05 6.99310E-05-1.03742E-05 6.64527E-06 8.77449E-06-1.68032E-05-8.61807E-05-5.70871E-05



 n o d a l   p r i n t   o u t   f o r   t i m e  s t e p    3601                              ( at time 1.7998199E+00 )

 nodal point  x-disp     y-disp      z-disp      x-vel       y-vel       z-vel      x-accl      y-accl      z-accl      x-coor      y-coor      z-coor
    22626  3.80314E-04-4.50331E-02-5.60494E+00-9.00497E-04-1.54456E-02-3.12852E+00-3.61468E-03 4.43343E-02-3.81914E-02 4.79646E+01-2.20748E+01 1.73356E+00



 n o d a l   p r i n t   o u t   f o r   t i m e  s t e p    3601                              ( at time 1.7998199E+00 )

 nodal point  x-rot      y-rot       z-rot       x-rot vel   y-rot vel   z-rot vel   x-rot acc   y-rot acc   z-rot acc
    22626 -7.42696E-06 4.24968E-05 7.07468E-05-7.02685E-06-2.75392E-06 1.11762E-06 3.34771E-05-9.40013E-05-7.65765E-05



 n o d a l   p r i n t   o u t   f o r   t i m e  s t e p    3801                              ( at time 1.8998099E+00 )

 nodal point  x-disp     y-disp      z-disp      x-vel       y-vel       z-vel      x-accl      y-accl      z-accl      x-coor      y-coor      z-coor
    22626  2.39570E-04-4.64768E-02-5.91786E+00-1.79888E-03-1.34628E-02-3.13066E+00-8.98469E-03 1.98292E-02-2.13311E-02 4.79644E+01-2.20763E+01 1.42064E+00



 n o d a l   p r i n t   o u t   f o r   t i m e  s t e p    3801                              ( at time 1.8998099E+00 )

 nodal point  x-rot      y-rot       z-rot       x-rot vel   y-rot vel   z-rot vel   x-rot acc   y-rot acc   z-rot acc
    22626 -8.16621E-06 4.19680E-05 7.00822E-05-2.51907E-06-9.42577E-06-1.41634E-05 4.50823E-05-6.67253E-05-1.52825E-04



 n o d a l   p r i n t   o u t   f o r   t i m e  s t e p    4001                              ( at time 1.9997999E+00 )

 nodal point  x-disp     y-disp      z-disp      x-vel       y-vel       z-vel      x-accl      y-accl      z-accl      x-coor      y-coor      z-coor
    22626  9.87839E-05-4.77225E-02-6.23100E+00-1.42155E-03-1.16349E-02-3.13262E+00 3.77369E-03 1.82811E-02-1.96739E-02 4.79643E+01-2.20775E+01 1.10750E+00



 n o d a l   p r i n t   o u t   f o r   t i m e  s t e p    4001                              ( at time 1.9997999E+00 )

 nodal point  x-rot      y-rot       z-rot       x-rot vel   y-rot vel   z-rot vel   x-rot acc   y-rot acc   z-rot acc
    22626 -8.28364E-06 4.08286E-05 6.81988E-05 5.78580E-07-1.18335E-05-2.24801E-05 3.09796E-05-2.40795E-05-8.31752E-05



 n o d a l   p r i n t   o u t   f o r   t i m e  s t e p    4201                              ( at time 2.0997899E+00 )

 nodal point  x-disp     y-disp      z-disp      x-vel       y-vel       z-vel      x-accl      y-accl      z-accl      x-coor      y-coor      z-coor
    22626 -4.67988E-05-4.87275E-02-6.54437E+00-1.61734E-03-8.50003E-03-3.13539E+00-1.95819E-03 3.13518E-02-2.76259E-02 4.79641E+01-2.20785E+01 7.94127E-01



 n o d a l   p r i n t   o u t   f o r   t i m e  s t e p    4201                              ( at time 2.0997899E+00 )

 nodal point  x-rot      y-rot       z-rot       x-rot vel   y-rot vel   z-rot vel   x-rot acc   y-rot acc   z-rot acc
    22626 -8.27673E-06 3.90385E-05 6.50970E-05-3.96814E-06-2.06952E-05-3.92934E-05-4.54717E-05-8.86257E-05-1.68150E-04



 n o d a l   p r i n t   o u t   f o r   t i m e  s t e p    4401                              ( at time 2.1997798E+00 )

 nodal point  x-disp     y-disp      z-disp      x-vel       y-vel       z-vel      x-accl      y-accl      z-accl      x-coor      y-coor      z-coor
    22626 -2.75789E-04-4.93640E-02-6.85806E+00-2.79068E-03-4.06955E-03-3.13907E+00-1.17345E-02 4.43094E-02-3.68489E-02 4.79639E+01-2.20792E+01 4.80444E-01



 n o d a l   p r i n t   o u t   f o r   t i m e  s t e p    4401                              ( at time 2.1997798E+00 )

 nodal point  x-rot      y-rot       z-rot       x-rot vel   y-rot vel   z-rot vel   x-rot acc   y-rot acc   z-rot acc
    22626 -8.72723E-06 3.67308E-05 6.12393E-05-3.46362E-06-2.35793E-05-3.91644E-05 5.04576E-06-2.88441E-05 1.28990E-06



 n o d a l   p r i n t   o u t   f o r   t i m e  s t e p    4601                              ( at time 2.2997698E+00 )

 nodal point  x-disp     y-disp      z-disp      x-vel       y-vel       z-vel      x-accl      y-accl      z-accl      x-coor      y-coor      z-coor
    22626 -5.97689E-04-4.95597E-02-7.17210E+00-3.70653E-03-5.48580E-04-3.14196E+00-9.15945E-03 3.52132E-02-2.89350E-02 4.79636E+01-2.20793E+01 1.66403E-01



 n o d a l   p r i n t   o u t   f o r   t i m e  s t e p    4601                              ( at time 2.2997698E+00 )

 nodal point  x-rot      y-rot       z-rot       x-rot vel   y-rot vel   z-rot vel   x-rot acc   y-rot acc   z-rot acc
    22626 -9.31882E-06 3.44574E-05 5.74594E-05-6.04704E-06-2.75123E-05-4.45870E-05-2.58368E-05-3.93338E-05-5.42304E-05



 n o d a l   p r i n t   o u t   f o r   t i m e  s t e p    4801                              ( at time 2.3997598E+00 )

 nodal point  x-disp     y-disp      z-disp      x-vel       y-vel       z-vel      x-accl      y-accl      z-accl      x-coor      y-coor      z-coor
    22626 -9.86320E-04-4.95541E-02-7.48634E+00-3.85390E-03 7.99633E-04-3.14377E+00-1.47385E-03 1.34835E-02-1.80310E-02 4.79632E+01-2.20793E+01-1.47842E-01



 n o d a l   p r i n t   o u t   f o r   t i m e  s t e p    4801                              ( at time 2.3997598E+00 )

 nodal point  x-rot      y-rot       z-rot       x-rot vel   y-rot vel   z-rot vel   x-rot acc   y-rot acc   z-rot acc
    22626 -9.96728E-06 3.16306E-05 5.21421E-05-6.88052E-06-2.94810E-05-5.85752E-05-8.33571E-06-1.96889E-05-1.39897E-04



 n o d a l   p r i n t   o u t   f o r   t i m e  s t e p    5001                              ( at time 2.4997498E+00 )

 nodal point  x-disp     y-disp      z-disp      x-vel       y-vel       z-vel      x-accl      y-accl      z-accl      x-coor      y-coor      z-coor
    22626 -1.40902E-03-4.93496E-02-7.80081E+00-4.58971E-03 3.90752E-03-3.14642E+00-7.35880E-03 3.10819E-02-2.65124E-02 4.79628E+01-2.20791E+01-4.62304E-01



 n o d a l   p r i n t   o u t   f o r   t i m e  s t e p    5001                              ( at time 2.4997498E+00 )

 nodal point  x-rot      y-rot       z-rot       x-rot vel   y-rot vel   z-rot vel   x-rot acc   y-rot acc   z-rot acc
    22626 -1.05329E-05 2.83229E-05 4.60704E-05-4.81186E-06-3.46546E-05-6.52610E-05 2.06887E-05-5.17414E-05-6.68641E-05



 n o d a l   p r i n t   o u t   f o r   t i m e  s t e p    5201                              ( at time 2.5997398E+00 )

 nodal point  x-disp     y-disp      z-disp      x-vel       y-vel       z-vel      x-accl      y-accl      z-accl      x-coor      y-coor      z-coor
    22626 -1.92214E-03-4.87629E-02-8.11559E+00-5.69617E-03 7.71289E-03-3.14981E+00-1.10657E-02 3.80576E-02-3.39256E-02 4.79623E+01-2.20786E+01-7.77093E-01



 n o d a l   p r i n t   o u t   f o r   t i m e  s t e p    5201                              ( at time 2.5997398E+00 )

 nodal point  x-rot      y-rot       z-rot       x-rot vel   y-rot vel   z-rot vel   x-rot acc   y-rot acc   z-rot acc
    22626 -1.10072E-05 2.47483E-05 3.95515E-05-5.50266E-06-3.81887E-05-6.82838E-05-6.90874E-06-3.53446E-05-3.02312E-05



 n o d a l   p r i n t   o u t   f o r   t i m e  s t e p    5401                              ( at time 2.6997298E+00 )

 nodal point  x-disp     y-disp      z-disp      x-vel       y-vel       z-vel      x-accl      y-accl      z-accl      x-coor      y-coor      z-coor
    22626 -2.53698E-03-4.78047E-02-8.43071E+00-6.77246E-03 1.10626E-02-3.15308E+00-1.07639E-02 3.35000E-02-3.26976E-02 4.79616E+01-2.20776E+01-1.09221E+00



 n o d a l   p r i n t   o u t   f o r   t i m e  s t e p    5401                              ( at time 2.6997298E+00 )

 nodal point  x-rot      y-rot       z-rot       x-rot vel   y-rot vel   z-rot vel   x-rot acc   y-rot acc   z-rot acc
    22626 -1.14008E-05 2.09945E-05 3.27122E-05-2.48337E-06-3.98094E-05-6.86547E-05 3.01959E-05-1.62085E-05-3.70943E-06



 n o d a l   p r i n t   o u t   f o r   t i m e  s t e p    5601                              ( at time 2.7997198E+00 )

 nodal point  x-disp     y-disp      z-disp      x-vel       y-vel       z-vel      x-accl      y-accl      z-accl      x-coor      y-coor      z-coor
    22626 -3.26779E-03-4.65978E-02-8.74609E+00-7.67666E-03 1.27925E-02-3.15495E+00-9.04296E-03 1.73015E-02-1.87130E-02 4.79609E+01-2.20764E+01-1.40759E+00



 n o d a l   p r i n t   o u t   f o r   t i m e  s t e p    5601                              ( at time 2.7997198E+00 )

 nodal point  x-rot      y-rot       z-rot       x-rot vel   y-rot vel   z-rot vel   x-rot acc   y-rot acc   z-rot acc
    22626 -1.15312E-05 1.66235E-05 2.49267E-05 1.14482E-06-4.89221E-05-8.94363E-05 3.62856E-05-9.11363E-05-2.07837E-04



 n o d a l   p r i n t   o u t   f o r   t i m e  s t e p    5801                              ( at time 2.8997098E+00 )

 nodal point  x-disp     y-disp      z-disp      x-vel       y-vel       z-vel      x-accl      y-accl      z-accl      x-coor      y-coor      z-coor
    22626 -4.03942E-03-4.52756E-02-9.06164E+00-7.79242E-03 1.37065E-02-3.15657E+00-1.15772E-03 9.14045E-03-1.62236E-02 4.79601E+01-2.20751E+01-1.72314E+00



 n o d a l   p r i n t   o u t   f o r   t i m e  s t e p    5801                              ( at time 2.8997098E+00 )

 nodal point  x-rot      y-rot       z-rot       x-rot vel   y-rot vel   z-rot vel   x-rot acc   y-rot acc   z-rot acc
    22626 -1.12693E-05 1.15410E-05 1.56497E-05 3.01543E-06-5.06757E-05-9.53265E-05 1.87080E-05-1.75377E-05-5.89080E-05



 n o d a l   p r i n t   o u t   f o r   t i m e  s t e p    6001                              ( at time 2.9996998E+00 )

 nodal point  x-disp     y-disp      z-disp      x-vel       y-vel       z-vel      x-accl      y-accl      z-accl      x-coor      y-coor      z-coor
    22626 -4.85513E-03-4.37852E-02-9.37737E+00-8.65163E-03 1.62050E-02-3.15891E+00-8.59288E-03 2.49880E-02-2.33506E-02 4.79593E+01-2.20736E+01-2.03887E+00



 n o d a l   p r i n t   o u t   f o r   t i m e  s t e p    6001                              ( at time 2.9996998E+00 )

 nodal point  x-rot      y-rot       z-rot       x-rot vel   y-rot vel   z-rot vel   x-rot acc   y-rot acc   z-rot acc
    22626 -1.10217E-05 6.51122E-06 6.41040E-06 1.41893E-06-5.16350E-05-9.56142E-05-1.59666E-05-9.59408E-06-2.87691E-06



 n o d a l   p r i n t   o u t   f o r   t i m e  s t e p    6201                              ( at time 3.0996898E+00 )

 nodal point  x-disp     y-disp      z-disp      x-vel       y-vel       z-vel      x-accl      y-accl      z-accl      x-coor      y-coor      z-coor
    22626 -5.78863E-03-4.20706E-02-9.69333E+00-9.91852E-03 1.77664E-02-3.16072E+00-1.26702E-02 1.56153E-02-1.80906E-02 4.79584E+01-2.20719E+01-2.35483E+00



 n o d a l   p r i n t   o u t   f o r   t i m e  s t e p    6201                              ( at time 3.0996898E+00 )

 nodal point  x-rot      y-rot       z-rot       x-rot vel   y-rot vel   z-rot vel   x-rot acc   y-rot acc   z-rot acc
    22626 -1.09579E-05 1.43877E-06-3.12710E-06-8.43783E-07-5.05600E-05-9.86729E-05-2.26294E-05 1.07511E-05-3.05906E-05



 n o d a l   p r i n t   o u t   f o r   t i m e  s t e p    6401                              ( at time 3.1996798E+00 )

 nodal point  x-disp     y-disp      z-disp      x-vel       y-vel       z-vel      x-accl      y-accl      z-accl      x-coor      y-coor      z-coor
    22626 -6.79548E-03-4.03149E-02-1.00094E+01-1.01751E-02 1.70207E-02-3.16129E+00-2.56635E-03-7.45810E-03-5.75122E-03 4.79574E+01-2.20701E+01-2.67092E+00



 n o d a l   p r i n t   o u t   f o r   t i m e  s t e p    6401                              ( at time 3.1996798E+00 )

 nodal point  x-rot      y-rot       z-rot       x-rot vel   y-rot vel   z-rot vel   x-rot acc   y-rot acc   z-rot acc
    22626 -1.10634E-05-3.91033E-06-1.29970E-05-1.62245E-06-5.53771E-05-1.02257E-04-7.78742E-06-4.81753E-05-3.58413E-05



 n o d a l   p r i n t   o u t   f o r   t i m e  s t e p    6601                              ( at time 3.2996698E+00 )

 nodal point  x-disp     y-disp      z-disp      x-vel       y-vel       z-vel      x-accl      y-accl      z-accl      x-coor      y-coor      z-coor
    22626 -7.82106E-03-3.87098E-02-1.03255E+01-1.03608E-02 1.50835E-02-3.16099E+00-1.85698E-03-1.93734E-02 2.98769E-03 4.79564E+01-2.20685E+01-2.98700E+00



 n o d a l   p r i n t   o u t   f o r   t i m e  s t e p    6601                              ( at time 3.2996698E+00 )

 nodal point  x-rot      y-rot       z-rot       x-rot vel   y-rot vel   z-rot vel   x-rot acc   y-rot acc   z-rot acc
    22626 -1.11341E-05-9.35768E-06-2.31463E-05-3.78239E-08-5.42863E-05-1.00904E-04 1.58478E-05 1.09083E-05 1.35332E-05



 n o d a l   p r i n t   o u t   f o r   t i m e  s t e p    6801                              ( at time 3.3996598E+00 )

 nodal point  x-disp     y-disp      z-disp      x-vel       y-vel       z-vel      x-accl      y-accl      z-accl      x-coor      y-coor      z-coor
    22626 -8.88306E-03-3.72697E-02-1.06416E+01-1.08201E-02 1.37395E-02-3.16118E+00-4.59353E-03-1.34415E-02-1.90992E-03 4.79553E+01-2.20671E+01-3.30307E+00



 n o d a l   p r i n t   o u t   f o r   t i m e  s t e p    6801                              ( at time 3.3996598E+00 )

 nodal point  x-rot      y-rot       z-rot       x-rot vel   y-rot vel   z-rot vel   x-rot acc   y-rot acc   z-rot acc
    22626 -1.10156E-05-1.47223E-05-3.33443E-05-2.08793E-06-5.22177E-05-1.01537E-04-2.05031E-05 2.06887E-05-6.33216E-06



 n o d a l   p r i n t   o u t   f o r   t i m e  s t e p    7001                              ( at time 3.4996498E+00 )

 nodal point  x-disp     y-disp      z-disp      x-vel       y-vel       z-vel      x-accl      y-accl      z-accl      x-coor      y-coor      z-coor
    22626 -9.98679E-03-3.59490E-02-1.09577E+01-1.13227E-02 1.25579E-02-3.16162E+00-5.02674E-03-1.18174E-02-4.39927E-03 4.79542E+01-2.20657E+01-3.61919E+00



 n o d a l   p r i n t   o u t   f o r   t i m e  s t e p    7001                              ( at time 3.4996498E+00 )

 nodal point  x-rot      y-rot       z-rot       x-rot vel   y-rot vel   z-rot vel   x-rot acc   y-rot acc   z-rot acc
    22626 -1.09115E-05-1.99381E-05-4.30467E-05 2.24971E-06-5.27850E-05-9.56903E-05 4.33808E-05-5.67386E-06 5.84700E-05



 n o d a l   p r i n t   o u t   f o r   t i m e  s t e p    7201                              ( at time 3.5996397E+00 )

 nodal point  x-disp     y-disp      z-disp      x-vel       y-vel       z-vel      x-accl      y-accl      z-accl      x-coor      y-coor      z-coor
    22626 -1.11318E-02-3.47866E-02-1.12738E+01-1.13405E-02 1.04400E-02-3.16156E+00-1.77454E-04-2.11814E-02 6.08029E-04 4.79530E+01-2.20646E+01-3.93532E+00



 n o d a l   p r i n t   o u t   f o r   t i m e  s t e p    7201                              ( at time 3.5996397E+00 )

 nodal point  x-rot      y-rot       z-rot       x-rot vel   y-rot vel   z-rot vel   x-rot acc   y-rot acc   z-rot acc
    22626 -1.07145E-05-2.51389E-05-5.23182E-05 3.58703E-06-5.06151E-05-8.68798E-05 1.33745E-05 2.17016E-05 8.81134E-05



 n o d a l   p r i n t   o u t   f o r   t i m e  s t e p    7401                              ( at time 3.6996297E+00 )

 nodal point  x-disp     y-disp      z-disp      x-vel       y-vel       z-vel      x-accl      y-accl      z-accl      x-coor      y-coor      z-coor
    22626 -1.22486E-02-3.38924E-02-1.15899E+01-1.10005E-02 7.38765E-03-3.16076E+00 3.40013E-03-3.05261E-02 8.05219E-03 4.79519E+01-2.20637E+01-4.25141E+00



 n o d a l   p r i n t   o u t   f o r   t i m e  s t e p    7401                              ( at time 3.6996297E+00 )

 nodal point  x-rot      y-rot       z-rot       x-rot vel   y-rot vel   z-rot vel   x-rot acc   y-rot acc   z-rot acc
    22626 -1.03418E-05-3.00385E-05-6.10429E-05 4.70221E-06-4.78086E-05-8.69819E-05 1.11529E-05 2.80676E-05-1.02121E-06



 n o d a l   p r i n t   o u t   f o r   t i m e  s t e p    7601                              ( at time 3.7996197E+00 )

 nodal point  x-disp     y-disp      z-disp      x-vel       y-vel       z-vel      x-accl      y-accl      z-accl      x-coor      y-coor      z-coor
    22626 -1.33206E-02-3.32726E-02-1.19059E+01-1.05144E-02 5.24336E-03-3.16034E+00 4.86191E-03-2.14451E-02 4.19421E-03 4.79509E+01-2.20631E+01-4.56742E+00



 n o d a l   p r i n t   o u t   f o r   t i m e  s t e p    7601                              ( at time 3.7996197E+00 )

 nodal point  x-rot      y-rot       z-rot       x-rot vel   y-rot vel   z-rot vel   x-rot acc   y-rot acc   z-rot acc
    22626 -9.68605E-06-3.44638E-05-6.91872E-05 7.07287E-06-3.83368E-05-7.08348E-05 2.37090E-05 9.47268E-05 1.61487E-04



 n o d a l   p r i n t   o u t   f o r   t i m e  s t e p    7801                              ( at time 3.8996097E+00 )

 nodal point  x-disp     y-disp      z-disp      x-vel       y-vel       z-vel      x-accl      y-accl      z-accl      x-coor      y-coor      z-coor
    22626 -1.43483E-02-3.28065E-02-1.22219E+01-9.96137E-03 4.16716E-03-3.16069E+00 5.53052E-03-1.07630E-02-3.53610E-03 4.79498E+01-2.20626E+01-4.88344E+00



 n o d a l   p r i n t   o u t   f o r   t i m e  s t e p    7801                              ( at time 3.8996097E+00 )

 nodal point  x-rot      y-rot       z-rot       x-rot vel   y-rot vel   z-rot vel   x-rot acc   y-rot acc   z-rot acc
    22626 -9.22533E-06-3.78253E-05-7.53485E-05 1.06985E-06-2.71366E-05-4.89896E-05-6.00361E-05 1.12014E-04 2.18474E-04



 n o d a l   p r i n t   o u t   f o r   t i m e  s t e p    8001                              ( at time 3.9995997E+00 )

 nodal point  x-disp     y-disp      z-disp      x-vel       y-vel       z-vel      x-accl      y-accl      z-accl      x-coor      y-coor      z-coor
    22626 -1.53102E-02-3.24419E-02-1.25380E+01-9.21666E-03 3.07495E-03-3.16109E+00 7.44783E-03-1.09232E-02-3.98438E-03 4.79489E+01-2.20622E+01-5.19950E+00



 n o d a l   p r i n t   o u t   f o r   t i m e  s t e p    8001                              ( at time 3.9995997E+00 )

 nodal point  x-rot      y-rot       z-rot       x-rot vel   y-rot vel   z-rot vel   x-rot acc   y-rot acc   z-rot acc
    22626 -9.09026E-06-4.01273E-05-7.95454E-05 9.34013E-07-1.84091E-05-3.60654E-05-1.35850E-06 8.72837E-05 1.29255E-04



 n o d a l   p r i n t   o u t   f o r   t i m e  s t e p    8201                              ( at time 4.0995897E+00 )

 nodal point  x-disp     y-disp      z-disp      x-vel       y-vel       z-vel      x-accl      y-accl      z-accl      x-coor      y-coor      z-coor
    22626 -1.61556E-02-3.22279E-02-1.28541E+01-7.61870E-03 9.83385E-04-3.16072E+00 1.59812E-02-2.09178E-02 3.74116E-03 4.79480E+01-2.20620E+01-5.51556E+00



 n o d a l   p r i n t   o u t   f o r   t i m e  s t e p    8201                              ( at time 4.0995897E+00 )

 nodal point  x-rot      y-rot       z-rot       x-rot vel   y-rot vel   z-rot vel   x-rot acc   y-rot acc   z-rot acc
    22626 -9.08857E-06-4.14052E-05-8.21738E-05-2.19975E-07-3.74498E-06-1.26818E-05-1.15410E-05 1.46656E-04 2.33859E-04



 n o d a l   p r i n t   o u t   f o r   t i m e  s t e p    8401                              ( at time 4.1995797E+00 )

 nodal point  x-disp     y-disp      z-disp      x-vel       y-vel       z-vel      x-accl      y-accl      z-accl      x-coor      y-coor      z-coor
    22626 -1.68404E-02-3.22358E-02-1.31701E+01-5.90794E-03-1.05585E-03-3.16032E+00 1.71093E-02-2.03945E-02 3.92954E-03 4.79473E+01-2.20620E+01-5.83158E+00



 n o d a l   p r i n t   o u t   f o r   t i m e  s t e p    8401                              ( at time 4.1995797E+00 )

 nodal point  x-rot      y-rot       z-rot       x-rot vel   y-rot vel   z-rot vel   x-rot acc   y-rot acc   z-rot acc
    22626 -9.10722E-06-4.11265E-05-8.22024E-05-9.34656E-07 1.14153E-05 1.51805E-05-7.14754E-06 1.51618E-04 2.78651E-04



 n o d a l   p r i n t   o u t   f o r   t i m e  s t e p    8601                              ( at time 4.2995697E+00 )

 nodal point  x-disp     y-disp      z-disp      x-vel       y-vel       z-vel      x-accl      y-accl      z-accl      x-coor      y-coor      z-coor
    22626 -1.73711E-02-3.24289E-02-1.34861E+01-4.56530E-03-2.50719E-03-3.16057E+00 1.34278E-02-1.45148E-02-2.49173E-03 4.79468E+01-2.20622E+01-6.14758E+00



 n o d a l   p r i n t   o u t   f o r   t i m e  s t e p    8601                              ( at time 4.2995697E+00 )

 nodal point  x-rot      y-rot       z-rot       x-rot vel   y-rot vel   z-rot vel   x-rot acc   y-rot acc   z-rot acc
    22626 -9.29062E-06-3.92397E-05-7.95140E-05-3.24132E-06 2.47496E-05 3.95347E-05-2.30689E-05 1.33356E-04 2.43567E-04



 n o d a l   p r i n t   o u t   f o r   t i m e  s t e p    8801                              ( at time 4.3995597E+00 )

 nodal point  x-disp     y-disp      z-disp      x-vel       y-vel       z-vel      x-accl      y-accl      z-accl      x-coor      y-coor      z-coor
    22626 -1.77449E-02-3.27103E-02-1.38021E+01-2.86978E-03-3.34005E-03-3.16120E+00 1.69569E-02-8.32949E-03-6.29250E-03 4.79464E+01-2.20625E+01-6.46364E+00



 n o d a l   p r i n t   o u t   f o r   t i m e  s t e p    8801                              ( at time 4.3995597E+00 )

 nodal point  x-rot      y-rot       z-rot       x-rot vel   y-rot vel   z-rot vel   x-rot acc   y-rot acc   z-rot acc
    22626 -9.58736E-06-3.59518E-05-7.41189E-05-2.95872E-06 4.02672E-05 6.64182E-05 2.82629E-06 1.55192E-04 2.68863E-04



 n o d a l   p r i n t   o u t   f o r   t i m e  s t e p    9001                              ( at time 4.4995497E+00 )

 nodal point  x-disp     y-disp      z-disp      x-vel       y-vel       z-vel      x-accl      y-accl      z-accl      x-coor      y-coor      z-coor
    22626 -1.79384E-02-3.31424E-02-1.41182E+01-9.81892E-04-5.53679E-03-3.16083E+00 1.88807E-02-2.19696E-02 3.68154E-03 4.79462E+01-2.20629E+01-6.77971E+00



 n o d a l   p r i n t   o u t   f o r   t i m e  s t e p    9001                              ( at time 4.4995497E+00 )

 nodal point  x-rot      y-rot       z-rot       x-rot vel   y-rot vel   z-rot vel   x-rot acc   y-rot acc   z-rot acc
    22626 -9.82934E-06-3.08739E-05-6.56991E-05-5.24995E-07 5.81802E-05 9.72698E-05 2.43396E-05 1.79147E-04 3.08546E-04



 n o d a l   p r i n t   o u t   f o r   t i m e  s t e p    9201                              ( at time 4.5995397E+00 )

 nodal point  x-disp     y-disp      z-disp      x-vel       y-vel       z-vel      x-accl      y-accl      z-accl      x-coor      y-coor      z-coor
    22626 -1.79401E-02-3.38268E-02-1.44342E+01 9.10752E-04-8.08457E-03-3.16043E+00 1.89283E-02-2.54803E-02 4.03683E-03 4.79462E+01-2.20636E+01-7.09574E+00



 n o d a l   p r i n t   o u t   f o r   t i m e  s t e p    9201                              ( at time 4.5995397E+00 )

 nodal point  x-rot      y-rot       z-rot       x-rot vel   y-rot vel   z-rot vel   x-rot acc   y-rot acc   z-rot acc
    22626 -1.00546E-05-2.43751E-05-5.47394E-05-1.60110E-06 7.07896E-05 1.18861E-04-1.07622E-05 1.26107E-04 2.15934E-04



 n o d a l   p r i n t   o u t   f o r   t i m e  s t e p    9401                              ( at time 4.6995297E+00 )

 nodal point  x-disp     y-disp      z-disp      x-vel       y-vel       z-vel      x-accl      y-accl      z-accl      x-coor      y-coor      z-coor
    22626 -1.77375E-02-3.47098E-02-1.47503E+01 3.11404E-03-9.48079E-03-3.16045E+00 2.20352E-02-1.39637E-02-1.81216E-04 4.79464E+01-2.20645E+01-7.41175E+00



 n o d a l   p r i n t   o u t   f o r   t i m e  s t e p    9401                              ( at time 4.6995297E+00 )

 nodal point  x-rot      y-rot       z-rot       x-rot vel   y-rot vel   z-rot vel   x-rot acc   y-rot acc   z-rot acc
    22626 -1.03758E-05-1.64702E-05-4.12641E-05-5.37435E-06 8.86966E-05 1.50666E-04-3.77363E-05 1.79089E-04 3.18081E-04



 n o d a l   p r i n t   o u t   f o r   t i m e  s t e p    9601                              ( at time 4.7995197E+00 )

 nodal point  x-disp     y-disp      z-disp      x-vel       y-vel       z-vel      x-accl      y-accl      z-accl      x-coor      y-coor      z-coor
    22626 -1.73329E-02-3.57092E-02-1.50663E+01 4.92011E-03-1.04593E-02-3.16083E+00 1.80625E-02-9.78649E-03-3.81747E-03 4.79468E+01-2.20655E+01-7.72779E+00



 n o d a l   p r i n t   o u t   f o r   t i m e  s t e p    9601                              ( at time 4.7995197E+00 )

 nodal point  x-rot      y-rot       z-rot       x-rot vel   y-rot vel   z-rot vel   x-rot acc   y-rot acc   z-rot acc
    22626 -1.09668E-05-6.73608E-06-2.46638E-05-9.17760E-06 1.06399E-04 1.82300E-04-3.80364E-05 1.77039E-04 3.16377E-04



 n o d a l   p r i n t   o u t   f o r   t i m e  s t e p    9801                              ( at time 4.8995097E+00 )

 nodal point  x-disp     y-disp      z-disp      x-vel       y-vel       z-vel      x-accl      y-accl      z-accl      x-coor      y-coor      z-coor
    22626 -1.67518E-02-3.68199E-02-1.53823E+01 6.75735E-03-1.18126E-02-3.16095E+00 1.83743E-02-1.35334E-02-1.22083E-03 4.79474E+01-2.20666E+01-8.04385E+00



 n o d a l   p r i n t   o u t   f o r   t i m e  s t e p    9801                              ( at time 4.8995097E+00 )

 nodal point  x-rot      y-rot       z-rot       x-rot vel   y-rot vel   z-rot vel   x-rot acc   y-rot acc   z-rot acc
    22626 -1.18224E-05 4.54890E-06-5.36510E-06-1.03015E-05 1.18069E-04 2.01239E-04-1.12397E-05 1.16713E-04 1.89406E-04



 n o d a l   p r i n t   o u t   f o r   t i m e  s t e p   10001                              ( at time 4.9994997E+00 )

 nodal point  x-disp     y-disp      z-disp      x-vel       y-vel       z-vel      x-accl      y-accl      z-accl      x-coor      y-coor      z-coor
    22626 -1.59621E-02-3.80940E-02-1.56984E+01 8.89525E-03-1.36880E-02-3.16078E+00 2.13811E-02-1.87559E-02 1.71201E-03 4.79482E+01-2.20679E+01-8.35991E+00



 n o d a l   p r i n t   o u t   f o r   t i m e  s t e p   10001                              ( at time 4.9994997E+00 )

 nodal point  x-rot      y-rot       z-rot       x-rot vel   y-rot vel   z-rot vel   x-rot acc   y-rot acc   z-rot acc
    22626 -1.28988E-05 1.68850E-05 1.58875E-05-1.05730E-05 1.28791E-04 2.24193E-04-2.71569E-06 1.07232E-04 2.29565E-04



 n o d a l   p r i n t   o u t   f o r   t i m e  s t e p   10202                              ( at time 5.0999896E+00 )

 nodal point  x-disp     y-disp      z-disp      x-vel       y-vel       z-vel      x-accl      y-accl      z-accl      x-coor      y-coor      z-coor
    22626 -1.49628E-02-3.95277E-02-1.60160E+01 1.09310E-02-1.46950E-02-3.16100E+00 2.02585E-02-1.00218E-02-2.24208E-03 4.79492E+01-2.20693E+01-8.67754E+00



 n o d a l   p r i n t   o u t   f o r   t i m e  s t e p   10202                              ( at time 5.0999896E+00 )

 nodal point  x-rot      y-rot       z-rot       x-rot vel   y-rot vel   z-rot vel   x-rot acc   y-rot acc   z-rot acc
    22626 -1.39870E-05 3.05921E-05 3.95432E-05-1.15573E-05 1.41416E-04 2.45324E-04-9.79504E-06 1.25636E-04 2.10272E-04



 n o d a l   p r i n t   o u t   f o r   t i m e  s t e p   10402                              ( at time 5.1999796E+00 )

 nodal point  x-disp     y-disp      z-disp      x-vel       y-vel       z-vel      x-accl      y-accl      z-accl      x-coor      y-coor      z-coor
    22626 -1.37951E-02-4.10011E-02-1.63322E+01 1.23010E-02-1.44591E-02-3.16213E+00 1.37007E-02 2.35991E-03-1.12163E-02 4.79504E+01-2.20708E+01-8.99365E+00



 n o d a l   p r i n t   o u t   f o r   t i m e  s t e p   10402                              ( at time 5.1999796E+00 )

 nodal point  x-rot      y-rot       z-rot       x-rot vel   y-rot vel   z-rot vel   x-rot acc   y-rot acc   z-rot acc
    22626 -1.51594E-05 4.53539E-05 6.49698E-05-1.28218E-05 1.50877E-04 2.61796E-04-1.26463E-05 9.46175E-05 1.64735E-04



 n o d a l   p r i n t   o u t   f o r   t i m e  s t e p   10602                              ( at time 5.2999696E+00 )

 nodal point  x-disp     y-disp      z-disp      x-vel       y-vel       z-vel      x-accl      y-accl      z-accl      x-coor      y-coor      z-coor
    22626 -1.25089E-02-4.24165E-02-1.66484E+01 1.33213E-02-1.40448E-02-3.16338E+00 1.02048E-02 4.14363E-03-1.25063E-02 4.79517E+01-2.20722E+01-9.30991E+00



 n o d a l   p r i n t   o u t   f o r   t i m e  s t e p   10602                              ( at time 5.2999696E+00 )

 nodal point  x-rot      y-rot       z-rot       x-rot vel   y-rot vel   z-rot vel   x-rot acc   y-rot acc   z-rot acc
    22626 -1.63353E-05 6.08147E-05 9.17959E-05-1.27726E-05 1.56762E-04 2.73430E-04 4.91841E-07 5.88532E-05 1.16359E-04



 n o d a l   p r i n t   o u t   f o r   t i m e  s t e p   10802                              ( at time 5.3999596E+00 )

 nodal point  x-disp     y-disp      z-disp      x-vel       y-vel       z-vel      x-accl      y-accl      z-accl      x-coor      y-coor      z-coor
    22626 -1.11118E-02-4.37995E-02-1.69648E+01 1.45944E-02-1.35524E-02-3.16470E+00 1.27323E-02 4.92424E-03-1.31859E-02 4.79531E+01-2.20736E+01-9.62628E+00



 n o d a l   p r i n t   o u t   f o r   t i m e  s t e p   10802                              ( at time 5.3999596E+00 )

 nodal point  x-rot      y-rot       z-rot       x-rot vel   y-rot vel   z-rot vel   x-rot acc   y-rot acc   z-rot acc
    22626 -1.73705E-05 7.66443E-05 1.19469E-04-8.76222E-06 1.59434E-04 2.76039E-04 4.01082E-05 2.67280E-05 2.60861E-05



 n o d a l   p r i n t   o u t   f o r   t i m e  s t e p   11002                              ( at time 5.4999496E+00 )

 nodal point  x-disp     y-disp      z-disp      x-vel       y-vel       z-vel      x-accl      y-accl      z-accl      x-coor      y-coor      z-coor
    22626 -9.57698E-03-4.51102E-02-1.72813E+01 1.61002E-02-1.28467E-02-3.16576E+00 1.50596E-02 7.05748E-03-1.06536E-02 4.79546E+01-2.20749E+01-9.94279E+00



 n o d a l   p r i n t   o u t   f o r   t i m e  s t e p   11002                              ( at time 5.4999496E+00 )

 nodal point  x-rot      y-rot       z-rot       x-rot vel   y-rot vel   z-rot vel   x-rot acc   y-rot acc   z-rot acc
    22626 -1.84652E-05 9.27257E-05 1.47727E-04-1.32501E-05 1.62772E-04 2.88923E-04-4.48835E-05 3.33846E-05 1.28860E-04



 n o d a l   p r i n t   o u t   f o r   t i m e  s t e p   11202                              ( at time 5.5999396E+00 )

 nodal point  x-disp     y-disp      z-disp      x-vel       y-vel       z-vel      x-accl      y-accl      z-accl      x-coor      y-coor      z-coor
    22626 -7.92296E-03-4.62948E-02-1.75978E+01 1.70522E-02-1.03138E-02-3.16393E+00 9.52081E-03 2.53319E-02 1.83005E-02 4.79563E+01-2.20761E+01-1.02593E+01



 n o d a l   p r i n t   o u t   f o r   t i m e  s t e p   11202                              ( at time 5.5999396E+00 )

 nodal point  x-rot      y-rot       z-rot       x-rot vel   y-rot vel   z-rot vel   x-rot acc   y-rot acc   z-rot acc
    22626 -1.84601E-05 1.09195E-04 1.76744E-04 2.59103E-05 1.65430E-04 2.86736E-04 3.91644E-04 2.65775E-05-2.18767E-05



 n o d a l   p r i n t   o u t   f o r   t i m e  s t e p   11402                              ( at time 5.6999296E+00 )

 nodal point  x-disp     y-disp      z-disp      x-vel       y-vel       z-vel      x-accl      y-accl      z-accl      x-coor      y-coor      z-coor
    22626 -6.14637E-03-4.71245E-02-1.79139E+01 1.82732E-02-6.16383E-03-3.15885E+00 1.22107E-02 4.15034E-02 5.07618E-02 4.79580E+01-2.20769E+01-1.05754E+01



 n o d a l   p r i n t   o u t   f o r   t i m e  s t e p   11402                              ( at time 5.6999296E+00 )

 nodal point  x-rot      y-rot       z-rot       x-rot vel   y-rot vel   z-rot vel   x-rot acc   y-rot acc   z-rot acc
    22626 -1.20873E-05 1.26130E-04 2.05223E-04 1.05478E-04 1.72609E-04 2.76086E-04 7.95752E-04 7.17982E-05-1.06503E-04



 n o d a l   p r i n t   o u t   f o r   t i m e  s t e p   11602                              ( at time 5.7999195E+00 )

 nodal point  x-disp     y-disp      z-disp      x-vel       y-vel       z-vel      x-accl      y-accl      z-accl      x-coor      y-coor      z-coor
    22626 -4.20271E-03-4.76040E-02-1.82293E+01 2.06291E-02-3.47437E-03-3.14915E+00 2.35612E-02 2.68973E-02 9.70271E-02 4.79600E+01-2.20774E+01-1.08908E+01



 n o d a l   p r i n t   o u t   f o r   t i m e  s t e p   11602                              ( at time 5.7999195E+00 )

 nodal point  x-rot      y-rot       z-rot       x-rot vel   y-rot vel   z-rot vel   x-rot acc   y-rot acc   z-rot acc
    22626  3.29312E-06 1.43804E-04 2.32805E-04 2.08118E-04 1.80729E-04 2.73208E-04 1.02651E-03 8.12091E-05-2.87837E-05



 n o d a l   p r i n t   o u t   f o r   t i m e  s t e p   11802                              ( at time 5.8999095E+00 )

 nodal point  x-disp     y-disp      z-disp      x-vel       y-vel       z-vel      x-accl      y-accl      z-accl      x-coor      y-coor      z-coor
    22626 -2.03209E-03-4.78119E-02-1.85435E+01 2.29157E-02-4.09589E-04-3.13520E+00 2.28688E-02 3.06509E-02 1.39513E-01 4.79621E+01-2.20776E+01-1.12050E+01



 n o d a l   p r i n t   o u t   f o r   t i m e  s t e p   11802                              ( at time 5.8999095E+00 )

 nodal point  x-rot      y-rot       z-rot       x-rot vel   y-rot vel   z-rot vel   x-rot acc   y-rot acc   z-rot acc
    22626  3.08363E-05 1.62311E-04 2.59689E-04 3.44209E-04 1.89979E-04 2.70294E-04 1.36104E-03 9.25115E-05-2.91464E-05



 n o d a l   p r i n t   o u t   f o r   t i m e  s t e p   12002                              ( at time 5.9998995E+00 )

 nodal point  x-disp     y-disp      z-disp      x-vel       y-vel       z-vel      x-accl      y-accl      z-accl      x-coor      y-coor      z-coor
    22626  3.71599E-04-4.76761E-02-1.88561E+01 2.52294E-02 3.39160E-03-3.11738E+00 2.31387E-02 3.80158E-02 1.78207E-01 4.79646E+01-2.20775E+01-1.15176E+01



 n o d a l   p r i n t   o u t   f o r   t i m e  s t e p   12002                              ( at time 5.9998995E+00 )

 nodal point  x-rot      y-rot       z-rot       x-rot vel   y-rot vel   z-rot vel   x-rot acc   y-rot acc   z-rot acc
    22626  7.36282E-05 1.81722E-04 2.85710E-04 5.19501E-04 1.97868E-04 2.51723E-04 1.75310E-03 7.88955E-05-1.85730E-04



 n o d a l   p r i n t   o u t   f o r   t i m e  s t e p   12202                              ( at time 6.0998895E+00 )

 nodal point  x-disp     y-disp      z-disp      x-vel       y-vel       z-vel      x-accl      y-accl      z-accl      x-coor      y-coor      z-coor
    22626  2.99402E-03-4.71490E-02-1.91668E+01 2.69372E-02 7.32239E-03-3.09509E+00 1.70803E-02 3.93117E-02 2.22919E-01 4.79672E+01-2.20769E+01-1.18283E+01



 n o d a l   p r i n t   o u t   f o r   t i m e  s t e p   12202                              ( at time 6.0998895E+00 )

 nodal point  x-rot      y-rot       z-rot       x-rot vel   y-rot vel   z-rot vel   x-rot acc   y-rot acc   z-rot acc
    22626  1.35501E-04 2.02248E-04 3.10064E-04 7.22945E-04 2.15901E-04 2.33839E-04 2.03463E-03 1.80342E-04-1.78854E-04



 n o d a l   p r i n t   o u t   f o r   t i m e  s t e p   12402                              ( at time 6.1998795E+00 )

 nodal point  x-disp     y-disp      z-disp      x-vel       y-vel       z-vel      x-accl      y-accl      z-accl      x-coor      y-coor      z-coor
    22626  5.81412E-03-4.62495E-02-1.94749E+01 2.92394E-02 1.07849E-02-3.06810E+00 2.30244E-02 3.46284E-02 2.69982E-01 4.79700E+01-2.20760E+01-1.21364E+01



 n o d a l   p r i n t   o u t   f o r   t i m e  s t e p   12402                              ( at time 6.1998795E+00 )

 nodal point  x-rot      y-rot       z-rot       x-rot vel   y-rot vel   z-rot vel   x-rot acc   y-rot acc   z-rot acc
    22626  2.20081E-04 2.26327E-04 3.32381E-04 9.79254E-04 2.67520E-04 2.11031E-04 2.56336E-03 5.16247E-04-2.28108E-04



 n o d a l   p r i n t   o u t   f o r   t i m e  s t e p   12602                              ( at time 6.2998695E+00 )

 nodal point  x-disp     y-disp      z-disp      x-vel       y-vel       z-vel      x-accl      y-accl      z-accl      x-coor      y-coor      z-coor
    22626  8.83949E-03-4.49784E-02-1.97802E+01 3.15060E-02 1.48931E-02-3.03711E+00 2.26681E-02 4.10860E-02 3.09944E-01 4.79730E+01-2.20748E+01-1.24417E+01



 n o d a l   p r i n t   o u t   f o r   t i m e  s t e p   12602                              ( at time 6.2998695E+00 )

 nodal point  x-rot      y-rot       z-rot       x-rot vel   y-rot vel   z-rot vel   x-rot acc   y-rot acc   z-rot acc
    22626  3.31551E-04 2.55676E-04 3.52709E-04 1.25444E-03 3.23649E-04 1.92210E-04 2.75217E-03 5.61349E-04-1.88226E-04



 n o d a l   p r i n t   o u t   f o r   t i m e  s t e p   12802                              ( at time 6.3998595E+00 )

 nodal point  x-disp     y-disp      z-disp      x-vel       y-vel       z-vel      x-accl      y-accl      z-accl      x-coor      y-coor      z-coor
    22626  1.20879E-02-4.32677E-02-2.00821E+01 3.38091E-02 1.92293E-02-3.00146E+00 2.30336E-02 4.33663E-02 3.56553E-01 4.79763E+01-2.20731E+01-1.27436E+01



 n o d a l   p r i n t   o u t   f o r   t i m e  s t e p   12802                              ( at time 6.3998595E+00 )

 nodal point  x-rot      y-rot       z-rot       x-rot vel   y-rot vel   z-rot vel   x-rot acc   y-rot acc   z-rot acc
    22626  4.72223E-04 2.91820E-04 3.70593E-04 1.56783E-03 4.02325E-04 1.68075E-04 3.13415E-03 7.86832E-04-2.41375E-04



 n o d a l   p r i n t   o u t   f o r   t i m e  s t e p   13002                              ( at time 6.4998495E+00 )

 nodal point  x-disp     y-disp      z-disp      x-vel       y-vel       z-vel      x-accl      y-accl      z-accl      x-coor      y-coor      z-coor
    22626  1.56287E-02-4.10573E-02-2.03802E+01 3.70372E-02 2.46780E-02-2.96087E+00 3.22844E-02 5.44934E-02 4.05951E-01 4.79798E+01-2.20708E+01-1.30417E+01



 n o d a l   p r i n t   o u t   f o r   t i m e  s t e p   13002                              ( at time 6.4998495E+00 )

 nodal point  x-rot      y-rot       z-rot       x-rot vel   y-rot vel   z-rot vel   x-rot acc   y-rot acc   z-rot acc
    22626  6.45748E-04 3.37114E-04 3.85868E-04 1.90395E-03 5.05137E-04 1.39528E-04 3.36156E-03 1.02822E-03-2.85500E-04



 n o d a l   p r i n t   o u t   f o r   t i m e  s t e p   13202                              ( at time 6.5998395E+00 )

 nodal point  x-disp     y-disp      z-disp      x-vel       y-vel       z-vel      x-accl      y-accl      z-accl      x-coor      y-coor      z-coor
    22626  1.94915E-02-3.83175E-02-2.06741E+01 4.03519E-02 3.05390E-02-2.91632E+00 3.31498E-02 5.86154E-02 4.45473E-01 4.79837E+01-2.20681E+01-1.33356E+01



 n o d a l   p r i n t   o u t   f o r   t i m e  s t e p   13202                              ( at time 6.5998395E+00 )

 nodal point  x-rot      y-rot       z-rot       x-rot vel   y-rot vel   z-rot vel   x-rot acc   y-rot acc   z-rot acc
    22626  8.54474E-04 3.93149E-04 3.97724E-04 2.27017E-03 6.17279E-04 9.51748E-05 3.66261E-03 1.12154E-03-4.43573E-04



 n o d a l   p r i n t   o u t   f o r   t i m e  s t e p   13402                              ( at time 6.6998295E+00 )

 nodal point  x-disp     y-disp      z-disp      x-vel       y-vel       z-vel      x-accl      y-accl      z-accl      x-coor      y-coor      z-coor
    22626  2.37241E-02-3.50326E-02-2.09633E+01 4.47919E-02 3.47658E-02-2.86858E+00 4.44045E-02 4.22722E-02 4.77477E-01 4.79879E+01-2.20648E+01-1.36248E+01



 n o d a l   p r i n t   o u t   f o r   t i m e  s t e p   13402                              ( at time 6.6998295E+00 )

 nodal point  x-rot      y-rot       z-rot       x-rot vel   y-rot vel   z-rot vel   x-rot acc   y-rot acc   z-rot acc
    22626  1.10044E-03 4.60334E-04 4.05363E-04 2.64732E-03 7.27770E-04 6.13068E-05 3.77190E-03 1.10502E-03-3.38714E-04



 n o d a l   p r i n t   o u t   f o r   t i m e  s t e p   13602                              ( at time 6.7998195E+00 )

 nodal point  x-disp     y-disp      z-disp      x-vel       y-vel       z-vel      x-accl      y-accl      z-accl      x-coor      y-coor      z-coor
    22626  2.84095E-02-3.13810E-02-2.12476E+01 4.92812E-02 3.88642E-02-2.81677E+00 4.48972E-02 4.09879E-02 5.18196E-01 4.79926E+01-2.20612E+01-1.39091E+01



 n o d a l   p r i n t   o u t   f o r   t i m e  s t e p   13602                              ( at time 6.7998195E+00 )

 nodal point  x-rot      y-rot       z-rot       x-rot vel   y-rot vel   z-rot vel   x-rot acc   y-rot acc   z-rot acc
    22626  1.38435E-03 5.40126E-04 4.08825E-04 3.03314E-03 8.59966E-04 4.25645E-06 3.85853E-03 1.32209E-03-5.70561E-04



 n o d a l   p r i n t   o u t   f o r   t i m e  s t e p   13802                              ( at time 6.8998095E+00 )

 nodal point  x-disp     y-disp      z-disp      x-vel       y-vel       z-vel      x-accl      y-accl      z-accl      x-coor      y-coor      z-coor
    22626  3.35936E-02-2.72857E-02-2.15266E+01 5.43284E-02 4.30119E-02-2.76255E+00 5.04771E-02 4.14809E-02 5.42188E-01 4.79978E+01-2.20571E+01-1.41881E+01



 n o d a l   p r i n t   o u t   f o r   t i m e  s t e p   13802                              ( at time 6.8998095E+00 )

 nodal point  x-rot      y-rot       z-rot       x-rot vel   y-rot vel   z-rot vel   x-rot acc   y-rot acc   z-rot acc
    22626  1.70756E-03 6.33650E-04 4.06604E-04 3.42903E-03 9.98322E-04-6.00428E-05 3.95934E-03 1.38370E-03-6.43058E-04



 n o d a l   p r i n t   o u t   f o r   t i m e  s t e p   14002                              ( at time 6.9997995E+00 )

 nodal point  x-disp     y-disp      z-disp      x-vel       y-vel       z-vel      x-accl      y-accl      z-accl      x-coor      y-coor      z-coor
    22626  3.93005E-02-2.29023E-02-2.17999E+01 6.00845E-02 4.51740E-02-2.70537E+00 5.75670E-02 2.16233E-02 5.71862E-01 4.80035E+01-2.20527E+01-1.44614E+01



 n o d a l   p r i n t   o u t   f o r   t i m e  s t e p   14002                              ( at time 6.9997995E+00 )

 nodal point  x-rot      y-rot       z-rot       x-rot vel   y-rot vel   z-rot vel   x-rot acc   y-rot acc   z-rot acc
    22626  2.06903E-03 7.42994E-04 3.98375E-04 3.79582E-03 1.17734E-03-1.21497E-04 3.66824E-03 1.79039E-03-6.14603E-04



 n o d a l   p r i n t   o u t   f o r   t i m e  s t e p   14202                              ( at time 7.0997895E+00 )

 nodal point  x-disp     y-disp      z-disp      x-vel       y-vel       z-vel      x-accl      y-accl      z-accl      x-coor      y-coor      z-coor
    22626  4.56115E-02-1.82880E-02-2.20674E+01 6.66813E-02 4.70596E-02-2.64526E+00 6.59750E-02 1.88575E-02 6.01125E-01 4.80098E+01-2.20481E+01-1.47289E+01



 n o d a l   p r i n t   o u t   f o r   t i m e  s t e p   14202                              ( at time 7.0997895E+00 )

 nodal point  x-rot      y-rot       z-rot       x-rot vel   y-rot vel   z-rot vel   x-rot acc   y-rot acc   z-rot acc
    22626  2.46696E-03 8.70626E-04 3.83406E-04 4.16872E-03 1.36922E-03-1.95201E-04 3.72938E-03 1.91892E-03-7.37111E-04



 n o d a l   p r i n t   o u t   f o r   t i m e  s t e p   14402                              ( at time 7.1997794E+00 )

 nodal point  x-disp     y-disp      z-disp      x-vel       y-vel       z-vel      x-accl      y-accl      z-accl      x-coor      y-coor      z-coor
    22626  5.25912E-02-1.35210E-02-2.23288E+01 7.39999E-02 4.84127E-02-2.58177E+00 7.31929E-02 1.35327E-02 6.34961E-01 4.80168E+01-2.20433E+01-1.49903E+01



 n o d a l   p r i n t   o u t   f o r   t i m e  s t e p   14402                              ( at time 7.1997794E+00 )

 nodal point  x-rot      y-rot       z-rot       x-rot vel   y-rot vel   z-rot vel   x-rot acc   y-rot acc   z-rot acc
    22626  2.90272E-03 1.01758E-03 3.61501E-04 4.54288E-03 1.57637E-03-2.56959E-04 3.74195E-03 2.07173E-03-6.17644E-04



 n o d a l   p r i n t   o u t   f o r   t i m e  s t e p   14602                              ( at time 7.2997694E+00 )

 nodal point  x-disp     y-disp      z-disp      x-vel       y-vel       z-vel      x-accl      y-accl      z-accl      x-coor      y-coor      z-coor
    22626  6.03428E-02-8.52380E-03-2.25835E+01 8.15193E-02 5.00459E-02-2.51526E+00 7.52016E-02 1.63340E-02 6.65195E-01 4.80245E+01-2.20383E+01-1.52450E+01



 n o d a l   p r i n t   o u t   f o r   t i m e  s t e p   14602                              ( at time 7.2997694E+00 )

 nodal point  x-rot      y-rot       z-rot       x-rot vel   y-rot vel   z-rot vel   x-rot acc   y-rot acc   z-rot acc
    22626  3.37688E-03 1.18619E-03 3.32893E-04 4.92827E-03 1.79364E-03-3.27314E-04 3.85430E-03 2.17289E-03-7.03617E-04



 n o d a l   p r i n t   o u t   f o r   t i m e  s t e p   14802                              ( at time 7.3997594E+00 )

 nodal point  x-disp     y-disp      z-disp      x-vel       y-vel       z-vel      x-accl      y-accl      z-accl      x-coor      y-coor      z-coor
    22626  6.88821E-02-3.34368E-03-2.28315E+01 8.93065E-02 5.30562E-02-2.44481E+00 7.78799E-02 3.01057E-02 7.04636E-01 4.80331E+01-2.20331E+01-1.54930E+01



 n o d a l   p r i n t   o u t   f o r   t i m e  s t e p   14802                              ( at time 7.3997594E+00 )

 nodal point  x-rot      y-rot       z-rot       x-rot vel   y-rot vel   z-rot vel   x-rot acc   y-rot acc   z-rot acc
    22626  3.88949E-03 1.37657E-03 2.96977E-04 5.31518E-03 2.01587E-03-4.09601E-04 3.86952E-03 2.22257E-03-8.22956E-04



 n o d a l   p r i n t   o u t   f o r   t i m e  s t e p   15002                              ( at time 7.4997494E+00 )

 nodal point  x-disp     y-disp      z-disp      x-vel       y-vel       z-vel      x-accl      y-accl      z-accl      x-coor      y-coor      z-coor
    22626  7.82812E-02 2.08127E-03-2.30724E+01 9.84214E-02 5.50450E-02-2.37469E+00 9.11580E-02 1.98905E-02 7.01221E-01 4.80425E+01-2.20277E+01-1.57339E+01



 n o d a l   p r i n t   o u t   f o r   t i m e  s t e p   15002                              ( at time 7.4997494E+00 )

 nodal point  x-rot      y-rot       z-rot       x-rot vel   y-rot vel   z-rot vel   x-rot acc   y-rot acc   z-rot acc
    22626  4.44007E-03 1.58600E-03 2.54542E-04 5.69549E-03 2.19179E-03-4.56158E-04 3.80345E-03 1.75941E-03-4.65619E-04



 n o d a l   p r i n t   o u t   f o r   t i m e  s t e p   15202                              ( at time 7.5997394E+00 )

 nodal point  x-disp     y-disp      z-disp      x-vel       y-vel       z-vel      x-accl      y-accl      z-accl      x-coor      y-coor      z-coor
    22626  8.85384E-02 7.61834E-03-2.33060E+01 1.06829E-01 5.46518E-02-2.29905E+00 8.40818E-02-3.93263E-03 7.56433E-01 4.80527E+01-2.20222E+01-1.59675E+01



 n o d a l   p r i n t   o u t   f o r   t i m e  s t e p   15202                              ( at time 7.5997394E+00 )

 nodal point  x-rot      y-rot       z-rot       x-rot vel   y-rot vel   z-rot vel   x-rot acc   y-rot acc   z-rot acc
    22626  5.02751E-03 1.81885E-03 2.06350E-04 6.06699E-03 2.46025E-03-5.07892E-04 3.71537E-03 2.68484E-03-5.17389E-04



 n o d a l   p r i n t   o u t   f o r   t i m e  s t e p   15402                              ( at time 7.6997294E+00 )

 nodal point  x-disp     y-disp      z-disp      x-vel       y-vel       z-vel      x-accl      y-accl      z-accl      x-coor      y-coor      z-coor
    22626  9.95909E-02 1.31585E-02-2.35320E+01 1.13599E-01 5.58802E-02-2.22155E+00 6.77085E-02 1.22854E-02 7.75110E-01 4.80638E+01-2.20166E+01-1.61935E+01



 n o d a l   p r i n t   o u t   f o r   t i m e  s t e p   15402                              ( at time 7.6997294E+00 )

 nodal point  x-rot      y-rot       z-rot       x-rot vel   y-rot vel   z-rot vel   x-rot acc   y-rot acc   z-rot acc
    22626  5.65242E-03 2.07838E-03 1.51206E-04 6.41984E-03 2.74264E-03-5.75480E-04 3.52880E-03 2.82414E-03-6.75950E-04



 n o d a l   p r i n t   o u t   f o r   t i m e  s t e p   15602                              ( at time 7.7997194E+00 )

 nodal point  x-disp     y-disp      z-disp      x-vel       y-vel       z-vel      x-accl      y-accl      z-accl      x-coor      y-coor      z-coor
    22626  1.11484E-01 1.86995E-02-2.37503E+01 1.22409E-01 5.40805E-02-2.14414E+00 8.81098E-02-1.79994E-02 7.74149E-01 4.80757E+01-2.20111E+01-1.64118E+01



 n o d a l   p r i n t   o u t   f o r   t i m e  s t e p   15602                              ( at time 7.7997194E+00 )

 nodal point  x-rot      y-rot       z-rot       x-rot vel   y-rot vel   z-rot vel   x-rot acc   y-rot acc   z-rot acc
    22626  6.30898E-03 2.36492E-03 9.18034E-05 6.72478E-03 3.00967E-03-5.78595E-04 3.04973E-03 2.67063E-03-3.11512E-05



 n o d a l   p r i n t   o u t   f o r   t i m e  s t e p   15802                              ( at time 7.8997094E+00 )

 nodal point  x-disp     y-disp      z-disp      x-vel       y-vel       z-vel      x-accl      y-accl      z-accl      x-coor      y-coor      z-coor
    22626  1.24184E-01 2.41127E-02-2.39608E+01 1.30719E-01 5.36588E-02-2.06360E+00 8.31056E-02-4.21734E-03 8.05538E-01 4.80884E+01-2.20057E+01-1.66223E+01



 n o d a l   p r i n t   o u t   f o r   t i m e  s t e p   15802                              ( at time 7.8997094E+00 )

 nodal point  x-rot      y-rot       z-rot       x-rot vel   y-rot vel   z-rot vel   x-rot acc   y-rot acc   z-rot acc
    22626  6.99479E-03 2.68138E-03 2.85900E-05 7.03472E-03 3.31407E-03-6.54065E-04 3.09969E-03 3.04423E-03-7.54778E-04



 n o d a l   p r i n t   o u t   f o r   t i m e  s t e p   16002                              ( at time 7.9996994E+00 )

 nodal point  x-disp     y-disp      z-disp      x-vel       y-vel       z-vel      x-accl      y-accl      z-accl      x-coor      y-coor      z-coor
    22626  1.37721E-01 2.93486E-02-2.41631E+01 1.40095E-01 5.09346E-02-1.98334E+00 9.37679E-02-2.72443E-02 8.02659E-01 4.81019E+01-2.20004E+01-1.68246E+01



 n o d a l   p r i n t   o u t   f o r   t i m e  s t e p   16002                              ( at time 7.9996994E+00 )

 nodal point  x-rot      y-rot       z-rot       x-rot vel   y-rot vel   z-rot vel   x-rot acc   y-rot acc   z-rot acc
    22626  7.70955E-03 3.02545E-03-3.84359E-05 7.27175E-03 3.58428E-03-6.85881E-04 2.37060E-03 2.70236E-03-3.18194E-04



 n o d a l   p r i n t   o u t   f o r   t i m e  s t e p   16202                              ( at time 8.0996894E+00 )

 nodal point  x-disp     y-disp      z-disp      x-vel       y-vel       z-vel      x-accl      y-accl      z-accl      x-coor      y-coor      z-coor
    22626  1.52291E-01 3.41530E-02-2.43573E+01 1.51144E-01 4.55744E-02-1.90186E+00 1.10500E-01-5.36073E-02 8.14864E-01 4.81165E+01-2.19956E+01-1.70188E+01



 n o d a l   p r i n t   o u t   f o r   t i m e  s t e p   16202                              ( at time 8.0996894E+00 )

 nodal point  x-rot      y-rot       z-rot       x-rot vel   y-rot vel   z-rot vel   x-rot acc   y-rot acc   z-rot acc
    22626  8.44625E-03 3.39873E-03-1.08417E-04 7.47213E-03 3.86758E-03-7.10843E-04 2.00394E-03 2.83334E-03-2.49638E-04



 n o d a l   p r i n t   o u t   f o r   t i m e  s t e p   16402                              ( at time 8.1996794E+00 )

 nodal point  x-disp     y-disp      z-disp      x-vel       y-vel       z-vel      x-accl      y-accl      z-accl      x-coor      y-coor      z-coor
    22626  1.67910E-01 3.86733E-02-2.45432E+01 1.62822E-01 4.31528E-02-1.81986E+00 1.16802E-01-2.42187E-02 8.20127E-01 4.81321E+01-2.19911E+01-1.72047E+01



 n o d a l   p r i n t   o u t   f o r   t i m e  s t e p   16402                              ( at time 8.1996794E+00 )

 nodal point  x-rot      y-rot       z-rot       x-rot vel   y-rot vel   z-rot vel   x-rot acc   y-rot acc   z-rot acc
    22626  9.20793E-03 3.79691E-03-1.81536E-04 7.71673E-03 4.03784E-03-7.30938E-04 2.44624E-03 1.70278E-03-2.00975E-04



 n o d a l   p r i n t   o u t   f o r   t i m e  s t e p   16602                              ( at time 8.2996694E+00 )

 nodal point  x-disp     y-disp      z-disp      x-vel       y-vel       z-vel      x-accl      y-accl      z-accl      x-coor      y-coor      z-coor
    22626  1.84745E-01 4.27976E-02-2.47209E+01 1.75209E-01 4.00537E-02-1.73367E+00 1.23879E-01-3.09939E-02 8.61941E-01 4.81489E+01-2.19870E+01-1.73824E+01



 n o d a l   p r i n t   o u t   f o r   t i m e  s t e p   16602                              ( at time 8.2996694E+00 )

 nodal point  x-rot      y-rot       z-rot       x-rot vel   y-rot vel   z-rot vel   x-rot acc   y-rot acc   z-rot acc
    22626  9.98697E-03 4.21164E-03-2.55764E-04 7.86974E-03 4.28417E-03-7.74884E-04 1.53034E-03 2.46356E-03-4.39503E-04



 n o d a l   p r i n t   o u t   f o r   t i m e  s t e p   16802                              ( at time 8.3996594E+00 )

 nodal point  x-disp     y-disp      z-disp      x-vel       y-vel       z-vel      x-accl      y-accl      z-accl      x-coor      y-coor      z-coor
    22626  2.02629E-01 4.63468E-02-2.48901E+01 1.83487E-01 3.16583E-02-1.64931E+00 8.27889E-02-8.39633E-02 8.43741E-01 4.81668E+01-2.19834E+01-1.75516E+01



 n o d a l   p r i n t   o u t   f o r   t i m e  s t e p   16802                              ( at time 8.3996594E+00 )

 nodal point  x-rot      y-rot       z-rot       x-rot vel   y-rot vel   z-rot vel   x-rot acc   y-rot acc   z-rot acc
    22626  1.07828E-02 4.65470E-03-3.32021E-04 8.04326E-03 4.54590E-03-7.47399E-04 1.73532E-03 2.61753E-03 2.74880E-04



 n o d a l   p r i n t   o u t   f o r   t i m e  s t e p   17002                              ( at time 8.4996494E+00 )

 nodal point  x-disp     y-disp      z-disp      x-vel       y-vel       z-vel      x-accl      y-accl      z-accl      x-coor      y-coor      z-coor
    22626  2.21738E-01 4.92997E-02-2.50507E+01 1.97166E-01 2.41247E-02-1.56499E+00 1.36805E-01-7.53436E-02 8.43217E-01 4.81859E+01-2.19805E+01-1.77122E+01



 n o d a l   p r i n t   o u t   f o r   t i m e  s t e p   17002                              ( at time 8.4996494E+00 )

 nodal point  x-rot      y-rot       z-rot       x-rot vel   y-rot vel   z-rot vel   x-rot acc   y-rot acc   z-rot acc
    22626  1.15914E-02 5.11988E-03-4.09147E-04 8.11035E-03 4.77399E-03-7.56736E-04 6.70983E-04 2.28117E-03-9.33844E-05



 n o d a l   p r i n t   o u t   f o r   t i m e  s t e p   17202                              ( at time 8.5996394E+00 )

 nodal point  x-disp     y-disp      z-disp      x-vel       y-vel       z-vel      x-accl      y-accl      z-accl      x-coor      y-coor      z-coor
    22626  2.42106E-01 5.14088E-02-2.52027E+01 2.09156E-01 1.88879E-02-1.47460E+00 1.19913E-01-5.23729E-02 9.04015E-01 4.82063E+01-2.19784E+01-1.78642E+01



 n o d a l   p r i n t   o u t   f o r   t i m e  s t e p   17202                              ( at time 8.5996394E+00 )

 nodal point  x-rot      y-rot       z-rot       x-rot vel   y-rot vel   z-rot vel   x-rot acc   y-rot acc   z-rot acc
    22626  1.24082E-02 5.60862E-03-4.86336E-04 8.22516E-03 5.01267E-03-7.91386E-04 1.14823E-03 2.38697E-03-3.46534E-04



 n o d a l   p r i n t   o u t   f o r   t i m e  s t e p   17402                              ( at time 8.6996293E+00 )

 nodal point  x-disp     y-disp      z-disp      x-vel       y-vel       z-vel      x-accl      y-accl      z-accl      x-coor      y-coor      z-coor
    22626  2.63583E-01 5.28984E-02-2.53458E+01 2.21022E-01 1.09675E-02-1.38697E+00 1.18666E-01-7.92111E-02 8.76412E-01 4.82278E+01-2.19769E+01-1.80073E+01



 n o d a l   p r i n t   o u t   f o r   t i m e  s t e p   17402                              ( at time 8.6996293E+00 )

 nodal point  x-rot      y-rot       z-rot       x-rot vel   y-rot vel   z-rot vel   x-rot acc   y-rot acc   z-rot acc
    22626  1.32354E-02 6.11945E-03-5.61789E-04 8.31078E-03 5.21317E-03-7.38829E-04 8.56225E-04 2.00526E-03 5.25620E-04



 n o d a l   p r i n t   o u t   f o r   t i m e  s t e p   17602                              ( at time 8.7996193E+00 )

 nodal point  x-disp     y-disp      z-disp      x-vel       y-vel       z-vel      x-accl      y-accl      z-accl      x-coor      y-coor      z-coor
    22626  2.86268E-01 5.34294E-02-2.54801E+01 2.33171E-01 5.21834E-04-1.29911E+00 1.21498E-01-1.04467E-01 8.78646E-01 4.82505E+01-2.19764E+01-1.81416E+01



 n o d a l   p r i n t   o u t   f o r   t i m e  s t e p   17602                              ( at time 8.7996193E+00 )

 nodal point  x-rot      y-rot       z-rot       x-rot vel   y-rot vel   z-rot vel   x-rot acc   y-rot acc   z-rot acc
    22626  1.40657E-02 6.65360E-03-6.35913E-04 8.31870E-03 5.46797E-03-7.49227E-04 7.92542E-05 2.54820E-03-1.03992E-04



 n o d a l   p r i n t   o u t   f o r   t i m e  s t e p   17802                              ( at time 8.8996093E+00 )

 nodal point  x-disp     y-disp      z-disp      x-vel       y-vel       z-vel      x-accl      y-accl      z-accl      x-coor      y-coor      z-coor
    22626  3.10179E-01 5.29668E-02-2.56056E+01 2.41769E-01-8.16574E-03-1.21073E+00 8.59957E-02-8.68845E-02 8.83930E-01 4.82744E+01-2.19768E+01-1.82671E+01



 n o d a l   p r i n t   o u t   f o r   t i m e  s t e p   17802                              ( at time 8.8996093E+00 )

 nodal point  x-rot      y-rot       z-rot       x-rot vel   y-rot vel   z-rot vel   x-rot acc   y-rot acc   z-rot acc
    22626  1.49005E-02 7.21237E-03-7.10006E-04 8.38093E-03 5.66286E-03-7.24543E-04 6.22335E-04 1.94912E-03 2.46870E-04



 n o d a l   p r i n t   o u t   f o r   t i m e  s t e p   18002                              ( at time 8.9995993E+00 )

 nodal point  x-disp     y-disp      z-disp      x-vel       y-vel       z-vel      x-accl      y-accl      z-accl      x-coor      y-coor      z-coor
    22626  3.35134E-01 5.18118E-02-2.57224E+01 2.53406E-01-1.52140E-02-1.12576E+00 1.16377E-01-7.04894E-02 8.49750E-01 4.82993E+01-2.19780E+01-1.83839E+01



 n o d a l   p r i n t   o u t   f o r   t i m e  s t e p   18002                              ( at time 8.9995993E+00 )

 nodal point  x-rot      y-rot       z-rot       x-rot vel   y-rot vel   z-rot vel   x-rot acc   y-rot acc   z-rot acc
    22626  1.57383E-02 7.79254E-03-7.80809E-04 8.35291E-03 5.93598E-03-7.19951E-04-2.80207E-04 2.73145E-03 4.59194E-05



 n o d a l   p r i n t   o u t   f o r   t i m e  s t e p   18202                              ( at time 9.0995893E+00 )

 nodal point  x-disp     y-disp      z-disp      x-vel       y-vel       z-vel      x-accl      y-accl      z-accl      x-coor      y-coor      z-coor
    22626  3.61045E-01 4.96503E-02-2.58307E+01 2.66027E-01-2.75240E-02-1.04098E+00 1.26228E-01-1.23112E-01 8.47890E-01 4.83252E+01-2.19801E+01-1.84922E+01



 n o d a l   p r i n t   o u t   f o r   t i m e  s t e p   18202                              ( at time 9.0995893E+00 )

 nodal point  x-rot      y-rot       z-rot       x-rot vel   y-rot vel   z-rot vel   x-rot acc   y-rot acc   z-rot acc
    22626  1.65763E-02 8.40130E-03-8.50458E-04 8.39083E-03 6.22033E-03-6.86301E-04 3.79282E-04 2.84383E-03 3.36535E-04



 n o d a l   p r i n t   o u t   f o r   t i m e  s t e p   18402                              ( at time 9.1995793E+00 )

 nodal point  x-disp     y-disp      z-disp      x-vel       y-vel       z-vel      x-accl      y-accl      z-accl      x-coor      y-coor      z-coor
    22626  3.88024E-01 4.66879E-02-2.59306E+01 2.75054E-01-3.27574E-02-9.57071E-01 9.02729E-02-5.23393E-02 8.39195E-01 4.83522E+01-2.19831E+01-1.85921E+01



 n o d a l   p r i n t   o u t   f o r   t i m e  s t e p   18402                              ( at time 9.1995793E+00 )

 nodal point  x-rot      y-rot       z-rot       x-rot vel   y-rot vel   z-rot vel   x-rot acc   y-rot acc   z-rot acc
    22626  1.74162E-02 9.03313E-03-9.19673E-04 8.40738E-03 6.44891E-03-6.56001E-04 1.65466E-04 2.28597E-03 3.03035E-04



 n o d a l   p r i n t   o u t   f o r   t i m e  s t e p   18602                              ( at time 9.2995693E+00 )

 nodal point  x-disp     y-disp      z-disp      x-vel       y-vel       z-vel      x-accl      y-accl      z-accl      x-coor      y-coor      z-coor
    22626  4.15835E-01 4.29918E-02-2.60221E+01 2.83687E-01-4.10103E-02-8.75770E-01 8.63389E-02-8.25376E-02 8.13091E-01 4.83800E+01-2.19868E+01-1.86836E+01



 n o d a l   p r i n t   o u t   f o r   t i m e  s t e p   18602                              ( at time 9.2995693E+00 )

 nodal point  x-rot      y-rot       z-rot       x-rot vel   y-rot vel   z-rot vel   x-rot acc   y-rot acc   z-rot acc
    22626  1.82567E-02 9.69243E-03-9.86857E-04 8.42581E-03 6.74897E-03-7.29334E-04 1.84309E-04 3.00094E-03-7.33405E-04



 n o d a l   p r i n t   o u t   f o r   t i m e  s t e p   18802                              ( at time 9.3995593E+00 )

 nodal point  x-disp     y-disp      z-disp      x-vel       y-vel       z-vel      x-accl      y-accl      z-accl      x-coor      y-coor      z-coor
    22626  4.44542E-01 3.85758E-02-2.61056E+01 2.93040E-01-4.70018E-02-7.95390E-01 9.35393E-02-5.99210E-02 8.03881E-01 4.84087E+01-2.19912E+01-1.87671E+01



 n o d a l   p r i n t   o u t   f o r   t i m e  s t e p   18802                              ( at time 9.3995593E+00 )

 nodal point  x-rot      y-rot       z-rot       x-rot vel   y-rot vel   z-rot vel   x-rot acc   y-rot acc   z-rot acc
    22626  1.91003E-02 1.03819E-02-1.05635E-03 8.44207E-03 7.00112E-03-7.09130E-04 1.62663E-04 2.52175E-03 2.02053E-04



 n o d a l   p r i n t   o u t   f o r   t i m e  s t e p   19002                              ( at time 9.4995493E+00 )

 nodal point  x-disp     y-disp      z-disp      x-vel       y-vel       z-vel      x-accl      y-accl      z-accl      x-coor      y-coor      z-coor
    22626  4.74084E-01 3.35299E-02-2.61808E+01 2.98863E-01-5.52959E-02-7.12766E-01 5.82384E-02-8.29495E-02 8.26325E-01 4.84383E+01-2.19963E+01-1.88423E+01



 n o d a l   p r i n t   o u t   f o r   t i m e  s t e p   19002                              ( at time 9.4995493E+00 )

 nodal point  x-rot      y-rot       z-rot       x-rot vel   y-rot vel   z-rot vel   x-rot acc   y-rot acc   z-rot acc
    22626  1.99496E-02 1.10960E-02-1.12400E-03 8.53541E-03 7.28318E-03-6.87405E-04 9.33484E-04 2.82091E-03 2.17279E-04



 n o d a l   p r i n t   o u t   f o r   t i m e  s t e p   19202                              ( at time 9.5995393E+00 )

 nodal point  x-disp     y-disp      z-disp      x-vel       y-vel       z-vel      x-accl      y-accl      z-accl      x-coor      y-coor      z-coor
    22626  5.04298E-01 2.79298E-02-2.62480E+01 3.05936E-01-5.65356E-02-6.31080E-01 7.07387E-02-1.23983E-02 8.16936E-01 4.84685E+01-2.20019E+01-1.89095E+01



 n o d a l   p r i n t   o u t   f o r   t i m e  s t e p   19202                              ( at time 9.5995393E+00 )

 nodal point  x-rot      y-rot       z-rot       x-rot vel   y-rot vel   z-rot vel   x-rot acc   y-rot acc   z-rot acc
    22626  2.08066E-02 1.18420E-02-1.19445E-03 8.62719E-03 7.60881E-03-7.03166E-04 9.17912E-04 3.25662E-03-1.57625E-04



 n o d a l   p r i n t   o u t   f o r   t i m e  s t e p   19402                              ( at time 9.6995293E+00 )

 nodal point  x-disp     y-disp      z-disp      x-vel       y-vel       z-vel      x-accl      y-accl      z-accl      x-coor      y-coor      z-coor
    22626  5.35141E-01 2.20300E-02-2.63072E+01 3.12207E-01-6.05336E-02-5.51094E-01 6.27125E-02-3.99841E-02 7.99932E-01 4.84993E+01-2.20078E+01-1.89687E+01



 n o d a l   p r i n t   o u t   f o r   t i m e  s t e p   19402                              ( at time 9.6995293E+00 )

 nodal point  x-rot      y-rot       z-rot       x-rot vel   y-rot vel   z-rot vel   x-rot acc   y-rot acc   z-rot acc
    22626  2.16744E-02 1.26138E-02-1.26459E-03 8.78722E-03 7.86146E-03-7.21011E-04 1.60044E-03 2.52672E-03-1.78468E-04



 n o d a l   p r i n t   o u t   f o r   t i m e  s t e p   19602                              ( at time 9.7995193E+00 )

 nodal point  x-disp     y-disp      z-disp      x-vel       y-vel       z-vel      x-accl      y-accl      z-accl      x-coor      y-coor      z-coor
    22626  5.66654E-01 1.55667E-02-2.63585E+01 3.19392E-01-6.65374E-02-4.75566E-01 7.18589E-02-6.00437E-02 7.55357E-01 4.85308E+01-2.20142E+01-1.90200E+01



 n o d a l   p r i n t   o u t   f o r   t i m e  s t e p   19602                              ( at time 9.7995193E+00 )

 nodal point  x-rot      y-rot       z-rot       x-rot vel   y-rot vel   z-rot vel   x-rot acc   y-rot acc   z-rot acc
    22626  2.25547E-02 1.34125E-02-1.33733E-03 8.85399E-03 8.08827E-03-7.40518E-04 6.67705E-04 2.26834E-03-1.95094E-04



 n o d a l   p r i n t   o u t   f o r   t i m e  s t e p   19802                              ( at time 9.8995093E+00 )

 nodal point  x-disp     y-disp      z-disp      x-vel       y-vel       z-vel      x-accl      y-accl      z-accl      x-coor      y-coor      z-coor
    22626  5.98795E-01 8.67287E-03-2.64021E+01 3.23617E-01-7.02872E-02-3.99684E-01 4.22520E-02-3.75017E-02 7.58900E-01 4.85630E+01-2.20211E+01-1.90636E+01



 n o d a l   p r i n t   o u t   f o r   t i m e  s t e p   19802                              ( at time 9.8995093E+00 )

 nodal point  x-rot      y-rot       z-rot       x-rot vel   y-rot vel   z-rot vel   x-rot acc   y-rot acc   z-rot acc
    22626  2.34467E-02 1.42373E-02-1.41119E-03 9.01807E-03 8.36731E-03-7.13433E-04 1.64104E-03 2.79070E-03 2.70877E-04



 n o d a l   p r i n t   o u t   f o r   t i m e  s t e p   20003                              ( at time 9.9999992E+00 )

 nodal point  x-disp     y-disp      z-disp      x-vel       y-vel       z-vel      x-accl      y-accl      z-accl      x-coor      y-coor      z-coor
[...]
    22626  2.09901E-01 1.32712E-01-3.44875E-02 1.74678E-02 7.54386E-03-4.93411E-03-5.20806E-04-1.72595E-04 6.53150E-05



 n o d a l   p r i n t   o u t   f o r   t i m e  s t e p   45205                              ( at time 2.2599738E+01 )

 nodal point  x-disp     y-disp      z-disp      x-vel       y-vel       z-vel      x-accl      y-accl      z-accl      x-coor      y-coor      z-coor
    22626  5.06914E+00-3.15043E+00-1.95820E+01 2.50828E-01-3.02370E-01 5.76322E-01 1.75045E-03 2.40735E-03 3.09871E-02 5.30333E+01-2.51802E+01-1.22435E+01



 n o d a l   p r i n t   o u t   f o r   t i m e  s t e p   45205                              ( at time 2.2599738E+01 )

 nodal point  x-rot      y-rot       z-rot       x-rot vel   y-rot vel   z-rot vel   x-rot acc   y-rot acc   z-rot acc
    22626  2.11644E-01 1.33466E-01-3.49820E-02 1.74044E-02 7.55541E-03-4.96220E-03-6.33581E-04 1.15453E-04-2.80908E-04



 n o d a l   p r i n t   o u t   f o r   t i m e  s t e p   45405                              ( at time 2.2699728E+01 )

 nodal point  x-disp     y-disp      z-disp      x-vel       y-vel       z-vel      x-accl      y-accl      z-accl      x-coor      y-coor      z-coor
    22626  5.09422E+00-3.18064E+00-1.95243E+01 2.50909E-01-3.01742E-01 5.79114E-01 8.10713E-04 6.28094E-03 2.79267E-02 5.30584E+01-2.52104E+01-1.21858E+01



 n o d a l   p r i n t   o u t   f o r   t i m e  s t e p   45405                              ( at time 2.2699728E+01 )

 nodal point  x-rot      y-rot       z-rot       x-rot vel   y-rot vel   z-rot vel   x-rot acc   y-rot acc   z-rot acc
    22626  2.13382E-01 1.34222E-01-3.54775E-02 1.73523E-02 7.55761E-03-4.95720E-03-5.20797E-04 2.20468E-05 4.99896E-05



 n o d a l   p r i n t   o u t   f o r   t i m e  s t e p   45605                              ( at time 2.2799718E+01 )

 nodal point  x-disp     y-disp      z-disp      x-vel       y-vel       z-vel      x-accl      y-accl      z-accl      x-coor      y-coor      z-coor
    22626  5.11931E+00-3.21092E+00-1.94663E+01 2.51359E-01-3.02977E-01 5.81367E-01 4.50444E-03-1.23479E-02 2.25261E-02 5.30835E+01-2.52407E+01-1.21278E+01



 n o d a l   p r i n t   o u t   f o r   t i m e  s t e p   45605                              ( at time 2.2799718E+01 )

 nodal point  x-rot      y-rot       z-rot       x-rot vel   y-rot vel   z-rot vel   x-rot acc   y-rot acc   z-rot acc
    22626  2.15114E-01 1.34977E-01-3.59725E-02 1.72857E-02 7.56712E-03-4.94703E-03-6.66571E-04 9.50409E-05 1.01738E-04



 n o d a l   p r i n t   o u t   f o r   t i m e  s t e p   45805                              ( at time 2.2899708E+01 )

 nodal point  x-disp     y-disp      z-disp      x-vel       y-vel       z-vel      x-accl      y-accl      z-accl      x-coor      y-coor      z-coor
    22626  5.14442E+00-3.24118E+00-1.94081E+01 2.51095E-01-3.02914E-01 5.82979E-01-2.64614E-03 6.30985E-04 1.61260E-02 5.31086E+01-2.52710E+01-1.20696E+01



 n o d a l   p r i n t   o u t   f o r   t i m e  s t e p   45805                              ( at time 2.2899708E+01 )

 nodal point  x-rot      y-rot       z-rot       x-rot vel   y-rot vel   z-rot vel   x-rot acc   y-rot acc   z-rot acc
    22626  2.16841E-01 1.35734E-01-3.64684E-02 1.72375E-02 7.56197E-03-4.95355E-03-4.81882E-04-5.14566E-05-6.51858E-05



 n o d a l   p r i n t   o u t   f o r   t i m e  s t e p   46005                              ( at time 2.2999698E+01 )

 nodal point  x-disp     y-disp      z-disp      x-vel       y-vel       z-vel      x-accl      y-accl      z-accl      x-coor      y-coor      z-coor
    22626  5.16953E+00-3.27152E+00-1.93497E+01 2.51168E-01-3.03313E-01 5.85061E-01 7.29330E-04-3.98911E-03 2.08141E-02 5.31337E+01-2.53013E+01-1.20112E+01



 n o d a l   p r i n t   o u t   f o r   t i m e  s t e p   46005                              ( at time 2.2999698E+01 )

 nodal point  x-rot      y-rot       z-rot       x-rot vel   y-rot vel   z-rot vel   x-rot acc   y-rot acc   z-rot acc
    22626  2.18561E-01 1.36491E-01-3.69638E-02 1.71814E-02 7.57348E-03-4.95472E-03-5.61378E-04 1.15122E-04-1.17171E-05



 n o d a l   p r i n t   o u t   f o r   t i m e  s t e p   46205                              ( at time 2.3099688E+01 )

 nodal point  x-disp     y-disp      z-disp      x-vel       y-vel       z-vel      x-accl      y-accl      z-accl      x-coor      y-coor      z-coor
    22626  5.19464E+00-3.30183E+00-1.92911E+01 2.51469E-01-3.03721E-01 5.86870E-01 3.01722E-03-4.08188E-03 1.80944E-02 5.31588E+01-2.53316E+01-1.19526E+01



 n o d a l   p r i n t   o u t   f o r   t i m e  s t e p   46205                              ( at time 2.3099688E+01 )

 nodal point  x-rot      y-rot       z-rot       x-rot vel   y-rot vel   z-rot vel   x-rot acc   y-rot acc   z-rot acc
    22626  2.20277E-01 1.37249E-01-3.74590E-02 1.71322E-02 7.57968E-03-4.93505E-03-4.91700E-04 6.20190E-05 1.96731E-04



 n o d a l   p r i n t   o u t   f o r   t i m e  s t e p   46405                              ( at time 2.3199678E+01 )

 nodal point  x-disp     y-disp      z-disp      x-vel       y-vel       z-vel      x-accl      y-accl      z-accl      x-coor      y-coor      z-coor
    22626  5.21979E+00-3.33220E+00-1.92323E+01 2.51819E-01-3.03598E-01 5.88848E-01 3.49285E-03 1.22320E-03 1.97840E-02 5.31840E+01-2.53620E+01-1.18938E+01



 n o d a l   p r i n t   o u t   f o r   t i m e  s t e p   46405                              ( at time 2.3199678E+01 )

 nodal point  x-rot      y-rot       z-rot       x-rot vel   y-rot vel   z-rot vel   x-rot acc   y-rot acc   z-rot acc
    22626  2.21987E-01 1.38007E-01-3.79538E-02 1.70870E-02 7.59036E-03-4.95160E-03-4.52161E-04 1.06814E-04-1.65553E-04



 n o d a l   p r i n t   o u t   f o r   t i m e  s t e p   46605                              ( at time 2.3299668E+01 )

 nodal point  x-disp     y-disp      z-disp      x-vel       y-vel       z-vel      x-accl      y-accl      z-accl      x-coor      y-coor      z-coor
    22626  5.24498E+00-3.36260E+00-1.91733E+01 2.51922E-01-3.03575E-01 5.89927E-01 1.02919E-03 2.32782E-04 1.07938E-02 5.32092E+01-2.53924E+01-1.18348E+01



 n o d a l   p r i n t   o u t   f o r   t i m e  s t e p   46605                              ( at time 2.3299668E+01 )

 nodal point  x-rot      y-rot       z-rot       x-rot vel   y-rot vel   z-rot vel   x-rot acc   y-rot acc   z-rot acc
    22626  2.23692E-01 1.38764E-01-3.84480E-02 1.70253E-02 7.57294E-03-4.95097E-03-6.17163E-04-1.74228E-04 6.32438E-06



 n o d a l   p r i n t   o u t   f o r   t i m e  s t e p   46805                              ( at time 2.3399658E+01 )

 nodal point  x-disp     y-disp      z-disp      x-vel       y-vel       z-vel      x-accl      y-accl      z-accl      x-coor      y-coor      z-coor
    22626  5.27024E+00-3.39299E+00-1.91142E+01 2.52389E-01-3.03368E-01 5.92151E-01 4.67880E-03 2.06877E-03 2.22381E-02 5.32344E+01-2.54228E+01-1.17757E+01



 n o d a l   p r i n t   o u t   f o r   t i m e  s t e p   46805                              ( at time 2.3399658E+01 )

 nodal point  x-rot      y-rot       z-rot       x-rot vel   y-rot vel   z-rot vel   x-rot acc   y-rot acc   z-rot acc
    22626  2.25392E-01 1.39522E-01-3.89414E-02 1.69769E-02 7.57929E-03-4.93657E-03-4.83829E-04 6.35220E-05 1.43972E-04



 n o d a l   p r i n t   o u t   f o r   t i m e  s t e p   47005                              ( at time 2.3499648E+01 )

 nodal point  x-disp     y-disp      z-disp      x-vel       y-vel       z-vel      x-accl      y-accl      z-accl      x-coor      y-coor      z-coor
    22626  5.29552E+00-3.42334E+00-1.90550E+01 2.53818E-01-3.03341E-01 5.93272E-01 1.42903E-02 2.73610E-04 1.12144E-02 5.32597E+01-2.54531E+01-1.17165E+01



 n o d a l   p r i n t   o u t   f o r   t i m e  s t e p   47005                              ( at time 2.3499648E+01 )

 nodal point  x-rot      y-rot       z-rot       x-rot vel   y-rot vel   z-rot vel   x-rot acc   y-rot acc   z-rot acc
    22626  2.27087E-01 1.40279E-01-3.94336E-02 1.69215E-02 7.56557E-03-4.92138E-03-5.53703E-04-1.37201E-04 1.51950E-04



 n o d a l   p r i n t   o u t   f o r   t i m e  s t e p   47205                              ( at time 2.3599638E+01 )

 nodal point  x-disp     y-disp      z-disp      x-vel       y-vel       z-vel      x-accl      y-accl      z-accl      x-coor      y-coor      z-coor
    22626  5.32090E+00-3.45374E+00-1.89956E+01 2.53866E-01-3.03879E-01 5.93564E-01 4.81361E-04-5.37813E-03 2.91916E-03 5.32851E+01-2.54835E+01-1.16571E+01



 n o d a l   p r i n t   o u t   f o r   t i m e  s t e p   47205                              ( at time 2.3599638E+01 )

 nodal point  x-rot      y-rot       z-rot       x-rot vel   y-rot vel   z-rot vel   x-rot acc   y-rot acc   z-rot acc
    22626  2.28776E-01 1.41036E-01-3.99245E-02 1.68689E-02 7.56469E-03-4.90769E-03-5.26349E-04-8.89511E-06 1.36924E-04



 n o d a l   p r i n t   o u t   f o r   t i m e  s t e p   47405                              ( at time 2.3699628E+01 )

 nodal point  x-disp     y-disp      z-disp      x-vel       y-vel       z-vel      x-accl      y-accl      z-accl      x-coor      y-coor      z-coor
    22626  5.34630E+00-3.48404E+00-1.89363E+01 2.53841E-01-3.03372E-01 5.93091E-01-2.53641E-04 5.07193E-03-4.72648E-03 5.33105E+01-2.55138E+01-1.15978E+01



 n o d a l   p r i n t   o u t   f o r   t i m e  s t e p   47405                              ( at time 2.3699628E+01 )

 nodal point  x-rot      y-rot       z-rot       x-rot vel   y-rot vel   z-rot vel   x-rot acc   y-rot acc   z-rot acc
    22626  2.30459E-01 1.41792E-01-4.04146E-02 1.68109E-02 7.55368E-03-4.89602E-03-5.80453E-04-1.10106E-04 1.16729E-04



 n o d a l   p r i n t   o u t   f o r   t i m e  s t e p   47605                              ( at time 2.3799618E+01 )

 nodal point  x-disp     y-disp      z-disp      x-vel       y-vel       z-vel      x-accl      y-accl      z-accl      x-coor      y-coor      z-coor
    22626  5.37176E+00-3.51435E+00-1.88768E+01 2.54707E-01-3.02540E-01 5.94200E-01 8.66122E-03 8.31815E-03 1.10817E-02 5.33359E+01-2.55441E+01-1.15383E+01



 n o d a l   p r i n t   o u t   f o r   t i m e  s t e p   47605                              ( at time 2.3799618E+01 )

 nodal point  x-rot      y-rot       z-rot       x-rot vel   y-rot vel   z-rot vel   x-rot acc   y-rot acc   z-rot acc
    22626  2.32139E-01 1.42548E-01-4.09035E-02 1.67739E-02 7.55553E-03-4.88939E-03-3.69180E-04 1.85726E-05 6.62756E-05



 n o d a l   p r i n t   o u t   f o r   t i m e  s t e p   47805                              ( at time 2.3899608E+01 )

 nodal point  x-disp     y-disp      z-disp      x-vel       y-vel       z-vel      x-accl      y-accl      z-accl      x-coor      y-coor      z-coor
    22626  5.39725E+00-3.54456E+00-1.88175E+01 2.55399E-01-3.01418E-01 5.93266E-01 6.91894E-03 1.12174E-02-9.33494E-03 5.33614E+01-2.55744E+01-1.14790E+01



 n o d a l   p r i n t   o u t   f o r   t i m e  s t e p   47805                              ( at time 2.3899608E+01 )

 nodal point  x-rot      y-rot       z-rot       x-rot vel   y-rot vel   z-rot vel   x-rot acc   y-rot acc   z-rot acc
    22626  2.33814E-01 1.43302E-01-4.13907E-02 1.67257E-02 7.53175E-03-4.87388E-03-4.82767E-04-2.37863E-04 1.55084E-04



 n o d a l   p r i n t   o u t   f o r   t i m e  s t e p   48005                              ( at time 2.3999598E+01 )

 nodal point  x-disp     y-disp      z-disp      x-vel       y-vel       z-vel      x-accl      y-accl      z-accl      x-coor      y-coor      z-coor
    22626  5.42278E+00-3.57475E+00-1.87582E+01 2.54918E-01-3.01579E-01 5.92903E-01-4.81212E-03-1.60772E-03-3.62913E-03 5.33870E+01-2.56045E+01-1.14197E+01



 n o d a l   p r i n t   o u t   f o r   t i m e  s t e p   48005                              ( at time 2.3999598E+01 )

 nodal point  x-rot      y-rot       z-rot       x-rot vel   y-rot vel   z-rot vel   x-rot acc   y-rot acc   z-rot acc
    22626  2.35484E-01 1.44055E-01-4.18772E-02 1.66911E-02 7.52710E-03-4.86305E-03-3.45801E-04-4.65247E-05 1.08297E-04



 n o d a l   p r i n t   o u t   f o r   t i m e  s t e p   48205                              ( at time 2.4099588E+01 )

 nodal point  x-disp     y-disp      z-disp      x-vel       y-vel       z-vel      x-accl      y-accl      z-accl      x-coor      y-coor      z-coor
    22626  5.44830E+00-3.60482E+00-1.86989E+01 2.55232E-01-2.99922E-01 5.92919E-01 3.14622E-03 1.65671E-02 1.56775E-04 5.34125E+01-2.56346E+01-1.13604E+01



 n o d a l   p r i n t   o u t   f o r   t i m e  s t e p   48205                              ( at time 2.4099588E+01 )

 nodal point  x-rot      y-rot       z-rot       x-rot vel   y-rot vel   z-rot vel   x-rot acc   y-rot acc   z-rot acc
    22626  2.37152E-01 1.44808E-01-4.23621E-02 1.66537E-02 7.52706E-03-4.83782E-03-3.74035E-04-4.09819E-07 2.52393E-04



 n o d a l   p r i n t   o u t   f o r   t i m e  s t e p   48405                              ( at time 2.4199578E+01 )

 nodal point  x-disp     y-disp      z-disp      x-vel       y-vel       z-vel      x-accl      y-accl      z-accl      x-coor      y-coor      z-coor
    22626  5.47382E+00-3.63488E+00-1.86398E+01 2.54800E-01-3.00776E-01 5.90453E-01-4.32867E-03-8.53693E-03-2.46624E-02 5.34380E+01-2.56647E+01-1.13013E+01



 n o d a l   p r i n t   o u t   f o r   t i m e  s t e p   48405                              ( at time 2.4199578E+01 )

 nodal point  x-rot      y-rot       z-rot       x-rot vel   y-rot vel   z-rot vel   x-rot acc   y-rot acc   z-rot acc
    22626  2.38815E-01 1.45559E-01-4.28454E-02 1.66199E-02 7.51684E-03-4.82924E-03-3.37977E-04-1.02149E-04 8.58029E-05



 n o d a l   p r i n t   o u t   f o r   t i m e  s t e p   48605                              ( at time 2.4299568E+01 )

 nodal point  x-disp     y-disp      z-disp      x-vel       y-vel       z-vel      x-accl      y-accl      z-accl      x-coor      y-coor      z-coor
    22626  5.49929E+00-3.66479E+00-1.85808E+01 2.54392E-01-2.99118E-01 5.88875E-01-4.07465E-03 1.65829E-02-1.57830E-02 5.34635E+01-2.56946E+01-1.12423E+01



 n o d a l   p r i n t   o u t   f o r   t i m e  s t e p   48605                              ( at time 2.4299568E+01 )

 nodal point  x-rot      y-rot       z-rot       x-rot vel   y-rot vel   z-rot vel   x-rot acc   y-rot acc   z-rot acc
    22626  2.40476E-01 1.46310E-01-4.33286E-02 1.65919E-02 7.50755E-03-4.81865E-03-2.79869E-04-9.29219E-05 1.05934E-04



 n o d a l   p r i n t   o u t   f o r   t i m e  s t e p   48805                              ( at time 2.4399558E+01 )

 nodal point  x-disp     y-disp      z-disp      x-vel       y-vel       z-vel      x-accl      y-accl      z-accl      x-coor      y-coor      z-coor
    22626  5.52470E+00-3.69462E+00-1.85219E+01 2.53689E-01-2.98216E-01 5.87699E-01-7.03459E-03 9.02080E-03-1.17611E-02 5.34889E+01-2.57244E+01-1.11834E+01



 n o d a l   p r i n t   o u t   f o r   t i m e  s t e p   48805                              ( at time 2.4399558E+01 )

 nodal point  x-rot      y-rot       z-rot       x-rot vel   y-rot vel   z-rot vel   x-rot acc   y-rot acc   z-rot acc
    22626  2.42133E-01 1.47059E-01-4.38105E-02 1.65654E-02 7.49356E-03-4.81880E-03-2.65693E-04-1.39921E-04-1.54614E-06



 n o d a l   p r i n t   o u t   f o r   t i m e  s t e p   49006                              ( at time 2.4500048E+01 )

 nodal point  x-disp     y-disp      z-disp      x-vel       y-vel       z-vel      x-accl      y-accl      z-accl      x-coor      y-coor      z-coor
    22626  5.55020E+00-3.72452E+00-1.84630E+01 2.53792E-01-2.97038E-01 5.87004E-01 1.02437E-03 1.17259E-02-6.91077E-03 5.35144E+01-2.57543E+01-1.11245E+01



 n o d a l   p r i n t   o u t   f o r   t i m e  s t e p   49006                              ( at time 2.4500048E+01 )

 nodal point  x-rot      y-rot       z-rot       x-rot vel   y-rot vel   z-rot vel   x-rot acc   y-rot acc   z-rot acc
    22626  2.43795E-01 1.47812E-01-4.42935E-02 1.65148E-02 7.49498E-03-4.80080E-03-5.03471E-04 1.41058E-05 1.79135E-04



 n o d a l   p r i n t   o u t   f o r   t i m e  s t e p   49206                              ( at time 2.4600038E+01 )

 nodal point  x-disp     y-disp      z-disp      x-vel       y-vel       z-vel      x-accl      y-accl      z-accl      x-coor      y-coor      z-coor
    22626  5.57549E+00-3.75414E+00-1.84044E+01 2.52814E-01-2.95533E-01 5.83653E-01-9.77993E-03 1.50504E-02-3.35122E-02 5.35397E+01-2.57839E+01-1.10659E+01



 n o d a l   p r i n t   o u t   f o r   t i m e  s t e p   49206                              ( at time 2.4600038E+01 )

 nodal point  x-rot      y-rot       z-rot       x-rot vel   y-rot vel   z-rot vel   x-rot acc   y-rot acc   z-rot acc
    22626  2.45448E-01 1.48560E-01-4.47740E-02 1.65299E-02 7.46742E-03-4.80236E-03 1.51074E-04-2.75645E-04-1.56104E-05



 n o d a l   p r i n t   o u t   f o r   t i m e  s t e p   49406                              ( at time 2.4700028E+01 )

 nodal point  x-disp     y-disp      z-disp      x-vel       y-vel       z-vel      x-accl      y-accl      z-accl      x-coor      y-coor      z-coor
    22626  5.60070E+00-3.78360E+00-1.83461E+01 2.52339E-01-2.94137E-01 5.83039E-01-4.75251E-03 1.39621E-02-6.14890E-03 5.35649E+01-2.58134E+01-1.10076E+01



 n o d a l   p r i n t   o u t   f o r   t i m e  s t e p   49406                              ( at time 2.4700028E+01 )

 nodal point  x-rot      y-rot       z-rot       x-rot vel   y-rot vel   z-rot vel   x-rot acc   y-rot acc   z-rot acc
    22626  2.47099E-01 1.49307E-01-4.52539E-02 1.65017E-02 7.45699E-03-4.79672E-03-2.81943E-04-1.04217E-04 5.64444E-05



 n o d a l   p r i n t   o u t   f o r   t i m e  s t e p   49606                              ( at time 2.4800018E+01 )

 nodal point  x-disp     y-disp      z-disp      x-vel       y-vel       z-vel      x-accl      y-accl      z-accl      x-coor      y-coor      z-coor
    22626  5.62584E+00-3.81298E+00-1.82879E+01 2.50891E-01-2.93360E-01 5.80441E-01-1.44787E-02 7.76243E-03-2.59817E-02 5.35900E+01-2.58428E+01-1.09494E+01



 n o d a l   p r i n t   o u t   f o r   t i m e  s t e p   49606                              ( at time 2.4800018E+01 )

 nodal point  x-rot      y-rot       z-rot       x-rot vel   y-rot vel   z-rot vel   x-rot acc   y-rot acc   z-rot acc
    22626  2.48750E-01 1.50053E-01-4.57334E-02 1.65262E-02 7.45118E-03-4.79323E-03 2.44811E-04-5.81618E-05 3.48347E-05



 n o d a l   p r i n t   o u t   f o r   t i m e  s t e p   49806                              ( at time 2.4900008E+01 )

 nodal point  x-disp     y-disp      z-disp      x-vel       y-vel       z-vel      x-accl      y-accl      z-accl      x-coor      y-coor      z-coor
    22626  5.65089E+00-3.84218E+00-1.82300E+01 2.49931E-01-2.90864E-01 5.79505E-01-9.60367E-03 2.49625E-02-9.35718E-03 5.36151E+01-2.58720E+01-1.08915E+01



 n o d a l   p r i n t   o u t   f o r   t i m e  s t e p   49806                              ( at time 2.4900008E+01 )

 nodal point  x-rot      y-rot       z-rot       x-rot vel   y-rot vel   z-rot vel   x-rot acc   y-rot acc   z-rot acc
    22626  2.50401E-01 1.50796E-01-4.62128E-02 1.65000E-02 7.42224E-03-4.80504E-03-2.61693E-04-2.89454E-04-1.18072E-04



 n o d a l   p r i n t   o u t   f o r   t i m e  s t e p   50006                              ( at time 2.4999998E+01 )

 nodal point  x-disp     y-disp      z-disp      x-vel       y-vel       z-vel      x-accl      y-accl      z-accl      x-coor      y-coor      z-coor
    22626  5.67582E+00-3.87129E+00-1.81722E+01 2.48020E-01-2.90730E-01 5.75282E-01-1.91053E-02 1.34629E-03-4.22338E-02 5.36400E+01-2.59011E+01-1.08337E+01



 n o d a l   p r i n t   o u t   f o r   t i m e  s t e p   50006                              ( at time 2.4999998E+01 )

 nodal point  x-rot      y-rot       z-rot       x-rot vel   y-rot vel   z-rot vel   x-rot acc   y-rot acc   z-rot acc
    22626  2.52052E-01 1.51538E-01-4.66923E-02 1.65309E-02 7.39801E-03-4.80593E-03 3.09414E-04-2.42306E-04-8.86235E-06
