$# LS-DYNA Keyword file created by LS-PrePost(R) 2026 R1 (v4.13.5) - 06Feb2026
$# Created on May-10-2026 (16:46:47)
$
$ANSA_VERSION;23.1.1;
$
$
$ file created by  A N S A  Sat May  2 20:57:25 2026
$
$ output from :
$
$ D:/Work/helmet-fit-bayes-opt/dump/base-model4.key.ansa
$
$ Settings :
$
$ Output format : R13
$
$ Output : All
$
$ANSA_USER_ATTRIBUTES;helmet;INCLUDE;DM/Status;TEXT;WIP;
$
$
$
$
$
$
$ANSA_COLOR;helmet;INCLUDE;.792156875133514;.831372559070587;.619607865810394;1.
$;
*KEYWORD
*SET_PART_LIST_TITLE
helmet_strap
$#     sid       da1       da2       da3       da4    solver
       233       0.0       0.0       0.0       0.0MECH
$#    pid1      pid2      pid3      pid4      pid5      pid6      pid7      pid8
      1376      1377         0         0         0         0         0         0
*PART
$#                                                                         title
ABSHardShell
$#     pid     secid       mid     eosid      hgid      grav    adpopt      tmid
      1376      1376        28         0         0         0         0         0
*SECTION_SHELL_TITLE
ABSHardShell
$#   secid    elform      shrf       nip     propt   qr/irid     icomp     setyp
      1376         2     0.833         5         1         0         0         1
$#      t1        t2        t3        t4      nloc     marea      idof    edgset
       2.0       2.0       2.0       2.0       1.0       0.0       0.0         0
*MAT_ELASTIC_TITLE
ABSHardShell
$#     mid        ro         e        pr        da        db  not used  not used
        281.05000E-6       3.0       0.4       0.0       0.0         0         0
*PART
$#                                                                         title
EPSFoam
$#     pid     secid       mid     eosid      hgid      grav    adpopt      tmid
      1377      1377        29         0         0         0         0         0
*SECTION_SOLID_TITLE
EPSFoam
$#   secid    elform       aet         -         -         -    cohoff   gaskett
      1377         1         0                                     0.0       0.0
*MAT_FU_CHANG_FOAM_LOG_LOG_INTERPOLATION_TITLE
EPS_70kgpqm_Log-Log_Mat
$#     mid        ro         e      kcon        tc      fail      damp      tbid
        297.00000E-8    0.0164       0.07.74000E-4       0.0       0.0    100070
$#  bvflag     sflag     rflag     tflag      pvid      sraf       ref        hu
       0.0       0.0       0.0       0.0         0       0.0       0.0      0.01
$#      d0        n0        n1        n2        n3        c0        c1        c2
       0.0       0.0       0.0       0.0       0.0       0.0       0.0       0.0
$#      c3        c4        c5       aij       sij      minr      maxr     shape
       0.0       0.0       0.0       0.0       0.01.00000E-5       1.0       3.5
$#   expon     riuld     pdopt
       1.0       0.0       0.0
*DEFINE_TABLE_TITLE
EPS70kgpqm_Stress-Strain-Strainrate_Tbl
$#    tbid       sfa      offa
    100070
$#             value      lcid
    9.9999997474e-06    100071
    9.9999997474e-05    100072
               0.001    100073
                0.01    100074
                 0.1    100075
*DEFINE_CURVE_TITLE
EPS70kgpqm_Stress-Strain_1e-5_Crv
$#    lcid      sidr       sfa       sfo      offa      offo    dattyp     lcint
    100071         0       1.0       1.0       0.0       0.0         0         0
$#                a1                  o1
                 0.0                 0.0
                0.01    1.6731300275e-04
                0.02    3.3805798739e-04
                0.03    5.1234097918e-04
                0.04    5.1595998229e-04
                0.05    5.1965500461e-04
                0.06    5.2342901472e-04
                0.07    5.2728399169e-04
                0.08    5.3122401005e-04
                0.09    5.3525099065e-04
                 0.1    5.3936801851e-04
                0.11    5.4357800400e-04
                0.12    5.4788397392e-04
                0.13    5.5228901329e-04
                0.14    5.5679801153e-04
                0.15    5.6141399546e-04
                0.16    5.6613999186e-04
                0.17    5.7098001707e-04
                0.18    5.7594000828e-04
                0.19    5.8102200273e-04
                 0.2    5.8623199584e-04
                0.21    5.9157598298e-04
                0.22    5.9705699096e-04
                0.23    6.0268101515e-04
                0.24    6.0845399275e-04
                0.25    6.1438302509e-04
                0.26    6.2047201209e-04
                0.27    6.2672997592e-04
                0.28    6.3316198066e-04
                0.29    6.3977699028e-04
                 0.3    6.4658297924e-04
                0.31    6.5358699067e-04
                0.32    6.6079897806e-04
                0.33    6.6822697408e-04
                0.34    6.7588302772e-04
                0.35    6.8377499701e-04
                0.36    6.9191597868e-04
                0.37    7.0031802170e-04
                0.38    7.0899300044e-04
                0.39    7.1795500116e-04
                 0.4    7.2721799370e-04
                0.41    7.3679798516e-04
                0.42    7.4670999311e-04
                0.43    7.5697398279e-04
                0.44    7.6760700904e-04
                0.45    7.7863101615e-04
                0.46    7.9006701708e-04
                0.47    8.0193800386e-04
                0.48    8.1427098485e-04
                0.49    8.2709098933e-04
                 0.5    8.4042997332e-04
                0.51    8.5431901971e-04
                0.52    8.6879200535e-04
                0.53    8.8388798758e-04
                0.54    8.9964701328e-04
                0.55    9.1611500829e-04
                0.56    9.3333900440e-04
                0.57    9.5137400785e-04
                0.58    9.7027799347e-04
                0.59    9.9011498969e-04
                 0.6            0.001011
                0.61           0.0010329
                0.62            0.001056
                0.63           0.0010803
                0.64           0.0011061
                0.65           0.0011333
                0.66           0.0011621
                0.67           0.0011928
                0.68           0.0012253
                0.69             0.00126
                 0.7           0.0012971
                0.71           0.0013367
                0.72           0.0013793
                0.73            0.001425
                0.74           0.0014743
                0.75           0.0015277
                0.76           0.0015856
                0.77           0.0016486
                0.78           0.0017175
                0.79           0.0017931
                 0.8           0.0018765
                0.81           0.0019689
                0.82           0.0020718
                0.83           0.0021872
                0.84           0.0023174
                0.85           0.0024656
                0.86           0.0026358
                0.87           0.0028331
                0.88           0.0030647
                0.89           0.0033403
                 0.9           0.0036737
                0.91           0.0040854
                0.92           0.0046065
                0.93            0.005287
                0.94           0.0460277
*DEFINE_CURVE_TITLE
EPS70kgpqm_Stress-Strain_1e-4_Crv
$#    lcid      sidr       sfa       sfo      offa      offo    dattyp     lcint
    100072         0       1.0       1.0       0.0       0.0         0         0
$#                a1                  o1
                 0.0                 0.0
                0.01    1.9330999930e-04
                0.02    3.9003501297e-04
                0.03    5.9028301621e-04
                0.04    5.9361301828e-04
                0.05    5.9702002909e-04
                0.06    6.0050497996e-04
                0.07    6.0407101410e-04
                0.08    6.0772197321e-04
                0.09    6.1145902146e-04
                 0.1    6.1528501101e-04
                0.11    6.1920401640e-04
                0.12    6.2321900623e-04
                0.13    6.2733300729e-04
                0.14    6.3154997770e-04
                0.15    6.3587201294e-04
                0.16    6.4030499198e-04
                0.17    6.4485199982e-04
                0.18    6.4951699460e-04
                0.19    6.5430498216e-04
                 0.2    6.5921997884e-04
                0.21    6.6426699050e-04
                0.22    6.6945102299e-04
                0.23    6.7477801349e-04
                0.24    6.8025302608e-04
                0.25    6.8588298745e-04
                0.26    6.9167301990e-04
                0.27    6.9762999192e-04
                0.28    7.0376199437e-04
                0.29    7.1007502265e-04
                 0.3    7.1657699300e-04
                0.31    7.2327698581e-04
                0.32    7.3018402327e-04
                0.33    7.3730701115e-04
                0.34    7.4465497164e-04
                0.35    7.5224001193e-04
                0.36    7.6007202733e-04
                0.37    7.6816300862e-04
                0.38    7.7652698383e-04
                0.39    7.8517501242e-04
                 0.4    7.9412397463e-04
                0.41    8.0338702537e-04
                0.42    8.1298302393e-04
                0.43    8.2292698789e-04
                0.44    8.3323998842e-04
                0.45    8.4394100122e-04
                0.46    8.5505202878e-04
                0.47    8.6659699446e-04
                0.48    8.7859999621e-04
                0.49    8.9109002147e-04
                 0.5    9.0409500990e-04
                0.51    9.1764697572e-04
                0.52    9.3178200768e-04
                0.53    9.4653497217e-04
                0.54    9.6194999060e-04
                0.55    9.7806903068e-04
                0.56    9.9494203459e-04
                0.57           0.0010126
                0.58           0.0010312
                0.59           0.0010506
                 0.6           0.0010711
                0.61           0.0010927
                0.62           0.0011154
                0.63           0.0011394
                0.64           0.0011647
                0.65           0.0011915
                0.66             0.00122
                0.67           0.0012502
                0.68           0.0012823
                0.69           0.0013166
                 0.7           0.0013532
                0.71           0.0013924
                0.72           0.0014344
                0.73           0.0014797
                0.74           0.0015285
                0.75           0.0015813
                0.76           0.0016387
                0.77           0.0017012
                0.78           0.0017695
                0.79           0.0018445
                 0.8           0.0019272
                0.81           0.0020188
                0.82            0.002121
                0.83           0.0022356
                0.84            0.002365
                0.85           0.0025122
                0.86           0.0026812
                0.87           0.0028774
                0.88           0.0031076
                0.89           0.0033816
                 0.9           0.0037132
                0.91           0.0041227
                0.92            0.004641
                0.93           0.0053181
                0.94           0.0462235
*DEFINE_CURVE_TITLE
EPS70kgpqm_Stress-Strain_1e-3_Crv
$#    lcid      sidr       sfa       sfo      offa      offo    dattyp     lcint
    100073         0       1.0       1.0       0.0       0.0         0         0
$#                a1                  o1
                 0.0                 0.0
                0.01    2.1930600633e-04
                0.02    4.4201200944e-04
                0.03    6.6822400549e-04
                0.04    6.7126599606e-04
                0.05    6.7438400583e-04
                0.06    6.7758100340e-04
                0.07    6.8085797830e-04
                0.08    6.8421900505e-04
                0.09    6.8766600452e-04
                 0.1    6.9120200351e-04
                0.11    6.9483101834e-04
                0.12    6.9855398033e-04
                0.13    7.0237700129e-04
                0.14    7.0630101254e-04
                0.15    7.1033101995e-04
                0.16    7.1447098162e-04
                0.17    7.1872398257e-04
                0.18    7.2309502866e-04
                0.19    7.2758801980e-04
                 0.2    7.3220697232e-04
                0.21    7.3695799801e-04
                0.22    7.4184598634e-04
                0.23    7.4687501183e-04
                0.24    7.5205299072e-04
                0.25    7.5738300802e-04
                0.26    7.6287402771e-04
                0.27    7.6853000792e-04
                0.28    7.7436101856e-04
                0.29    7.8037200728e-04
                 0.3    7.8657100676e-04
                0.31    7.9296802869e-04
                0.32    7.9956999980e-04
                0.33    8.0638600048e-04
                0.34    8.1342802150e-04
                0.35    8.2070502685e-04
                0.36    8.2822702825e-04
                0.37    8.3600799553e-04
                0.38    8.4405997768e-04
                0.39    8.5239601322e-04
                 0.4    8.6103001377e-04
                0.41    8.6997699691e-04
                0.42    8.7925500702e-04
                0.43    8.8887999300e-04
                0.44    8.9887197828e-04
                0.45    9.0924999677e-04
                0.46    9.2003698228e-04
                0.47    9.3125499552e-04
                0.48    9.4292900758e-04
                0.49    9.5508800587e-04
                 0.5    9.6775899874e-04
                0.51    9.8097603768e-04
                0.52    9.9477102049e-04
                0.53           0.0010092
                0.54           0.0010243
                0.55             0.00104
                0.56           0.0010565
                0.57           0.0010739
                0.58            0.001092
                0.59           0.0011112
                 0.6           0.0011313
                0.61           0.0011524
                0.62           0.0011748
                0.63           0.0011984
                0.64           0.0012233
                0.65           0.0012497
                0.66           0.0012778
                0.67           0.0013076
                0.68           0.0013393
                0.69           0.0013731
                 0.7           0.0014093
                0.71            0.001448
                0.72           0.0014896
                0.73           0.0015344
                0.74           0.0015827
                0.75            0.001635
                0.76           0.0016918
                0.77           0.0017537
                0.78           0.0018214
                0.79           0.0018958
                 0.8           0.0019778
                0.81           0.0020688
                0.82           0.0021702
                0.83            0.002284
                0.84           0.0024125
                0.85           0.0025587
                0.86           0.0027267
                0.87           0.0029216
                0.88           0.0031505
                0.89           0.0034229
                 0.9           0.0037527
                0.91             0.00416
                0.92           0.0046756
                0.93           0.0053491
                0.94           0.0464192
*DEFINE_CURVE_TITLE
EPS70kgpqm_Stress-Strain_1e-2_Crv
$#    lcid      sidr       sfa       sfo      offa      offo    dattyp     lcint
    100074         0       1.0       1.0       0.0       0.0         0         0
$#                a1                  o1
                 0.0                 0.0
                0.01    2.4530300288e-04
                0.02    4.9398897681e-04
                0.03    7.4616499478e-04
                0.04    7.4891897384e-04
                0.05    7.5174897211e-04
                0.06    7.5465702685e-04
                0.07    7.5764500070e-04
                0.08    7.6071702642e-04
                0.09    7.6387397712e-04
                 0.1    7.6711998554e-04
                0.11    7.7045697253e-04
                0.12    7.7389000216e-04
                0.13    7.7742000576e-04
                0.14    7.8105297871e-04
                0.15    7.8479002696e-04
                0.16    7.8863697127e-04
                0.17    7.9259602353e-04
                0.18    7.9667300452e-04
                0.19    8.0087099923e-04
                 0.2    8.0519501353e-04
                0.21    8.0964999506e-04
                0.22    8.1424001837e-04
                0.23    8.1897299970e-04
                0.24    8.2385202404e-04
                0.25    8.2888302859e-04
                0.26    8.3407398779e-04
                0.27    8.3943101345e-04
                0.28    8.4495998453e-04
                0.29    8.5066899192e-04
                 0.3    8.5656502051e-04
                0.31    8.6265802383e-04
                0.32    8.6895498680e-04
                0.33    8.7546597933e-04
                0.34    8.8220101316e-04
                0.35    8.8916899404e-04
                0.36    8.9638301870e-04
                0.37    9.0385298245e-04
                0.38    9.1159297153e-04
                0.39    9.1961602448e-04
                 0.4    9.2793500517e-04
                0.41    9.3656702666e-04
                0.42    9.4552699011e-04
                0.43    9.5483398763e-04
                0.44    9.6450402634e-04
                0.45    9.7455998184e-04
                0.46    9.8502205219e-04
                0.47    9.9591305479e-04
                0.48           0.0010073
                0.49           0.0010191
                 0.5           0.0010314
                0.51           0.0010443
                0.52           0.0010578
                0.53           0.0010718
                0.54           0.0010865
                0.55            0.001102
                0.56           0.0011181
                0.57           0.0011351
                0.58           0.0011529
                0.59           0.0011717
                 0.6           0.0011914
                0.61           0.0012122
                0.62           0.0012342
                0.63           0.0012574
                0.64           0.0012819
                0.65            0.001308
                0.66           0.0013356
                0.67            0.001365
                0.68           0.0013963
                0.69           0.0014297
                 0.7           0.0014654
                0.71           0.0015036
                0.72           0.0015448
                0.73           0.0015891
                0.74           0.0016369
                0.75           0.0016887
                0.76           0.0017449
                0.77           0.0018063
                0.78           0.0018734
                0.79           0.0019471
                 0.8           0.0020285
                0.81           0.0021188
                0.82           0.0022194
                0.83           0.0023324
                0.84             0.00246
                0.85           0.0026053
                0.86           0.0027722
                0.87           0.0029659
                0.88           0.0031934
                0.89           0.0034643
                 0.9           0.0037922
                0.91           0.0041973
                0.92           0.0047101
                0.93           0.0053802
                0.94           0.0466149
*DEFINE_CURVE_TITLE
EPS70kgpqm_Stress-Strain_1e-1_Crv
$#    lcid      sidr       sfa       sfo      offa      offo    dattyp     lcint
    100075         0       1.0       1.0       0.0       0.0         0         0
$#                a1                  o1
                 0.0                 0.0
                0.01    2.7129999944e-04
                0.02    5.4596702103e-04
                0.03    8.2410598407e-04
                0.04    8.2657299936e-04
                0.05    8.2911399659e-04
                0.06    8.3173299208e-04
                0.07    8.3443202311e-04
                0.08    8.3721400006e-04
                0.09    8.4008101840e-04
                 0.1    8.4303697804e-04
                0.11    8.4608397447e-04
                0.12    8.4922497626e-04
                0.13    8.5246399976e-04
                0.14    8.5580401355e-04
                0.15    8.5924897576e-04
                0.16    8.6280197138e-04
                0.17    8.6646800628e-04
                0.18    8.7024999084e-04
                0.19    8.7415298913e-04
                 0.2    8.7818200700e-04
                0.21    8.8234100258e-04
                0.22    8.8663498173e-04
                0.23    8.9106999803e-04
                0.24    8.9565099915e-04
                0.25    9.0038398048e-04
                0.26    9.0527499560e-04
                0.27    9.1033097124e-04
                0.28    9.1555900872e-04
                0.29    9.2096597655e-04
                 0.3    9.2656002380e-04
                0.31    9.3234801898e-04
                0.32    9.3834102154e-04
                0.33    9.4454601640e-04
                0.34    9.5097301528e-04
                0.35    9.5763400896e-04
                0.36    9.6453801962e-04
                0.37    9.7169802757e-04
                0.38    9.7912701312e-04
                0.39    9.8683603574e-04
                 0.4    9.9484098610e-04
                0.41           0.0010032
                0.42           0.0010118
                0.43           0.0010208
                0.44           0.0010301
                0.45           0.0010399
                0.46             0.00105
                0.47           0.0010606
                0.48           0.0010716
                0.49           0.0010831
                 0.5           0.0010951
                0.51           0.0011076
                0.52           0.0011207
                0.53           0.0011345
                0.54           0.0011489
                0.55           0.0011639
                0.56           0.0011797
                0.57           0.0011964
                0.58           0.0012138
                0.59           0.0012322
                 0.6           0.0012516
                0.61            0.001272
                0.62           0.0012936
                0.63           0.0013164
                0.64           0.0013406
                0.65           0.0013662
                0.66           0.0013934
                0.67           0.0014224
                0.68           0.0014532
                0.69           0.0014862
                 0.7           0.0015215
                0.71           0.0015593
                0.72              0.0016
                0.73           0.0016438
                0.74           0.0016911
                0.75           0.0017423
                0.76           0.0017981
                0.77           0.0018588
                0.78           0.0019254
                0.79           0.0019985
                 0.8           0.0020792
                0.81           0.0021687
                0.82           0.0022686
                0.83           0.0023808
                0.84           0.0025075
                0.85           0.0026518
                0.86           0.0028177
                0.87           0.0030102
                0.88           0.0032363
                0.89           0.0035056
                 0.9           0.0038317
                0.91           0.0042346
                0.92           0.0047447
                0.93           0.0054113
                0.94           0.0468107
*SET_NODE_LIST
$#     sid       da1       da2       da3       da4    solver       its         -
         1       0.0       0.0       0.0       0.0MECH               1          
$#    nid1      nid2      nid3      nid4      nid5      nid6      nid7      nid8
      6217      6210      6212      6215      6220      6226      6223      6219
      6213         0         0         0         0         0         0         0
*SET_NODE_LIST
$#     sid       da1       da2       da3       da4    solver       its         -
         2       0.0       0.0       0.0       0.0MECH               1          
$#    nid1      nid2      nid3      nid4      nid5      nid6      nid7      nid8
      2596      2605      2602      2598      2592      2589      2591      2594
      2599         0         0         0         0         0         0         0
*CONSTRAINED_NODAL_RIGID_BODY
$#     pid       cid      nsid     pnode      iprt    drflag    rrflag
     16693         0         1         0         0         0         0
*CONSTRAINED_NODAL_RIGID_BODY
$#     pid       cid      nsid     pnode      iprt    drflag    rrflag
     16694         0         2         0         0         0         0
*ELEMENT_SOLID (ten nodes format)
$#   eid     pid
      31    1377
$#    n1      n2      n3      n4      n5      n6      n7      n8      n9     n10
    1219       5      13    1227     772     772     772     772       0       0
      35    1377
       5    1219    1214       6     952     952     952     952       0       0
      62    1377
    1227      13      21    1233     933     933     933     933       0       0
      63    1377
    1233      21     247    1243    1315    1315    1315    1315       0       0
      64    1377
     322    1251    1243     247     239     239     239     239       0       0
      65    1377
      13    1227     772     933     933     933     933     933       0       0
      66    1377
       5    1219     952     772     772     772     772     772       0       0
      67    1377
    1209       2       6    1214     955     955     955     955       0       0
      68    1377
    2875     108     109    2878     253     253     253     253       0       0
      69    1377
     108    2875    1251     322     260     260     260     260       0       0
      70    1377
    2886     119     115    2882     347     347     347     347       0       0
      71    1377
    2882     115    3879    5061     287     287     287     287       0       0
      72    1377
    2891     123     119    2886     412     412     412     412       0       0
      73    1377
    2898     128     123    2891     402     402     402     402       0       0
      74    1377
       6    1214     955     952     952     952     952     952       0       0
      75    1377
    2903     131     128    2898     329     329     329     329       0       0
      76    1377
    2878     109     112    2880     334     334     334     334       0       0
      77    1377
    1629       5       6    1626     952     952     952     952       0       0
      78    1377
    2880     112     113    2885     323     323     323     323       0       0
      79    1377
    2878    1269    1262    2875     216     216     216     216       0       0
      80    1377
    2905     138     131    2903     359     359     359     359       0       0
      81    1377
    2907     142     138    2905     415     415     415     415       0       0
      82    1377
    1626       6       2     955     955     955     955     955       0       0
      83    1377
      21    1233     933    1315    1315    1315    1315    1315       0       0
      84    1377
      13       5    1629    1634     772     772     772     772       0       0
      85    1377
    2909     143     142    2907     421     421     421     421       0       0
      86    1377
    2885     113     118    2888     406     406     406     406       0       0
      87    1377
    1269    2878    2880    1278     344     344     344     344       0       0
      88    1377
    2882    5061    5060    2879     431     431     431     431       0       0
      89    1377
    2888     118     122    2892     667     667     667     667       0       0
      90    1377
    2883    2891    2886    2879     410     410     410     410       0       0
      91    1377
    1629       5     952     772     772     772     772     772       0       0
      92    1377
    2889    2898    2891    2883     404     404     404     404       0       0
      93    1377
    2901     129     136     451     451     451     451     451       0       0
      94    1377
    2906     140     143    2909     105     105     105     105       0       0
      95    1377
    2886    2882    2879     871     871     871     871     871       0       0
      96    1377
    2897     126     129    2901     491     491     491     491       0       0
      97    1377
    2903    2898    2889     815     815     815     815     815       0       0
      98    1377
    2892     122     126    2897     534     534     534     534       0       0
      99    1377
    2901     136     140    2906     428     428     428     428       0       0
     100    1377
    2588    1219    1227    2593     772     772     772     772       0       0
     101    1377
    1227    2593     772     933     933     933     933     933       0       0
     102    1377
    2588    1219     772     952     952     952     952     952       0       0
     103    1377
    1634      13     772     933     933     933     933     933       0       0
     104    1377
    2584    1209    1214     955     955     955     955     955       0       0
     105    1377
    2888    1290    1278    2885     396     396     396     396       0       0
     106    1377
    2875    1251     260    1262    1262    1262    1262    1262       0       0
     107    1377
    1626       6     955     952     952     952     952     952       0       0
     108    1377
    2893    2905    2903    2889     358     358     358     358       0       0
     109    1377
    1694     322     247     185     239     239     239     239       0       0
     110    1377
    2892    1299    1290    2888     915     915     915     915       0       0
     111    1377
    1243     247     239    1315    1315    1315    1315    1315       0       0
     112    1377
    1638      21      13    1634     933     933     933     933       0       0
     113    1377
    2896    2907    2905    2893     398     398     398     398       0       0
     114    1377
    2900    2909    2907    2896     110     110     110     110       0       0
     115    1377
    2593    1227    1233    2597     933     933     933     933       0       0
     116    1377
    2899    2906    2909    2900      53      53      53      53       0       0
     117    1377
    2875     108     253     260     260     260     260     260       0       0
     118    1377
    2875    2878     216     253     253     253     253     253       0       0
     119    1377
    1701     115     119    1704     347     347     347     347       0       0
     120    1377
    2584    1214    1219    2588     952     952     952     952       0       0
     121    1377
    1709     123     128    1713     402     402     402     402       0       0
     122    1377
    1704     119     123    1709     412     412     412     412       0       0
     123    1377
    2879    5060    3635    1271     536     536     536     536       0       0
     124    1377
    1318    2901    2906    2899      34      34      34      34       0       0
     125    1377
    2901    1318    1309    2897    1555    1555    1555    1555       0       0
     126    1377
    1299    2892    2897    1309    1486    1486    1486    1486       0       0
     127    1377
    1638     185     247      21    1315    1315    1315    1315       0       0
     128    1377
    1695     108     322    1694     260     260     260     260       0       0
     129    1377
    3926    3879     115    1701     287     287     287     287       0       0
     130    1377
    1251     322     260     239     239     239     239     239       0       0
     131    1377
     109    2878     253     334     334     334     334     334       0       0
     132    1377
    1696     109     108    1695     253     253     253     253       0       0
     133    1377
    1713     128     131    1718     329     329     329     329       0       0
     134    1377
    1262    2875     216     260     260     260     260     260       0       0
     135    1377
    2883    1280    1294    2889    1087    1087    1087    1087       0       0
     136    1377
    2879    1271    1280    2883    1088    1088    1088    1088       0       0
     137    1377
    1278    2885     396    2880    2880    2880    2880    2880       0       0
     138    1377
    1718     131     138    1723     359     359     359     359       0       0
     139    1377
    2889    1294    1304    2893     703     703     703     703       0       0
     140    1377
    2900    1317    1322    2899     267     267     267     267       0       0
     141    1377
    2886     119     347     412     412     412     412     412       0       0
     142    1377
     115    2882     347     287     287     287     287     287       0       0
     143    1377
    2878    1269     216     344     344     344     344     344       0       0
     144    1377
    1723     138     142    1727     415     415     415     415       0       0
     145    1377
    2896    2893    1304    1317     393     393     393     393       0       0
     146    1377
     123    2891     402     412     412     412     412     412       0       0
     147    1377
    2584    1214     952     955     955     955     955     955       0       0
     148    1377
    2880     112     323     334     334     334     334     334       0       0
     149    1377
    1233    2597     933    1315    1315    1315    1315    1315       0       0
     150    1377
    1698     112     109    1696     334     334     334     334       0       0
     151    1377
    1727     142     143    1729     421     421     421     421       0       0
     152    1377
     128    2898     329     402     402     402     402     402       0       0
     153    1377
     113    2885     323     406     406     406     406     406       0       0
     154    1377
    2885    2880     323     396     396     396     396     396       0       0
     155    1377
    2891    2898     402     404     404     404     404     404       0       0
     156    1377
    1702     113     112    1698     323     323     323     323       0       0
     157    1377
    2878    2880     344     334     334     334     334     334       0       0
     158    1377
    5061    2882     287     431     431     431     431     431       0       0
     159    1377
     247     185     239    1315    1315    1315    1315    1315       0       0
     160    1377
    2597    1233    1243    2603    1315    1315    1315    1315       0       0
     161    1377
    2882    2886     347     871     871     871     871     871       0       0
     162    1377
    1694     322     239     260     260     260     260     260       0       0
     163    1377
      21    1638    1315     933     933     933     933     933       0       0
     164    1377
     216    2875     253     260     260     260     260     260       0       0
     165    1377
    2891    2886     410     412     412     412     412     412       0       0
     166    1377
    2903     131     329     359     359     359     359     359       0       0
     167    1377
    1209       2     955     624     624     624     624     624       0       0
     168    1377
    2900    2896    1317    2650    2650    2650    2650    2650       0       0
     169    1377
    2878     216     253     334     334     334     334     334       0       0
     170    1377
    2880    1278     344     396     396     396     396     396       0       0
     171    1377
    1729     143     140    1728     105     105     105     105       0       0
     172    1377
    2898    2903     329     815     815     815     815     815       0       0
     173    1377
    2905     138     359     415     415     415     415     415       0       0
     174    1377
    2603    1243    1251    2608     239     239     239     239       0       0
     175    1377
    2907     142     415     421     421     421     421     421       0       0
     176    1377
    1696     109     253     334     334     334     334     334       0       0
     177    1377
    1728     140     136    1725     428     428     428     428       0       0
     178    1377
    1695     108     260     253     253     253     253     253       0       0
     179    1377
    2891    2883     404     410     410     410     410     410       0       0
     180    1377
    1707     118     113    1702     406     406     406     406       0       0
     181    1377
    1711     122     118    1707     667     667     667     667       0       0
     182    1377
    2889    2898     404     815     815     815     815     815       0       0
     183    1377
    1720     129     126    1715     491     491     491     491       0       0
     184    1377
     119    1704     347     412     412     412     412     412       0       0
     185    1377
    2593     772     933    1634    1634    1634    1634    1634       0       0
     186    1377
    2885    2888     396     406     406     406     406     406       0       0
     187    1377
     118    2888     406     667     667     667     667     667       0       0
     188    1377
    1725     136     129    1720     451     451     451     451       0       0
     189    1377
    2879    2882     431     871     871     871     871     871       0       0
     190    1377
    1709     123     402     412     412     412     412     412       0       0
     191    1377
    5060    2879     431     536     536     536     536     536       0       0
     192    1377
    2892    2888     667     915     915     915     915     915       0       0
     193    1377
    1715     126     122    1711     534     534     534     534       0       0
     194    1377
     115    1701     287     347     347     347     347     347       0       0
     195    1377
    2888    1290     396     915     915     915     915     915       0       0
     196    1377
    2886    2879     410     871     871     871     871     871       0       0
     197    1377
     122    2892     667     534     534     534     534     534       0       0
     198    1377
    6376    5061    3879    6380     287     287     287     287       0       0
     199    1377
    2603    1243     239    1315    1315    1315    1315    1315       0       0
     200    1377
    2903    2905     359     358     358     358     358     358       0       0
     201    1377
     772     952    1629    2732    2732    2732    2732    2732       0       0
     202    1377
    2883    2889     404    1087    1087    1087    1087    1087       0       0
     203    1377
     216    2878     344     334     334     334     334     334       0       0
     204    1377
    1713     128     329     402     402     402     402     402       0       0
     205    1377
    2909     143     421     105     105     105     105     105       0       0
     206    1377
    2879    2883     410    1088    1088    1088    1088    1088       0       0
     207    1377
    2608    1251    1262    2613     260     260     260     260       0       0
     208    1377
    2892    1299     915    1486    1486    1486    1486    1486       0       0
     209    1377
     126    2897     534     491     491     491     491     491       0       0
     210    1377
    1698     112     334     323     323     323     323     323       0       0
     211    1377
     129    2901     491     451     451     451     451     451       0       0
     212    1377
    2901    2897     491    1555    1555    1555    1555    1555       0       0
     213    1377
    2880     344     334     323     323     323     323     323       0       0
     214    1377
    2903    2889     358     815     815     815     815     815       0       0
     215    1377
    1271    2879     536    1088    1088    1088    1088    1088       0       0
     216    1377
     347    2886     412     410     410     410     410     410       0       0
     217    1377
     410     412     402    2891    2891    2891    2891    2891       0       0
     218    1377
    2613    1262    1269    2618     216     216     216     216       0       0
     219    1377
    2613    1262     216     260     260     260     260     260       0       0
     220    1377
    1629    1634     772    2732    2732    2732    2732    2732       0       0
     221    1377
    3879    6380     287    3926    3926    3926    3926    3926       0       0
     222    1377
    2608    1251     260     239     239     239     239     239       0       0
     223    1377
    1718     131     359     329     329     329     329     329       0       0
     224    1377
    1702     113     323     406     406     406     406     406       0       0
     225    1377
     344    2880     396     323     323     323     323     323       0       0
     226    1377
    2909    2907     110     421     421     421     421     421       0       0
     227    1377
    2907    2905     398     415     415     415     415     415       0       0
     228    1377
    1723     138     415     359     359     359     359     359       0       0
     229    1377
    2897    2892     534    1486    1486    1486    1486    1486       0       0
     230    1377
    2901     136     428     451     451     451     451     451       0       0
     231    1377
    2901    2906      34     428     428     428     428     428       0       0
     232    1377
    2899    2900     267      53      53      53      53      53       0       0
     233    1377
    2906     140     105     428     428     428     428     428       0       0
     234    1377
     402     404     410    2891    2891    2891    2891    2891       0       0
     235    1377
    2898     402     404     815     815     815     815     815       0       0
     236    1377
    2593    2588     772    2732    2732    2732    2732    2732       0       0
     237    1377
    2897    1309    1486    1555    1555    1555    1555    1555       0       0
     238    1377
     323    2885     396     406     406     406     406     406       0       0
     239    1377
    1318    2901      34    1555    1555    1555    1555    1555       0       0
     240    1377
    1727     142     421     415     415     415     415     415       0       0
     241    1377
    2906    2909      53     105     105     105     105     105       0       0
     242    1377
    1280    2883    1088    1087    1087    1087    1087    1087       0       0
     243    1377
    2889    2893     358     703     703     703     703     703       0       0
     244    1377
    2889    1294     703    1087    1087    1087    1087    1087       0       0
     245    1377
     329    2898     815     402     402     402     402     402       0       0
     246    1377
    2893    2905     358     398     398     398     398     398       0       0
     247    1377
     431    2882     287     871     871     871     871     871       0       0
     248    1377
    2899    2906      53      34      34      34      34      34       0       0
     249    1377
    2900    2909     110      53      53      53      53      53       0       0
     250    1377
    2907    2896     110     398     398     398     398     398       0       0
     251    1377
    2618    1269     344     216     216     216     216     216       0       0
     252    1377
    2888     406     915     396     396     396     396     396       0       0
     253    1377
     347    2882     871     287     287     287     287     287       0       0
     254    1377
    1626       2     624     955     955     955     955     955       0       0
     255    1377
    2896    2893     393     398     398     398     398     398       0       0
     256    1377
    2618    1269    1278    2625     344     344     344     344       0       0
     257    1377
    6375    5060    5061    6376     431     431     431     431       0       0
     258    1377
     329    2903     359     815     815     815     815     815       0       0
     259    1377
    2893    1304     393     703     703     703     703     703       0       0
     260    1377
     118    1707     667     406     406     406     406     406       0       0
     261    1377
    2888     406     667     915     915     915     915     915       0       0
     262    1377
    2886     347     871     410     410     410     410     410       0       0
     263    1377
    2892     534     915     667     667     667     667     667       0       0
     264    1377
    6376    5061     287     431     431     431     431     431       0       0
     265    1377
     955     952    2584    1626    1626    1626    1626    1626       0       0
     266    1377
     404    1087     410    2883    2883    2883    2883    2883       0       0
     267    1377
     122    1711     534     667     667     667     667     667       0       0
     268    1377
    2597     933    1315    1638    1638    1638    1638    1638       0       0
     269    1377
     126    1715     491     534     534     534     534     534       0       0
     270    1377
       2    1209    1208       3     624     624     624     624       0       0
     271    1377
    2883    1087     410    1088    1088    1088    1088    1088       0       0
     272    1377
    2879     536     871     431     431     431     431     431       0       0
     273    1377
    2652    1318    1322    2654    2899    2899    2899    2899       0       0
     274    1377
    2900    1317     267    2650    2650    2650    2650    2650       0       0
     275    1377
     772     952    2732    2588    2588    2588    2588    2588       0       0
     276    1377
    1729     143     105     421     421     421     421     421       0       0
     277    1377
    1322    2899     267    2654    2654    2654    2654    2654       0       0
     278    1377
    2625    1278    1290    2634     396     396     396     396       0       0
     279    1377
     359    2903     358     815     815     815     815     815       0       0
     280    1377
    2892     534    1486     915     915     915     915     915       0       0
     281    1377
    2897     491    1555    1486    1486    1486    1486    1486       0       0
     282    1377
    2625    1278     396     344     344     344     344     344       0       0
     283    1377
    2879     536    1088     871     871     871     871     871       0       0
     284    1377
     129    1720     451     491     491     491     491     491       0       0
     285    1377
     491    2901    1555     451     451     451     451     451       0       0
     286    1377
     536    2619    1271    1088    1088    1088    1088    1088       0       0
     287    1377
    1088    2879     871     410     410     410     410     410       0       0
     288    1377
     136    1725     428     451     451     451     451     451       0       0
     289    1377
    2896    2900     110    2650    2650    2650    2650    2650       0       0
     290    1377
     398     358     359    2905    2905    2905    2905    2905       0       0
     291    1377
    1626     490     952    2584    2584    2584    2584    2584       0       0
     292    1377
     140    1728     105     428     428     428     428     428       0       0
     293    1377
    2899    1318      34    2652    2652    2652    2652    2652       0       0
     294    1377
    2901      34    1555     451     451     451     451     451       0       0
     295    1377
    6375    5060     431     536     536     536     536     536       0       0
     296    1377
     359     415     398    2905    2905    2905    2905    2905       0       0
     297    1377
    2634    1290    1299    2639     915     915     915     915       0       0
     298    1377
    2897     491    1486     534     534     534     534     534       0       0
     299    1377
    1317    2896     393    2650    2650    2650    2650    2650       0       0
     300    1377
    1290    2634     396     915     915     915     915     915       0       0
     301    1377
     415     421     398    2907    2907    2907    2907    2907       0       0
     302    1377
     260     253     216    2941    2941    2941    2941    2941       0       0
     303    1377
     334     216     253    2941    2941    2941    2941    2941       0       0
     304    1377
    2906      53      34     428     428     428     428     428       0       0
     305    1377
    4978    3635    5060    6375     536     536     536     536       0       0
     306    1377
     421     105     110    2909    2909    2909    2909    2909       0       0
     307    1377
    1626       2       3    1627     624     624     624     624       0       0
     308    1377
    1695    1696     253     479     479     479     479     479       0       0
     309    1377
     928    2593     933    1634    1634    1634    1634    1634       0       0
     310    1377
    2588    2584     952     490     490     490     490     490       0       0
     311    1377
      34    2901     428     451     451     451     451     451       0       0
     312    1377
    2907     421     398     110     110     110     110     110       0       0
     313    1377
     490    2732     952    2588    2588    2588    2588    2588       0       0
     314    1377
    1299    2639     915    1486    1486    1486    1486    1486       0       0
     315    1377
    1209    2584     624     955     955     955     955     955       0       0
     316    1377
     185    1694     239    1616    1616    1616    1616    1616       0       0
     317    1377
     253     260    1695     479     479     479     479     479       0       0
     318    1377
      53     110     105    2909    2909    2909    2909    2909       0       0
     319    1377
    2597     928     933    1638    1638    1638    1638    1638       0       0
     320    1377
    1634     772    2732    2593    2593    2593    2593    2593       0       0
     321    1377
      53    2906     105     428     428     428     428     428       0       0
     322    1377
    2639    1299    1309    2646    1486    1486    1486    1486       0       0
     323    1377
     358    2893     398     703     703     703     703     703       0       0
     324    1377
    1629    1626     490     952     952     952     952     952       0       0
     325    1377
    2893     393     398     703     703     703     703     703       0       0
     326    1377
    2646    1309    1318    2652    1555    1555    1555    1555       0       0
     327    1377
    1713    1709     402     808     808     808     808     808       0       0
     328    1377
     239    1694     260    1616    1616    1616    1616    1616       0       0
     329    1377
     334     253    1696     479     479     479     479     479       0       0
     330    1377
     404    2889     815    2926    2926    2926    2926    2926       0       0
     331    1377
    2654    1322    1317    2650     267     267     267     267       0       0
     332    1377
    2619    1271    3635    4978     536     536     536     536       0       0
     333    1377
    1727    1723     415     135     135     135     135     135       0       0
     334    1377
     955    2584     624    1626    1626    1626    1626    1626       0       0
     335    1377
    1709    1704     412    1549    1549    1549    1549    1549       0       0
     336    1377
    2889     404    1087    2926    2926    2926    2926    2926       0       0
     337    1377
     344     216     334    2941    2941    2941    2941    2941       0       0
     338    1377
    1704    1701     347    1544    1544    1544    1544    1544       0       0
     339    1377
    2635    1294    1280    2626    1087    1087    1087    1087       0       0
     340    1377
     412    1704     347    1549    1549    1549    1549    1549       0       0
     341    1377
    1709     808     412     402     402     402     402     402       0       0
     342    1377
    1318    2652    1555      34      34      34      34      34       0       0
     343    1377
    2643    1304    1294    2635     703     703     703     703       0       0
     344    1377
    2650    1317    1304    2643     393     393     393     393       0       0
     345    1377
    2626    1280    1271    2619    1088    1088    1088    1088       0       0
     346    1377
    1309    2646    1486    1555    1555    1555    1555    1555       0       0
     347    1377
    1280    2626    1087    1088    1088    1088    1088    1088       0       0
     348    1377
    2899    2654      53     267     267     267     267     267       0       0
     349    1377
    1701    3926     287     236     236     236     236     236       0       0
     350    1377
    1723    1718     359     640     640     640     640     640       0       0
     351    1377
    2635    1294    1087     703     703     703     703     703       0       0
     352    1377
     396     344     323    1397    1397    1397    1397    1397       0       0
     353    1377
    2889     358     815    2926    2926    2926    2926    2926       0       0
     354    1377
     952    1629    2732     490     490     490     490     490       0       0
     355    1377
     703    2889    1087    2926    2926    2926    2926    2926       0       0
     356    1377
    1718    1713     329     690     690     690     690     690       0       0
     357    1377
     323     344     334    1397    1397    1397    1397    1397       0       0
     358    1377
     347    1701     287    1544    1544    1544    1544    1544       0       0
     359    1377
    1723     135     359     415     415     415     415     415       0       0
     360    1377
    2654    2899      53      34      34      34      34      34       0       0
     361    1377
     378    1702     323     406     406     406     406     406       0       0
     362    1377
    1633    1634    1629    2732    2732    2732    2732    2732       0       0
     363    1377
     412     347     410    3132    3132    3132    3132    3132       0       0
     364    1377
    2900     106     267      53      53      53      53      53       0       0
     365    1377
    1304    2643     393     703     703     703     703     703       0       0
     366    1377
     358    2889     703    2926    2926    2926    2926    2926       0       0
     367    1377
     393    2896     398    2650    2650    2650    2650    2650       0       0
     368    1377
     406     396     323    1396    1396    1396    1396    1396       0       0
     369    1377
     815     329     402    3124    3124    3124    3124    3124       0       0
     370    1377
    1729    1727     421     134     134     134     134     134       0       0
     371    1377
     421    1727     415     134     134     134     134     134       0       0
     372    1377
     406     667     915    1402    1402    1402    1402    1402       0       0
     373    1377
    2608    2603     239    1616    1616    1616    1616    1616       0       0
     374    1377
    1695    1694     408     260     260     260     260     260       0       0
     375    1377
    1315     239    2603    1616    1616    1616    1616    1616       0       0
     376    1377
    2654    2899      34    2652    2652    2652    2652    2652       0       0
     377    1377
     479     253     260    2941    2941    2941    2941    2941       0       0
     378    1377
     408    1695     260     479     479     479     479     479       0       0
     379    1377
     410     347     871    3132    3132    3132    3132    3132       0       0
     380    1377
    2618    2613     216    2941    2941    2941    2941    2941       0       0
     381    1377
     514     431     287     871     871     871     871     871       0       0
     382    1377
     534    1486     915    1402    1402    1402    1402    1402       0       0
     383    1377
     239     260    2608    1616    1616    1616    1616    1616       0       0
     384    1377
     110    2896    2650     398     398     398     398     398       0       0
     385    1377
     260     216    2613    2941    2941    2941    2941    2941       0       0
     386    1377
    1694     408     260    1616    1616    1616    1616    1616       0       0
     387    1377
    1087    2926     410    1088    1088    1088    1088    1088       0       0
     388    1377
     287     514     871     347     347     347     347     347       0       0
     389    1377
     359     329     815    3123    3123    3123    3123    3123       0       0
     390    1377
     105    1729     421     590     590     590     590     590       0       0
     391    1377
    2603    2597    1315    1575    1575    1575    1575    1575       0       0
     392    1377
     239     185    1616    1315    1315    1315    1315    1315       0       0
     393    1377
     585     185    1315    1616    1616    1616    1616    1616       0       0
     394    1377
    1707    1711     667     860     860     860     860     860       0       0
     395    1377
    1728    1729     105     590     590     590     590     590       0       0
     396    1377
     406    1707     667    1160    1160    1160    1160    1160       0       0
     397    1377
     216     344    2618    2941    2941    2941    2941    2941       0       0
     398    1377
    1711     534     667     860     860     860     860     860       0       0
     399    1377
     329    1718     640     359     359     359     359     359       0       0
     400    1377
     915    2634     396    1402    1402    1402    1402    1402       0       0
     401    1377
    2613    2608     260    1607    1607    1607    1607    1607       0       0
     402    1377
     378     362     323    1698    1698    1698    1698    1698       0       0
     403    1377
     287    6376     431     514     514     514     514     514       0       0
     404    1377
    1702    1707     406    1160    1160    1160    1160    1160       0       0
     405    1377
    1549     347     412    3132    3132    3132    3132    3132       0       0
     406    1377
    1725    1728     428     633     633     633     633     633       0       0
     407    1377
     236     287    1701    1544    1544    1544    1544    1544       0       0
     408    1377
    1702    1698     378     323     323     323     323     323       0       0
     409    1377
     185    1638     585    1315    1315    1315    1315    1315       0       0
     410    1377
    2593    2597     928     933     933     933     933     933       0       0
     411    1377
    1715    1720     491     701     701     701     701     701       0       0
     412    1377
    2585    1208    1209    2584     624     624     624     624       0       0
     413    1377
     536     375     871     431     431     431     431     431       0       0
     414    1377
     491    1555    1486    2924    2924    2924    2924    2924       0       0
     415    1377
     451    1555     491    2924    2924    2924    2924    2924       0       0
     416    1377
     402    1713     690     329     329     329     329     329       0       0
     417    1377
    1711    1715     534     762     762     762     762     762       0       0
     418    1377
    1720    1725     451     655     655     655     655     655       0       0
     419    1377
    1630    1633    1629    1626     490     490     490     490       0       0
     420    1377
    1715     491     534     762     762     762     762     762       0       0
     421    1377
    2928    1088     871     410     410     410     410     410       0       0
     422    1377
    1720     451     491     701     701     701     701     701       0       0
     423    1377
    2625    2618     344    1397    1397    1397    1397    1397       0       0
     424    1377
    1638    1634     928     933     933     933     933     933       0       0
     425    1377
    1728     105     428     633     633     633     633     633       0       0
     426    1377
     334     323     362    1698    1698    1698    1698    1698       0       0
     427    1377
    1088     536    2619     871     871     871     871     871       0       0
     428    1377
    1544     287     347     514     514     514     514     514       0       0
     429    1377
     396     915    1402     406     406     406     406     406       0       0
     430    1377
    2900     110     106      53      53      53      53      53       0       0
     431    1377
    2593     928    2732    1634    1634    1634    1634    1634       0       0
     432    1377
      34    1555     451    2924    2924    2924    2924    2924       0       0
     433    1377
     344     396    2625    1397    1397    1397    1397    1397       0       0
     434    1377
     536     375     431    6375    6375    6375    6375    6375       0       0
     435    1377
    6380    3926     236     287     287     287     287     287       0       0
     436    1377
    1725     428     451     655     655     655     655     655       0       0
     437    1377
     402     815    3124     404     404     404     404     404       0       0
     438    1377
     139     359     415     398     398     398     398     398       0       0
     439    1377
    1737    1718    1723    1741     640     640     640     640       0       0
     440    1377
     404    3124     402    3241    3241    3241    3241    3241       0       0
     441    1377
    1698    1696     362     334     334     334     334     334       0       0
     442    1377
     667     915    1402     534     534     534     534     534       0       0
     443    1377
    1741    1723    1727    1746     135     135     135     135       0       0
     444    1377
    2900     110    2650     106     106     106     106     106       0       0
     445    1377
     334     253     479    2941    2941    2941    2941    2941       0       0
     446    1377
     110     106      53     105     105     105     105     105       0       0
     447    1377
     398     358     703    2717    2717    2717    2717    2717       0       0
     448    1377
    2639    2634     915    1402    1402    1402    1402    1402       0       0
     449    1377
    2584     319     624    1626    1626    1626    1626    1626       0       0
     450    1377
     415    1727     135     134     134     134     134     134       0       0
     451    1377
    1731    1713    1718    1737     690     690     690     690       0       0
     452    1377
    2740      34     428     451     451     451     451     451       0       0
     453    1377
    1633    1629     490    2732    2732    2732    2732    2732       0       0
     454    1377
    1723     135     640     359     359     359     359     359       0       0
     455    1377
     404    1087    2926     410     410     410     410     410       0       0
     456    1377
    1722    1709    1713    1731     808     808     808     808       0       0
     457    1377
    6376    6375     431     514     514     514     514     514       0       0
     458    1377
     410     412    3241     402     402     402     402     402       0       0
     459    1377
     267    2650     106    2900    2900    2900    2900    2900       0       0
     460    1377
    2926     404     410    3241    3241    3241    3241    3241       0       0
     461    1377
    2634    2625     396    1396    1396    1396    1396    1396       0       0
     462    1377
     860     534     667    1402    1402    1402    1402    1402       0       0
     463    1377
     415     421     134     398     398     398     398     398       0       0
     464    1377
     404     410    3241     402     402     402     402     402       0       0
     465    1377
     375    2619     536     871     871     871     871     871       0       0
     466    1377
    2654     106      53     267     267     267     267     267       0       0
     467    1377
    1714    1704    1709    1722    1549    1549    1549    1549       0       0
     468    1377
     236    6380     287     280     280     280     280     280       0       0
     469    1377
    1616     408     260    1607    1607    1607    1607    1607       0       0
     470    1377
    2928    1088     410    2926    2926    2926    2926    2926       0       0
     471    1377
    1696     334     479     362     362     362     362     362       0       0
     472    1377
    1695    1694     196    1697     408     408     408     408       0       0
     473    1377
    1627    1626     624     319     319     319     319     319       0       0
     474    1377
    1746    1727    1729    1748     134     134     134     134       0       0
     475    1377
     393    2717     703    2643    2643    2643    2643    2643       0       0
     476    1377
    1708    1701    1704    1714    1544    1544    1544    1544       0       0
     477    1377
     428     105      53     111     111     111     111     111       0       0
     478    1377
     421     107     110     105     105     105     105     105       0       0
     479    1377
      53    2654      34    2740    2740    2740    2740    2740       0       0
     480    1377
     319    2584     490    1626    1626    1626    1626    1626       0       0
     481    1377
    1709     808    1549     412     412     412     412     412       0       0
     482    1377
     402    1713     808     690     690     690     690     690       0       0
     483    1377
    1708    3934    3926    1701     236     236     236     236       0       0
     484    1377
     915    2639    1402    1486    1486    1486    1486    1486       0       0
     485    1377
     421     107     398     110     110     110     110     110       0       0
     486    1377
     815     359    3123     358     358     358     358     358       0       0
     487    1377
     329    1718     690     640     640     640     640     640       0       0
     488    1377
     406     323     378    1396    1396    1396    1396    1396       0       0
     489    1377
     185    1694    1616     196     196     196     196     196       0       0
     490    1377
    2650    2654     267     106     106     106     106     106       0       0
     491    1377
     347    1704    1544    1549    1549    1549    1549    1549       0       0
     492    1377
    2597    1315    1575    1638    1638    1638    1638    1638       0       0
     493    1377
    2941     344    1397     334     334     334     334     334       0       0
     494    1377
    1699    1696    1695    1697     479     479     479     479       0       0
     495    1377
    2626    2635    1087    2926    2926    2926    2926    2926       0       0
     496    1377
    1741    1723     135     640     640     640     640     640       0       0
     497    1377
     334     323    1397     362     362     362     362     362       0       0
     498    1377
    1748    1729    1728    1747     590     590     590     590       0       0
     499    1377
    1575     585    1315    1616    1616    1616    1616    1616       0       0
     500    1377
    2650     110     398    2468    2468    2468    2468    2468       0       0
     501    1377
    2652    2646    1555    2924    2924    2924    2924    2924       0       0
     502    1377
       3    1627     624     264     264     264     264     264       0       0
     503    1377
     280    6376     287     514     514     514     514     514       0       0
     504    1377
     703    1087    2635    2926    2926    2926    2926    2926       0       0
     505    1377
     410     412    3132    3241    3241    3241    3241    3241       0       0
     506    1377
     421    1729     134     590     590     590     590     590       0       0
     507    1377
     514     431     871     375     375     375     375     375       0       0
     508    1377
     347     871    3132     514     514     514     514     514       0       0
     509    1377
     701     451     491    2924    2924    2924    2924    2924       0       0
     510    1377
     808    1549     412    3241    3241    3241    3241    3241       0       0
     511    1377
     329     402    3124     690     690     690     690     690       0       0
     512    1377
    2646    2639    1486    1525    1525    1525    1525    1525       0       0
     513    1377
     762     491     534    1525    1525    1525    1525    1525       0       0
     514    1377
     491     534    1525    1486    1486    1486    1486    1486       0       0
     515    1377
     451    2740      34    2924    2924    2924    2924    2924       0       0
     516    1377
    2635    2643     703    2717    2717    2717    2717    2717       0       0
     517    1377
    1697    1695     408     479     479     479     479     479       0       0
     518    1377
    1087    2626    2926    1088    1088    1088    1088    1088       0       0
     519    1377
    2619    2626    1088    2928    2928    2928    2928    2928       0       0
     520    1377
    2643    2650     393    2468    2468    2468    2468    2468       0       0
     521    1377
     375     514     431    6375    6375    6375    6375    6375       0       0
     522    1377
     815     404    2926    3124    3124    3124    3124    3124       0       0
     523    1377
    2588    2594     490    2732    2732    2732    2732    2732       0       0
     524    1377
     260     408     479    1607    1607    1607    1607    1607       0       0
     525    1377
    1397     396    1396     323     323     323     323     323       0       0
     526    1377
     134     415     398     139     139     139     139     139       0       0
     527    1377
     412     808    3241     402     402     402     402     402       0       0
     528    1377
      34      53    2740     428     428     428     428     428       0       0
     529    1377
    1747    1728    1725    1743     633     633     633     633       0       0
     530    1377
    1703    1698    1696    1699     362     362     362     362       0       0
     531    1377
     871     410    3132    2928    2928    2928    2928    2928       0       0
     532    1377
     703     398    2717     393     393     393     393     393       0       0
     533    1377
     135     640     359     139     139     139     139     139       0       0
     534    1377
    2613    2941    1607     260     260     260     260     260       0       0
     535    1377
     135     139     415     134     134     134     134     134       0       0
     536    1377
    2588    2593    2594    2732    2732    2732    2732    2732       0       0
     537    1377
    2608     260    1607    1616    1616    1616    1616    1616       0       0
     538    1377
    1737    1718     640     690     690     690     690     690       0       0
     539    1377
     359     329    3123     640     640     640     640     640       0       0
     540    1377
    1626    1630     490     319     319     319     319     319       0       0
     541    1377
     655     428     451    2740    2740    2740    2740    2740       0       0
     542    1377
    2618     344    1397    2941    2941    2941    2941    2941       0       0
     543    1377
    6376    6380     280     287     287     287     287     287       0       0
     544    1377
    1746    1727     134     135     135     135     135     135       0       0
     545    1377
    1694     196     408    1616    1616    1616    1616    1616       0       0
     546    1377
     378    1160     406    1396    1396    1396    1396    1396       0       0
     547    1377
     393    2468     398    2717    2717    2717    2717    2717       0       0
     548    1377
    1647     196     185    1638     585     585     585     585       0       0
     549    1377
     396    1402    1396     406     406     406     406     406       0       0
     550    1377
     105    1728     590     633     633     633     633     633       0       0
     551    1377
     590     421     105     107     107     107     107     107       0       0
     552    1377
    1555    1486    2924    2646    2646    2646    2646    2646       0       0
     553    1377
    1702     378    1160     406     406     406     406     406       0       0
     554    1377
    1555    2652    2924      34      34      34      34      34       0       0
     555    1377
     667     406    1160    1402    1402    1402    1402    1402       0       0
     556    1377
       3    1208     264     624     624     624     624     624       0       0
     557    1377
     585    1638    1575    1315    1315    1315    1315    1315       0       0
     558    1377
     329     815    3123    3124    3124    3124    3124    3124       0       0
     559    1377
     633     105     428     111     111     111     111     111       0       0
     560    1377
    1710    1702    1698    1703     378     378     378     378       0       0
     561    1377
    1626    1627    1630     319     319     319     319     319       0       0
     562    1377
    1486    1525    1402     534     534     534     534     534       0       0
     563    1377
     358     815    2926    3123    3123    3123    3123    3123       0       0
     564    1377
    1743    1725    1720    1738     655     655     655     655       0       0
     565    1377
      53    2740     428     111     111     111     111     111       0       0
     566    1377
     490    1633    2732     753     753     753     753     753       0       0
     567    1377
    1525    2924    1486    2646    2646    2646    2646    2646       0       0
     568    1377
     196     185     585    1616    1616    1616    1616    1616       0       0
     569    1377
     362     479    2941     334     334     334     334     334       0       0
     570    1377
     260    2941    1607     479     479     479     479     479       0       0
     571    1377
    1722    1709     808    1549    1549    1549    1549    1549       0       0
     572    1377
    1731    1713     690     808     808     808     808     808       0       0
     573    1377
    1396    2634    1402     396     396     396     396     396       0       0
     574    1377
    1088    2619    2928     871     871     871     871     871       0       0
     575    1377
    1396     323     378    1397    1397    1397    1397    1397       0       0
     576    1377
    1315    2603    1575    1616    1616    1616    1616    1616       0       0
     577    1377
     860    1707    1160     667     667     667     667     667       0       0
     578    1377
    6380    3926    3934    6385     236     236     236     236       0       0
     579    1377
      34    2654    2652    2740    2740    2740    2740    2740       0       0
     580    1377
     378     362    1397     323     323     323     323     323       0       0
     581    1377
     703     358    2926    2717    2717    2717    2717    2717       0       0
     582    1377
    2650     393    2468     398     398     398     398     398       0       0
     583    1377
    1729    1748     134     590     590     590     590     590       0       0
     584    1377
    1701    1708     236    1544    1544    1544    1544    1544       0       0
     585    1377
     536    4978    2619     375     375     375     375     375       0       0
     586    1377
     398     358     139     359     359     359     359     359       0       0
     587    1377
    1544     347    1549    3132    3132    3132    3132    3132       0       0
     588    1377
     428    1725     633     655     655     655     655     655       0       0
     589    1377
    1738    1720    1715    1732     701     701     701     701       0       0
     590    1377
    1698    1703     378     362     362     362     362     362       0       0
     591    1377
    1704    1714    1544    1549    1549    1549    1549    1549       0       0
     592    1377
     334    1397    2941     362     362     362     362     362       0       0
     593    1377
    2594    2593     928    2732    2732    2732    2732    2732       0       0
     594    1377
     690     329     640    3123    3123    3123    3123    3123       0       0
     595    1377
    2625     396    1396    1397    1397    1397    1397    1397       0       0
     596    1377
     928    2597    1575    1638    1638    1638    1638    1638       0       0
     597    1377
     359     135     139     415     415     415     415     415       0       0
     598    1377
    1634     753     928    2732    2732    2732    2732    2732       0       0
     599    1377
    1732    1715    1711    1724     762     762     762     762       0       0
     600    1377
    1696    1699     362     479     479     479     479     479       0       0
     601    1377
    1724    1711    1707    1717     860     860     860     860       0       0
     602    1377
    1486     491    2924    1525    1525    1525    1525    1525       0       0
     603    1377
     534    1711     762     860     860     860     860     860       0       0
     604    1377
     808     402     690    3124    3124    3124    3124    3124       0       0
     605    1377
     421     107     134     398     398     398     398     398       0       0
     606    1377
    1634    1633     753    2732    2732    2732    2732    2732       0       0
     607    1377
     491    1715     701     762     762     762     762     762       0       0
     608    1377
     451    1720     655     701     701     701     701     701       0       0
     609    1377
    1728    1747     590     633     633     633     633     633       0       0
     610    1377
     808     402    3124    3241    3241    3241    3241    3241       0       0
     611    1377
     347    1544     514    3132    3132    3132    3132    3132       0       0
     612    1377
    2594     490    2732     753     753     753     753     753       0       0
     613    1377
    2584    2588    2594    2591     490     490     490     490       0       0
     614    1377
    1549     412    3241    3132    3132    3132    3132    3132       0       0
     615    1377
    4978    6375     375     536     536     536     536     536       0       0
     616    1377
    2593    2597    2600    2594     928     928     928     928       0       0
     617    1377
     358     359    3123     139     139     139     139     139       0       0
     618    1377
    1717    1707    1702    1710    1160    1160    1160    1160       0       0
[...]
    6990       -47.06795        57.18701        59.70245       0       0
    6991       -37.57663        56.17841        69.40741       0       0
    6992       -102.2591        58.50153        21.09644       0       0
    6993       -73.62572       -20.00934         69.6813       0       0
    6994       -95.15088        3.230652        36.09204       0       0
    6995       -90.38805        75.62329         1.00174       0       0
    6996       -102.5008        53.33685        25.16602       0       0
    6997       -103.6712         45.7771        29.40488       0       0
    6998       -74.95589       -13.82501        66.58704       0       0
    6999       -60.99565        97.04376        4.772339       0       0
    7000       -93.48055        36.10504        8.874237       0       0
    7001       -69.80334       -11.94012        73.41803       0       0
    7002       -42.35612        80.78394        44.90155       0       0
    7003       -81.39339       -10.16632        58.15799       0       0
    7004       -78.74866         40.2887        42.60477       0       0
    7005       -89.70462       -5.705811        46.20554       0       0
    7006       -85.64874        32.33197         68.1994       0       0
    7007         -84.967        80.62738       -3.672943       0       0
    7008       -82.40784        84.73462       -13.12521       0       0
    7009       -58.65754        62.28284        49.97012       0       0
    7010       -102.0842        18.71252        53.61844       0       0
    7011       -68.22945       -23.78064        77.27515       0       0
    7012       -77.82192        80.28998        26.53641       0       0
    7013       -97.33934        62.71198        17.67294       0       0
    7014       -37.51149        32.80652        92.86148       0       0
    7015       -94.41527        20.72174        58.06693       0       0
    7016       -87.29048        16.41785         68.1344       0       0
    7017       -87.48898        22.93933        62.32275       0       0
    7018         6.86536        65.41986        70.08441       0       0
    7019       -105.9367        19.61523        43.89276       0       0
    7020        -76.4883        65.52863       -16.91348       0       0
    7021       -69.29238        84.71191         9.06723       0       0
    7022       -108.8089       -19.48511        26.99533       0       0
    7023       -84.17903        54.73199        49.92331       0       0
    7024       -49.36775        41.57599        85.06573       0       0
    7025       -9.136349       -1.319885        104.5768       0       0
    7026       -73.68629        43.03192        71.50174       0       0
    7027       -58.08727        51.34857        71.97205       0       0
    7028       -63.84008         55.8183        65.67883       0       0
    7029       -51.41489         86.4917       -29.54117       0       0
    7030        -74.6555        71.77203        16.64798       0       0
    7031       -77.03351        42.76483        63.53299       0       0
    7032       -103.4482        66.54071       -1.085114       0       0
    7033       -102.5995        60.67853        12.26556       0       0
    7034       -84.78671        73.97205        35.16162       0       0
    7035        9.563408        106.5685       -32.34579       0       0
    7036       -51.07308        91.77441        4.195465       0       0
    7037       -44.00481        91.58997        16.97269       0       0
    7038       -70.67489       -17.88202        83.50119       0       0
    7039       -93.11819        21.89575        9.676514       0       0
    7040        -97.8698        16.86053         15.2222       0       0
    7041        -105.678        6.672974        38.58395       0       0
    7042       -93.68732         15.6554        29.00742       0       0
    7043       -110.1168        35.80414       -5.663055       0       0
    7044         17.2331        71.98523        70.39651       0       0
    7045       -18.77323        98.24286        35.74802       0       0
    7046       -77.64667        57.51508        51.41034       0       0
    7047       -83.71918        61.31372       -10.82953       0       0
    7048       -106.5524        29.84393        2.641571       0       0
    7049       -74.25195        33.01862        58.02509       0       0
    7050       -74.12044        47.50238        48.62854       0       0
    7051       -58.98514        94.00916        22.19516       0       0
    7052       -107.7301        42.85944       -9.031311       0       0
    7053       -85.23997        60.32904        15.61017       0       0
    7054        -8.87048        105.3806        24.85681       0       0
    7055       -68.74763        77.89545        45.06265       0       0
    7056        48.89946        36.88269        88.77658       0       0
    7057       -66.03941       -8.919128        86.64569       0       0
    7058       -57.41426       -11.50568        93.06168       0       0
    7059       -78.82022       -15.04694        77.78729       0       0
    7060       -51.68477        48.01392        62.61996       0       0
    7061       -64.90197        51.98755        55.30255       0       0
    7062       -88.97522        23.96448        37.23297       0       0
    7063       -51.79113       -2.699463        94.73492       0       0
    7064       -87.54974        78.93445       -23.77936       0       0
    7065       -25.42024        105.9772       -9.131958       0       0
    7066       -93.34023        52.52057        4.524658       0       0
    7067       -53.92404        100.5513        0.563324       0       0
    7068       -66.03819        60.98529        61.62079       0       0
    7069       -73.46417        53.88727        58.53223       0       0
    7070        8.877869        73.79791        71.14209       0       0
    7071       -102.5546       -11.30908        20.27576       0       0
    7072       -60.60849        69.03741        54.93365       0       0
    7073       -112.8182        1.721619        30.73181       0       0
    7074       -52.25788        85.62787         44.1991       0       0
    7075       -84.89632        8.169678        68.66818       0       0
    7076        -56.0606        66.44244        65.70731       0       0
    7077       -44.61303        100.8647        15.03363       0       0
    7078       -62.99215        93.01654        14.63678       0       0
    7079       -88.45856        6.429565        48.35516       0       0
    7080       -8.512432        55.21686        82.18152       0       0
    7081       -40.38411         104.888        -9.57309       0       0
    7082       -39.50581        102.4833       -21.24231       0       0
    7083       -16.90379        89.08923        49.46997       0       0
    7084       -43.76256        44.10291        76.93369       0       0
    7085       -78.62912         23.5531        56.70248       0       0
    7086       -37.71386        73.41003        62.75125       0       0
    7087       -33.88746        102.5621       -35.01352       0       0
    7088       -12.20187        84.32788        63.39871       0       0
    7089       -5.915318        64.67078        78.43634       0       0
    7090       -26.93239        71.38202        71.05676       0       0
    7091       -83.08808       0.3859863        74.11035       0       0
    7092       -20.07362        75.84149        68.61429       0       0
    7093       -37.54791        104.1644       0.1912842       0       0
    7094       -36.35047        29.82886         85.6803       0       0
    7095       -85.83084       -39.87286        49.03595       0       0
    7096       -74.78638         6.37085        65.62372       0       0
    7097       -89.12308       -32.99664         42.3295       0       0
    7098       -114.2306        4.268494        15.77795       0       0
    7099       -105.5695       -2.745361         22.6507       0       0
    7100       -72.91865        80.87451       -12.98041       0       0
    7101       -17.19479        52.13684         82.6571       0       0
    7102       -101.2443       0.4951172        29.22852       0       0
    7103       -31.25525        65.07751        67.10739       0       0
    7104       -13.62072        47.30475        89.48633       0       0
    7105       -20.29412        19.47217        99.47675       0       0
    7106       -49.16556        6.530151        92.38553       0       0
    7107       -93.37965        46.62854         27.0484       0       0
    7108       -96.83939        42.99817        20.55777       0       0
    7109       -96.52016        43.23651        11.21945       0       0
    7110       -88.42893        56.45337        8.694855       0       0
    7111       -64.45518       -1.167542        80.12589       0       0
    7112       -89.32899        -8.92511        53.62476       0       0
    7113       -86.24542        61.13104        27.11395       0       0
    7114       -73.00105        54.18842        40.10083       0       0
    7115       -42.25489        37.46759        86.21884       0       0
    7116       -61.82627        18.78766        78.03391       0       0
    7117       -31.90934        58.44806         75.8631       0       0
    7118       -76.74995        77.67358        6.097229       0       0
    7119       -71.29958        48.12048        65.34711       0       0
    7120       -75.59315        33.10718        69.45474       0       0
    7121       -45.49538        92.90607        -29.6315       0       0
    7122       -85.14741        59.31549        2.373932       0       0
    7123       -96.34361        71.90253       -2.778046       0       0
    7124       -67.76361        55.35834        46.41614       0       0
    7125        -10.4397        108.4001       -24.18536       0       0
    7126       -99.98762        16.76471        26.00262       0       0
    7127        9.775314        84.95508        57.18854       0       0
    7128       -99.16698        49.06183      -0.5968323       0       0
    7129       -71.24171        43.91235        57.44943       0       0
    7130       -71.35361        22.89362        73.96512       0       0
    7131       -59.14859        10.19214        80.96634       0       0
    7132       -60.26767       -3.622864        92.08914       0       0
    7133       -56.40786        54.38495        57.15546       0       0
    7134       -86.16096        16.22198        43.86383       0       0
    7135       -79.53932        81.01392       -21.28638       0       0
    7136       -51.35382        45.84369         74.7204       0       0
    7137       -45.30693        99.99054         4.79599       0       0
    7138       -96.08145        -5.28125        40.56577       0       0
    7139       -45.49325        103.5908       -4.893188       0       0
    7140       -76.32661        15.72784         61.3093       0       0
    7141       -41.67067         34.6759        79.39764       0       0
    7142       -31.44715        49.90051        74.72241       0       0
    7143       -80.28331       -6.946838        76.23758       0       0
    7144       -36.24067        39.17987        84.54144       0       0
    7145       -68.40828        14.52075         68.0625       0       0
    7146       -111.9176        4.322998        22.44818       0       0
    7147       -11.19085        33.39612        97.82745       0       0
    7148       -103.6883        -10.2229        27.15985       0       0
    7149       -102.0568        6.794678        22.63916       0       0
    7150       -47.59481        66.89734        65.30896       0       0
    7151       -44.64426        49.37482         67.3338       0       0
    7152        -38.6598        65.78278        72.51395       0       0
    7153       -91.06703        53.45081        31.08817       0       0
    7154       -92.83365        56.19928        21.90167       0       0
    7155        -109.219         9.85675        19.27225       0       0
    7156       -80.83544        68.16827        28.44464       0       0
    7157        -99.2523        11.20392        34.68573       0       0
    7158       -87.68755        67.13855        5.918915       0       0
    7159       -84.07496        67.60388        20.75211       0       0
    7160       -78.25751        73.22577        23.70245       0       0
    7161       -85.15456        75.94067       -16.29749       0       0
    7162       -91.76531        70.06738       -13.41721       0       0
    7163       -98.09575        64.48248       -9.423645       0       0
    7164       -105.8982        39.03174         31.9812       0       0
    7165       -99.06905        33.83032        25.20914       0       0
    7166       -104.1546        29.20172        16.50052       0       0
    7167        -103.386        36.54132        10.91611       0       0
    7168       -97.07355        52.04114        13.91354       0       0
    7169       -72.88112       -6.703491        80.02707       0       0
    7170       -66.24393        7.294678        74.13712       0       0
    7171       -111.8285        19.84662        15.58099       0       0
    7172       -83.09145        11.96698        56.36215       0       0
    7173       -93.82603       -1.225647        53.18405       0       0
    7174       -82.58629        46.93262        46.63287       0       0
    7175       -88.38785        48.32092        37.23608       0       0
    7176        -82.0403        52.83679         43.5799       0       0
    7177       -82.52435        29.60956        60.16891       0       0
    7178       -54.88487        62.34937        59.07959       0       0
    7179       -93.68974         17.8559        48.42838       0       0
    7180       -89.01318        28.39893        50.46252       0       0
    7181       -21.87256        62.60339         80.9364       0       0
    7182       -95.48207       -3.872742        46.32605       0       0
    7183       -96.38901        8.416504        44.90741       0       0
    7184       -96.31734       -13.34961        41.86417       0       0
    7185       -64.06718        7.758667        86.78174       0       0
    7186       -94.55727        61.69165       0.2950439       0       0
    7187       -103.4591        35.95801        4.143921       0       0
    7188       -104.9055        22.65149        21.41113       0       0
    7189       -100.4643        26.57404        28.14243       0       0
    7190        -108.442        16.68738        35.09006       0       0
    7191       -97.24762        21.05981        34.52832       0       0
    7192       -104.8748        41.15393      -0.7014465       0       0
    7193       -113.1584        31.87036        9.889313       0       0
    7194       -101.8339        57.66229       -6.478333       0       0
    7195       -111.8266         26.0686        11.75552       0       0
    7196       -54.88532        56.97302        65.09427       0       0
    7197       -94.55592        14.14288        41.63306       0       0
    7198       -85.22127        20.82825        51.61469       0       0
    7199       -79.04404        23.71124        66.58694       0       0
    7200        -42.8078         58.6452        65.84198       0       0
    7201        -38.2352        49.52258        78.28748       0       0
    7202       -105.9717         50.8075        16.27908       0       0
    7203       -108.8507        39.55005        23.16498       0       0
    7204       -74.52518        4.770996        77.76001       0       0
    7205        -98.0437         39.6944        27.56287       0       0
    7206       -102.0849        37.96979        18.95169       0       0
    7207       -85.07819        36.51117        48.27106       0       0
    7208       -78.34683        14.55542         73.4411       0       0
    7209       -88.61687        73.60669       -6.806274       0       0
    7210       -89.89423        65.21631       -4.668915       0       0
    7211       -48.88863        56.99915        72.73267       0       0
    7212       -103.9628        57.12439        4.659332       0       0
    7213       -103.8514        45.25305        6.650177       0       0
    7214       -110.7631        38.61401        4.555817       0       0
    7215       -69.85641        13.49292        79.76065       0       0
    7216       -108.1352        51.76971       -2.039978       0       0
    7217       -106.6315        8.806641        28.08569       0       0
    7218       -59.42539       -6.244995        82.92789       0       0
    7219        -109.447        31.67487        27.77542       0       0
    7220       -107.5296        43.64746        13.24384       0       0
    7221       -41.38089        44.25964        84.89093       0       0
    7222       -109.6961         20.3526        26.02997       0       0
    7223       -112.9503        29.51105        20.10898       0       0
    7224       -108.8835         25.4339        31.87393       0       0
    7225         101.275        79.40485        6.776123       0       0
    7226       -79.92073       -39.42188         47.5253       0       0
    7227       -84.72562            34.5        39.28223       0       0
    7228       -99.20647        28.29834        52.95514       0       0
    7229        -91.5612        36.05878         53.8656       0       0
    7230       -95.42804        48.64105        42.22543       0       0
    7231       -98.63606         23.4801        43.09464       0       0
    7232        -104.028        30.37854        36.39978       0       0
    7233       -95.17552        33.13947        35.60434       0       0
    7234       -98.78769        43.61591         36.5368       0       0
    7235       -90.76649         35.7326        30.84137       0       0
    7236        -89.0392        42.49536        41.75955       0       0
    7237       -91.58627        40.74921        32.93445       0       0
    7238        -96.4234        37.06268        45.86447       0       0
    7239        13.99514        45.64874        71.08987       0       0
    7240       -21.91493        80.82446       -46.66946       0       0
    7241       -83.54613       -14.18799        8.139771       0       0
    7242        -22.5804        80.66223       -46.57605       0       0
$ANSA_COLOR;1376;SECTION_SHELL;.764705896377563;.125490203499794;.81960785388946
$5;1.;
$ANSA_COLOR;1377;SECTION_SOLID;.988235294818878;.819607853889465;.20784313976764
$7;1.;
$ANSA_COLOR;28;MAT1 MAT_ELASTIC;.803921580314636;.815686285495758;.3803921639919
$28;1.;
$ANSA_COLOR;29;MAT83 MAT_FU_CHANG_FOAM;.815686285495758;.682352960109711;.301960
$796117783;1.;
$ANSA_NAME_COMMENT;100070;DEFINE_TABLE;EPS70kgpqm_Stress-Strain-Strainrate_Tbl;;
$NO;NO;NO;
$ANSA_NAME_COMMENT;2596;NODE;SBPoint_2596;;NO;NO;NO;
$ANSA_NAME_COMMENT;6217;NODE;SBPoint_6217;;NO;NO;NO;
$ANSA_USER_ATTRIBUTES;SECTION_SHELL;User/cad_material;TEXT;RW;YES;;;
$ANSA_USER_ATTRIBUTES;SECTION_SHELL;User/cad_thickness;TEXT;RW;YES;;;
$ANSA_USER_ATTRIBUTES;SECTION_SOLID;User/cad_material;TEXT;RW;YES;;;
$ANSA_PART;GROUP;ID;2;NAME;Auto Detected Volumes Group;BELONGS_HERE;YES;PID_OFFS
$ET;0;COLOR;251;142;118;0;IS_COLOR_ACTIVE;1;PART_TYPE;Undefined;ATTRIBUTES;2;DM/
$File Type;ANSA;DM/Status;WIP;CONTAINS;ANSAPART;3;
$ANSA_PART;PART;ID;1;MID;Document;NAME;Document;BELONGS_HERE;YES;STUDY_VERSION;0
$;PID_OFFSET;0;COLOR;201;236;118;0;IS_COLOR_ACTIVE;1;PART_TYPE;Undefined;ATTRIBU
$TES;2;DM/File Type;ANSA;DM/Status;WIP;CONTAINS;SECTION_SHELL;1376;
$ANSA_PART;PART;ID;3;NAME;Document_Volume_1;BELONGS_HERE;YES;STUDY_VERSION;0;PID
$_OFFSET;0;COLOR;160;114;188;0;IS_COLOR_ACTIVE;1;PART_TYPE;Undefined;ATTRIBUTES;
$2;DM/File Type;ANSA;DM/Status;WIP;CONTAINS;CONSTRAINED_NODAL_RIGID_BODY;16693-1
$6694;SECTION_SOLID;1377;
*END
