 LSTC 50th% Full_FE H-III Dummy (Beta Version, February 17, 2019)        
                    ls-dyna smp s R16 R16.0_619_d222963 date 03/18/2025

{BEGIN LEGEND}
 Entity #        Title
    22626                                                                                     
{END LEGEND}




 n o d a l   p r i n t   o u t   f o r   t i m e  s t e p       1                              ( at time 0.0000000E+00 )

 nodal point  x-disp     y-disp      z-disp      x-vel       y-vel       z-vel      x-accl      y-accl      z-accl      x-coor      y-coor      z-coor
    22626  0.00000E+00 0.00000E+00 0.00000E+00 0.00000E+00 0.00000E+00-3.12000E+00 0.00000E+00 0.00000E+00 0.00000E+00 4.79642E+01-2.20298E+01 7.33850E+00



 n o d a l   p r i n t   o u t   f o r   t i m e  s t e p       1                              ( at time 0.0000000E+00 )

 nodal point  x-rot      y-rot       z-rot       x-rot vel   y-rot vel   z-rot vel   x-rot acc   y-rot acc   z-rot acc
    22626  0.00000E+00 0.00000E+00 0.00000E+00 0.00000E+00 0.00000E+00 0.00000E+00 0.00000E+00 0.00000E+00 0.00000E+00



 n o d a l   p r i n t   o u t   f o r   t i m e  s t e p     201                              ( at time 9.9989993E-02 )

 nodal point  x-disp     y-disp      z-disp      x-vel       y-vel       z-vel      x-accl      y-accl      z-accl      x-coor      y-coor      z-coor
    22626  8.34772E-07-4.04357E-06-3.12016E-01 4.76995E-05-4.96340E-04-3.12074E+00 4.77043E-04-4.96390E-03-7.42748E-03 4.79642E+01-2.20298E+01 7.02648E+00



 n o d a l   p r i n t   o u t   f o r   t i m e  s t e p     201                              ( at time 9.9989993E-02 )

 nodal point  x-rot      y-rot       z-rot       x-rot vel   y-rot vel   z-rot vel   x-rot acc   y-rot acc   z-rot acc
    22626  9.61911E-09 3.04181E-08 5.27421E-08 1.30697E-06 2.72341E-06 5.21492E-06 1.30710E-05 2.72369E-05 5.21544E-05



 n o d a l   p r i n t   o u t   f o r   t i m e  s t e p     401                              ( at time 1.9997999E-01 )

 nodal point  x-disp     y-disp      z-disp      x-vel       y-vel       z-vel      x-accl      y-accl      z-accl      x-coor      y-coor      z-coor
    22626 -5.12758E-05-5.21478E-04-6.23853E-01-1.09667E-03-1.11130E-02-3.11558E+00-1.14449E-02-1.06177E-01 5.16180E-02 4.79641E+01-2.20303E+01 6.71465E+00



 n o d a l   p r i n t   o u t   f o r   t i m e  s t e p     401                              ( at time 1.9997999E-01 )

 nodal point  x-rot      y-rot       z-rot       x-rot vel   y-rot vel   z-rot vel   x-rot acc   y-rot acc   z-rot acc
    22626  4.60532E-07 1.33028E-06 2.50310E-06 2.64573E-06 1.91064E-05 3.50275E-05 1.33889E-05 1.63847E-04 2.98155E-04



 n o d a l   p r i n t   o u t   f o r   t i m e  s t e p     601                              ( at time 2.9996998E-01 )

 nodal point  x-disp     y-disp      z-disp      x-vel       y-vel       z-vel      x-accl      y-accl      z-accl      x-coor      y-coor      z-coor
    22626 -2.45191E-05-1.97553E-03-9.35239E-01 1.66240E-03-1.60301E-02-3.11416E+00 2.75934E-02-4.91757E-02 1.42517E-02 4.79642E+01-2.20318E+01 6.40326E+00



 n o d a l   p r i n t   o u t   f o r   t i m e  s t e p     601                              ( at time 2.9996998E-01 )

 nodal point  x-rot      y-rot       z-rot       x-rot vel   y-rot vel   z-rot vel   x-rot acc   y-rot acc   z-rot acc
    22626  6.75281E-07 2.41672E-06 4.83657E-06 8.23285E-06 5.42000E-06 1.48905E-05 5.58768E-05-1.36878E-04-2.01390E-04



 n o d a l   p r i n t   o u t   f o r   t i m e  s t e p     801                              ( at time 3.9995997E-01 )

 nodal point  x-disp     y-disp      z-disp      x-vel       y-vel       z-vel      x-accl      y-accl      z-accl      x-coor      y-coor      z-coor
    22626  5.94591E-05-3.57158E-03-1.24663E+00 1.86186E-04-1.73742E-02-3.11354E+00-1.47636E-02-1.34424E-02 6.15420E-03 4.79642E+01-2.20334E+01 6.09187E+00



 n o d a l   p r i n t   o u t   f o r   t i m e  s t e p     801                              ( at time 3.9995997E-01 )

 nodal point  x-rot      y-rot       z-rot       x-rot vel   y-rot vel   z-rot vel   x-rot acc   y-rot acc   z-rot acc
    22626  1.58501E-06 3.68973E-06 6.69809E-06 6.31286E-06 2.42573E-05 3.82471E-05-1.92018E-05 1.88392E-04 2.33589E-04



 n o d a l   p r i n t   o u t   f o r   t i m e  s t e p    1001                              ( at time 4.9994997E-01 )

 nodal point  x-disp     y-disp      z-disp      x-vel       y-vel       z-vel      x-accl      y-accl      z-accl      x-coor      y-coor      z-coor
    22626  7.17063E-05-5.62681E-03-1.55783E+00 8.80946E-04-2.38156E-02-3.11087E+00 6.94830E-03-6.44205E-02 2.66626E-02 4.79643E+01-2.20354E+01 5.78067E+00



 n o d a l   p r i n t   o u t   f o r   t i m e  s t e p    1001                              ( at time 4.9994997E-01 )

 nodal point  x-rot      y-rot       z-rot       x-rot vel   y-rot vel   z-rot vel   x-rot acc   y-rot acc   z-rot acc
    22626  1.50412E-06 6.66101E-06 1.18623E-05-4.83690E-06 4.39010E-05 7.21396E-05-1.11509E-04 1.96457E-04 3.38959E-04



 n o d a l   p r i n t   o u t   f o r   t i m e  s t e p    1201                              ( at time 5.9993996E-01 )

 nodal point  x-disp     y-disp      z-disp      x-vel       y-vel       z-vel      x-accl      y-accl      z-accl      x-coor      y-coor      z-coor
    22626  5.24339E-05-8.12803E-03-1.86888E+00-5.47419E-04-2.60662E-02-3.11086E+00-1.42851E-02-2.25087E-02 1.16837E-04 4.79642E+01-2.20379E+01 5.46962E+00



 n o d a l   p r i n t   o u t   f o r   t i m e  s t e p    1201                              ( at time 5.9993996E-01 )

 nodal point  x-rot      y-rot       z-rot       x-rot vel   y-rot vel   z-rot vel   x-rot acc   y-rot acc   z-rot acc
    22626  1.27211E-06 9.91296E-06 1.78072E-05-2.12761E-06 2.65741E-05 5.35172E-05 2.70957E-05-1.73287E-04-1.86243E-04



 n o d a l   p r i n t   o u t   f o r   t i m e  s t e p    1401                              ( at time 6.9992995E-01 )

 nodal point  x-disp     y-disp      z-disp      x-vel       y-vel       z-vel      x-accl      y-accl      z-accl      x-coor      y-coor      z-coor
    22626  1.93684E-05-1.10065E-02-2.17977E+00 6.95327E-04-3.21953E-02-3.10774E+00 1.24287E-02-6.12967E-02 3.12693E-02 4.79642E+01-2.20408E+01 5.15873E+00



 n o d a l   p r i n t   o u t   f o r   t i m e  s t e p    1401                              ( at time 6.9992995E-01 )

 nodal point  x-rot      y-rot       z-rot       x-rot vel   y-rot vel   z-rot vel   x-rot acc   y-rot acc   z-rot acc
    22626  1.13198E-06 1.31216E-05 2.28112E-05-2.06050E-06 3.77843E-05 5.91399E-05 6.71129E-07 1.12114E-04 5.62330E-05



 n o d a l   p r i n t   o u t   f o r   t i m e  s t e p    1601                              ( at time 7.9991994E-01 )

 nodal point  x-disp     y-disp      z-disp      x-vel       y-vel       z-vel      x-accl      y-accl      z-accl      x-coor      y-coor      z-coor
    22626  1.30623E-04-1.45510E-02-2.49040E+00 1.35140E-03-3.67455E-02-3.10606E+00 6.56138E-03-4.55063E-02 1.67959E-02 4.79643E+01-2.20443E+01 4.84811E+00



 n o d a l   p r i n t   o u t   f o r   t i m e  s t e p    1601                              ( at time 7.9991994E-01 )

 nodal point  x-rot      y-rot       z-rot       x-rot vel   y-rot vel   z-rot vel   x-rot acc   y-rot acc   z-rot acc
    22626  1.06846E-06 1.72673E-05 2.97903E-05 3.26984E-06 4.89595E-05 7.66322E-05 5.33088E-05 1.11762E-04 1.74940E-04



 n o d a l   p r i n t   o u t   f o r   t i m e  s t e p    1801                              ( at time 8.9990994E-01 )

 nodal point  x-disp     y-disp      z-disp      x-vel       y-vel       z-vel      x-accl      y-accl      z-accl      x-coor      y-coor      z-coor
    22626  2.03351E-04-1.81865E-02-2.80106E+00-5.16784E-04-3.63516E-02-3.10747E+00-1.86837E-02 3.93870E-03-1.41683E-02 4.79644E+01-2.20480E+01 4.53745E+00



 n o d a l   p r i n t   o u t   f o r   t i m e  s t e p    1801                              ( at time 8.9990994E-01 )

 nodal point  x-rot      y-rot       z-rot       x-rot vel   y-rot vel   z-rot vel   x-rot acc   y-rot acc   z-rot acc
    22626  1.12893E-06 2.14083E-05 3.68299E-05-1.31880E-06 3.82245E-05 6.87524E-05-4.58911E-05-1.07361E-04-7.88065E-05



 n o d a l   p r i n t   o u t   f o r   t i m e  s t e p    2001                              ( at time 9.9989993E-01 )

 nodal point  x-disp     y-disp      z-disp      x-vel       y-vel       z-vel      x-accl      y-accl      z-accl      x-coor      y-coor      z-coor
    22626  1.03988E-04-2.18887E-02-3.11178E+00-8.35928E-04-3.82517E-02-3.10767E+00-3.19176E-03-1.90023E-02-1.99815E-03 4.79643E+01-2.20517E+01 4.22672E+00



 n o d a l   p r i n t   o u t   f o r   t i m e  s t e p    2001                              ( at time 9.9989993E-01 )

 nodal point  x-rot      y-rot       z-rot       x-rot vel   y-rot vel   z-rot vel   x-rot acc   y-rot acc   z-rot acc
    22626  1.01372E-06 2.56550E-05 4.40931E-05-2.70610E-07 4.67242E-05 8.68862E-05 1.04830E-05 8.50053E-05 1.81357E-04



 n o d a l   p r i n t   o u t   f o r   t i m e  s t e p    2201                              ( at time 1.0998899E+00 )

 nodal point  x-disp     y-disp      z-disp      x-vel       y-vel       z-vel      x-accl      y-accl      z-accl      x-coor      y-coor      z-coor
    22626  8.30191E-05-2.58232E-02-3.42249E+00-2.60061E-04-4.01510E-02-3.10719E+00 5.75925E-03-1.89954E-02 4.86900E-03 4.79643E+01-2.20556E+01 3.91601E+00



 n o d a l   p r i n t   o u t   f o r   t i m e  s t e p    2201                              ( at time 1.0998899E+00 )

 nodal point  x-rot      y-rot       z-rot       x-rot vel   y-rot vel   z-rot vel   x-rot acc   y-rot acc   z-rot acc
    22626  1.15116E-06 3.04659E-05 5.27847E-05 5.89558E-06 4.65004E-05 7.52782E-05 6.16681E-05-2.23802E-06-1.16092E-04



 n o d a l   p r i n t   o u t   f o r   t i m e  s t e p    2401                              ( at time 1.1998799E+00 )

 nodal point  x-disp     y-disp      z-disp      x-vel       y-vel       z-vel      x-accl      y-accl      z-accl      x-coor      y-coor      z-coor
    22626  1.21594E-04-2.98265E-02-3.73324E+00 7.05207E-04-3.96387E-02-3.10860E+00 9.65365E-03 5.12413E-03-1.41063E-02 4.79643E+01-2.20596E+01 3.60526E+00



 n o d a l   p r i n t   o u t   f o r   t i m e  s t e p    2401                              ( at time 1.1998799E+00 )

 nodal point  x-rot      y-rot       z-rot       x-rot vel   y-rot vel   z-rot vel   x-rot acc   y-rot acc   z-rot acc
    22626  1.61590E-06 3.46388E-05 5.96857E-05 5.78616E-06 4.03343E-05 6.66994E-05-1.09428E-06-6.16668E-05-8.57965E-05



 n o d a l   p r i n t   o u t   f o r   t i m e  s t e p    2601                              ( at time 1.2998699E+00 )

 nodal point  x-disp     y-disp      z-disp      x-vel       y-vel       z-vel      x-accl      y-accl      z-accl      x-coor      y-coor      z-coor
    22626  1.30965E-04-3.36494E-02-4.04419E+00-4.50375E-04-3.64354E-02-3.11145E+00-1.15570E-02 3.20363E-02-2.85034E-02 4.79643E+01-2.20634E+01 3.29431E+00



 n o d a l   p r i n t   o u t   f o r   t i m e  s t e p    2601                              ( at time 1.2998699E+00 )

 nodal point  x-rot      y-rot       z-rot       x-rot vel   y-rot vel   z-rot vel   x-rot acc   y-rot acc   z-rot acc
    22626  1.99764E-06 3.87675E-05 6.65988E-05-1.62595E-06 4.60128E-05 8.09630E-05-7.41285E-05 5.67907E-05 1.42651E-04



 n o d a l   p r i n t   o u t   f o r   t i m e  s t e p    2801                              ( at time 1.3998599E+00 )

 nodal point  x-disp     y-disp      z-disp      x-vel       y-vel       z-vel      x-accl      y-accl      z-accl      x-coor      y-coor      z-coor
    22626  1.25540E-05-3.70269E-02-4.35550E+00-1.34286E-03-3.12583E-02-3.11524E+00-8.92572E-03 5.17754E-02-3.79576E-02 4.79642E+01-2.20668E+01 2.98300E+00



 n o d a l   p r i n t   o u t   f o r   t i m e  s t e p    2801                              ( at time 1.3998599E+00 )

 nodal point  x-rot      y-rot       z-rot       x-rot vel   y-rot vel   z-rot vel   x-rot acc   y-rot acc   z-rot acc
    22626  1.66694E-06 4.32146E-05 7.45301E-05-3.67031E-06 4.50786E-05 7.43246E-05-2.04457E-05-9.34319E-06-6.63906E-05



 n o d a l   p r i n t   o u t   f o r   t i m e  s t e p    3001                              ( at time 1.4998499E+00 )

 nodal point  x-disp     y-disp      z-disp      x-vel       y-vel       z-vel      x-accl      y-accl      z-accl      x-coor      y-coor      z-coor
    22626 -9.93233E-05-4.00521E-02-4.66710E+00-4.94719E-04-2.95736E-02-3.11726E+00 8.48223E-03 1.68488E-02-2.01889E-02 4.79641E+01-2.20698E+01 2.67140E+00



 n o d a l   p r i n t   o u t   f o r   t i m e  s t e p    3001                              ( at time 1.4998499E+00 )

 nodal point  x-rot      y-rot       z-rot       x-rot vel   y-rot vel   z-rot vel   x-rot acc   y-rot acc   z-rot acc
    22626  1.38321E-06 4.71916E-05 8.11903E-05-3.58537E-07 3.24765E-05 5.81267E-05 3.31211E-05-1.26033E-04-1.61996E-04



 n o d a l   p r i n t   o u t   f o r   t i m e  s t e p    3201                              ( at time 1.5998399E+00 )

 nodal point  x-disp     y-disp      z-disp      x-vel       y-vel       z-vel      x-accl      y-accl      z-accl      x-coor      y-coor      z-coor
    22626 -1.50248E-04-4.29266E-02-4.97888E+00-7.84218E-04-2.73581E-02-3.11955E+00-2.89528E-03 2.21572E-02-2.28499E-02 4.79640E+01-2.20727E+01 2.35962E+00



 n o d a l   p r i n t   o u t   f o r   t i m e  s t e p    3201                              ( at time 1.5998399E+00 )

 nodal point  x-rot      y-rot       z-rot       x-rot vel   y-rot vel   z-rot vel   x-rot acc   y-rot acc   z-rot acc
    22626  1.20381E-06 5.02748E-05 8.61438E-05-2.35789E-07 3.26166E-05 4.84356E-05 1.22760E-06 1.40036E-06-9.69209E-05



 n o d a l   p r i n t   o u t   f o r   t i m e  s t e p    3401                              ( at time 1.6998299E+00 )

 nodal point  x-disp     y-disp      z-disp      x-vel       y-vel       z-vel      x-accl      y-accl      z-accl      x-coor      y-coor      z-coor
    22626 -2.41395E-04-4.54256E-02-5.29099E+00-1.15289E-03-2.22912E-02-3.12335E+00-3.68711E-03 5.06743E-02-3.80745E-02 4.79639E+01-2.20752E+01 2.04751E+00



 n o d a l   p r i n t   o u t   f o r   t i m e  s t e p    3401                              ( at time 1.6998299E+00 )

 nodal point  x-rot      y-rot       z-rot       x-rot vel   y-rot vel   z-rot vel   x-rot acc   y-rot acc   z-rot acc
    22626  1.09428E-06 5.34141E-05 9.12595E-05-3.05028E-06 3.08169E-05 4.89300E-05-2.81477E-05-1.79984E-05 4.94440E-06



 n o d a l   p r i n t   o u t   f o r   t i m e  s t e p    3601                              ( at time 1.7998199E+00 )

 nodal point  x-disp     y-disp      z-disp      x-vel       y-vel       z-vel      x-accl      y-accl      z-accl      x-coor      y-coor      z-coor
    22626 -3.44635E-04-4.73993E-02-5.60351E+00-1.35829E-03-1.75395E-02-3.12744E+00-2.05415E-03 4.75216E-02-4.08762E-02 4.79638E+01-2.20772E+01 1.73499E+00



 n o d a l   p r i n t   o u t   f o r   t i m e  s t e p    3601                              ( at time 1.7998199E+00 )

 nodal point  x-rot      y-rot       z-rot       x-rot vel   y-rot vel   z-rot vel   x-rot acc   y-rot acc   z-rot acc
    22626  1.04636E-06 5.62763E-05 9.61339E-05 8.40667E-07 2.18905E-05 4.31874E-05 3.89134E-05-8.92732E-05-5.74317E-05



 n o d a l   p r i n t   o u t   f o r   t i m e  s t e p    3801                              ( at time 1.8998099E+00 )

 nodal point  x-disp     y-disp      z-disp      x-vel       y-vel       z-vel      x-accl      y-accl      z-accl      x-coor      y-coor      z-coor
    22626 -5.34714E-04-4.90186E-02-5.91635E+00-2.16573E-03-1.50003E-02-3.12999E+00-8.07523E-03 2.53949E-02-2.55038E-02 4.79636E+01-2.20788E+01 1.42215E+00



 n o d a l   p r i n t   o u t   f o r   t i m e  s t e p    3801                              ( at time 1.8998099E+00 )

 nodal point  x-rot      y-rot       z-rot       x-rot vel   y-rot vel   z-rot vel   x-rot acc   y-rot acc   z-rot acc
    22626  9.32671E-07 5.82376E-05 9.96565E-05 2.79409E-06 1.63968E-05 2.85492E-05 1.95362E-05-5.49425E-05-1.46397E-04



 n o d a l   p r i n t   o u t   f o r   t i m e  s t e p    4001                              ( at time 1.9997999E+00 )

 nodal point  x-disp     y-disp      z-disp      x-vel       y-vel       z-vel      x-accl      y-accl      z-accl      x-coor      y-coor      z-coor
    22626 -7.07875E-04-5.03956E-02-6.22943E+00-1.65712E-03-1.26953E-02-3.13219E+00 5.08658E-03 2.30521E-02-2.19629E-02 4.79635E+01-2.20802E+01 1.10907E+00



 n o d a l   p r i n t   o u t   f o r   t i m e  s t e p    4001                              ( at time 1.9997999E+00 )

 nodal point  x-rot      y-rot       z-rot       x-rot vel   y-rot vel   z-rot vel   x-rot acc   y-rot acc   z-rot acc
    22626  1.24008E-06 5.96636E-05 1.02074E-04 4.47819E-06 1.38087E-05 2.06788E-05 1.68427E-05-2.58838E-05-7.87114E-05



 n o d a l   p r i n t   o u t   f o r   t i m e  s t e p    4201                              ( at time 2.0997899E+00 )

 nodal point  x-disp     y-disp      z-disp      x-vel       y-vel       z-vel      x-accl      y-accl      z-accl      x-coor      y-coor      z-coor
    22626 -8.79210E-04-5.14776E-02-6.54278E+00-1.88873E-03-9.05524E-03-3.13527E+00-2.31631E-03 3.64043E-02-3.08664E-02 4.79633E+01-2.20813E+01 7.95720E-01



 n o d a l   p r i n t   o u t   f o r   t i m e  s t e p    4201                              ( at time 2.0997899E+00 )

 nodal point  x-rot      y-rot       z-rot       x-rot vel   y-rot vel   z-rot vel   x-rot acc   y-rot acc   z-rot acc
    22626  1.63480E-06 6.03300E-05 1.03216E-04-1.67803E-07 3.57855E-06 1.97339E-06-4.64645E-05-1.02311E-04-1.87073E-04



 n o d a l   p r i n t   o u t   f o r   t i m e  s t e p    4401                              ( at time 2.1997798E+00 )

 nodal point  x-disp     y-disp      z-disp      x-vel       y-vel       z-vel      x-accl      y-accl      z-accl      x-coor      y-coor      z-coor
    22626 -1.12086E-03-5.21529E-02-6.85645E+00-2.73097E-03-4.26925E-03-3.13905E+00-8.42327E-03 4.78647E-02-3.77717E-02 4.79631E+01-2.20819E+01 4.82047E-01



 n o d a l   p r i n t   o u t   f o r   t i m e  s t e p    4401                              ( at time 2.1997798E+00 )

 nodal point  x-rot      y-rot       z-rot       x-rot vel   y-rot vel   z-rot vel   x-rot acc   y-rot acc   z-rot acc
    22626  1.55634E-06 6.04311E-05 1.03278E-04-3.92160E-07-1.06553E-06-1.78273E-06-2.24379E-06-4.64455E-05-3.75650E-05



 n o d a l   p r i n t   o u t   f o r   t i m e  s t e p    4601                              ( at time 2.2997698E+00 )

 nodal point  x-disp     y-disp      z-disp      x-vel       y-vel       z-vel      x-accl      y-accl      z-accl      x-coor      y-coor      z-coor
    22626 -1.42733E-03-5.23360E-02-7.17051E+00-3.49218E-03-4.38974E-06-3.14237E+00-7.61281E-03 4.26529E-02-3.32412E-02 4.79628E+01-2.20821E+01 1.67988E-01



 n o d a l   p r i n t   o u t   f o r   t i m e  s t e p    4601                              ( at time 2.2997698E+00 )

 nodal point  x-rot      y-rot       z-rot       x-rot vel   y-rot vel   z-rot vel   x-rot acc   y-rot acc   z-rot acc
    22626  1.23789E-06 6.02138E-05 1.03009E-04-3.74195E-06-9.05441E-06-1.21662E-05-3.35012E-05-7.98968E-05-1.03845E-04



 n o d a l   p r i n t   o u t   f o r   t i m e  s t e p    4801                              ( at time 2.3997598E+00 )

 nodal point  x-disp     y-disp      z-disp      x-vel       y-vel       z-vel      x-accl      y-accl      z-accl      x-coor      y-coor      z-coor
    22626 -1.79404E-03-5.22406E-02-7.48482E+00-3.56846E-03 1.90744E-03-3.14446E+00-7.62896E-04 1.91202E-02-2.09114E-02 4.79624E+01-2.20820E+01-1.46320E-01



 n o d a l   p r i n t   o u t   f o r   t i m e  s t e p    4801                              ( at time 2.3997598E+00 )

 nodal point  x-rot      y-rot       z-rot       x-rot vel   y-rot vel   z-rot vel   x-rot acc   y-rot acc   z-rot acc
    22626  8.08253E-07 5.90072E-05 1.00578E-04-4.71794E-06-1.51945E-05-3.29026E-05-9.76093E-06-6.14071E-05-2.07385E-04



 n o d a l   p r i n t   o u t   f o r   t i m e  s t e p    5001                              ( at time 2.4997498E+00 )

 nodal point  x-disp     y-disp      z-disp      x-vel       y-vel       z-vel      x-accl      y-accl      z-accl      x-coor      y-coor      z-coor
    22626 -2.18370E-03-5.19307E-02-7.79935E+00-4.23184E-03 4.97268E-03-3.14717E+00-6.63445E-03 3.06554E-02-2.70155E-02 4.79620E+01-2.20817E+01-4.60852E-01



 n o d a l   p r i n t   o u t   f o r   t i m e  s t e p    5001                              ( at time 2.4997498E+00 )

 nodal point  x-rot      y-rot       z-rot       x-rot vel   y-rot vel   z-rot vel   x-rot acc   y-rot acc   z-rot acc
    22626  4.66665E-07 5.68549E-05 9.66802E-05-3.22463E-06-2.61473E-05-4.81435E-05 1.49346E-05-1.09538E-04-1.52424E-04



 n o d a l   p r i n t   o u t   f o r   t i m e  s t e p    5201                              ( at time 2.5997398E+00 )

 nodal point  x-disp     y-disp      z-disp      x-vel       y-vel       z-vel      x-accl      y-accl      z-accl      x-coor      y-coor      z-coor
    22626 -2.65436E-03-5.12097E-02-8.11423E+00-5.21444E-03 9.40542E-03-3.15079E+00-9.82701E-03 4.43319E-02-3.62957E-02 4.79615E+01-2.20810E+01-7.75725E-01



 n o d a l   p r i n t   o u t   f o r   t i m e  s t e p    5201                              ( at time 2.5997398E+00 )

 nodal point  x-rot      y-rot       z-rot       x-rot vel   y-rot vel   z-rot vel   x-rot acc   y-rot acc   z-rot acc
    22626  1.78390E-07 5.38394E-05 9.13586E-05-3.93308E-06-3.48664E-05-6.13484E-05-7.08520E-06-8.72004E-05-1.32062E-04



 n o d a l   p r i n t   o u t   f o r   t i m e  s t e p    5401                              ( at time 2.6997298E+00 )

 nodal point  x-disp     y-disp      z-disp      x-vel       y-vel       z-vel      x-accl      y-accl      z-accl      x-coor      y-coor      z-coor
    22626 -3.21920E-03-5.00645E-02-8.42945E+00-6.35604E-03 1.30270E-02-3.15423E+00-1.14171E-02 3.62193E-02-3.43619E-02 4.79610E+01-2.20799E+01-1.09095E+00



 n o d a l   p r i n t   o u t   f o r   t i m e  s t e p    5401                              ( at time 2.6997298E+00 )

 nodal point  x-rot      y-rot       z-rot       x-rot vel   y-rot vel   z-rot vel   x-rot acc   y-rot acc   z-rot acc
    22626 -6.86921E-08 5.02034E-05 8.49665E-05-1.26834E-06-4.05228E-05-6.61145E-05 2.66500E-05-5.65698E-05-4.76656E-05



 n o d a l   p r i n t   o u t   f o r   t i m e  s t e p    5601                              ( at time 2.7997198E+00 )

 nodal point  x-disp     y-disp      z-disp      x-vel       y-vel       z-vel      x-accl      y-accl      z-accl      x-coor      y-coor      z-coor
    22626 -3.92541E-03-4.86373E-02-8.74496E+00-7.58265E-03 1.51934E-02-3.15642E+00-1.22674E-02 2.16662E-02-2.19129E-02 4.79603E+01-2.20784E+01-1.40646E+00



 n o d a l   p r i n t   o u t   f o r   t i m e  s t e p    5601                              ( at time 2.7997198E+00 )

 nodal point  x-rot      y-rot       z-rot       x-rot vel   y-rot vel   z-rot vel   x-rot acc   y-rot acc   z-rot acc
    22626 -1.28161E-07 4.53973E-05 7.69454E-05 1.07188E-06-5.64059E-05-9.71401E-05 2.34046E-05-1.58847E-04-3.10287E-04



 n o d a l   p r i n t   o u t   f o r   t i m e  s t e p    5801                              ( at time 2.8997098E+00 )

 nodal point  x-disp     y-disp      z-disp      x-vel       y-vel       z-vel      x-accl      y-accl      z-accl      x-coor      y-coor      z-coor
    22626 -4.68891E-03-4.70627E-02-9.06066E+00-7.76507E-03 1.61990E-02-3.15812E+00-1.82444E-03 1.00570E-02-1.69700E-02 4.79595E+01-2.20769E+01-1.72216E+00



 n o d a l   p r i n t   o u t   f o r   t i m e  s t e p    5801                              ( at time 2.8997098E+00 )

 nodal point  x-rot      y-rot       z-rot       x-rot vel   y-rot vel   z-rot vel   x-rot acc   y-rot acc   z-rot acc
    22626  1.45587E-07 3.90673E-05 6.61612E-05 3.12513E-06-6.58016E-05-1.14914E-04 2.05346E-05-9.39660E-05-1.77753E-04



 n o d a l   p r i n t   o u t   f o r   t i m e  s t e p    6001                              ( at time 2.9996998E+00 )

 nodal point  x-disp     y-disp      z-disp      x-vel       y-vel       z-vel      x-accl      y-accl      z-accl      x-coor      y-coor      z-coor
    22626 -5.50583E-03-4.53282E-02-9.37654E+00-8.80884E-03 1.86674E-02-3.16047E+00-1.04387E-02 2.46865E-02-2.34794E-02 4.79587E+01-2.20751E+01-2.03804E+00



 n o d a l   p r i n t   o u t   f o r   t i m e  s t e p    6001                              ( at time 2.9996998E+00 )

 nodal point  x-rot      y-rot       z-rot       x-rot vel   y-rot vel   z-rot vel   x-rot acc   y-rot acc   z-rot acc
    22626  4.57980E-07 3.22669E-05 5.46471E-05 1.39637E-06-7.01821E-05-1.20245E-04-1.72894E-05-4.38100E-05-5.33206E-05



 n o d a l   p r i n t   o u t   f o r   t i m e  s t e p    6201                              ( at time 3.0996898E+00 )

 nodal point  x-disp     y-disp      z-disp      x-vel       y-vel       z-vel      x-accl      y-accl      z-accl      x-coor      y-coor      z-coor
    22626 -6.46315E-03-4.33373E-02-9.69268E+00-1.02660E-02 2.06945E-02-3.16246E+00-1.45727E-02 2.02734E-02-1.99648E-02 4.79577E+01-2.20731E+01-2.35418E+00



 n o d a l   p r i n t   o u t   f o r   t i m e  s t e p    6201                              ( at time 3.0996898E+00 )

 nodal point  x-rot      y-rot       z-rot       x-rot vel   y-rot vel   z-rot vel   x-rot acc   y-rot acc   z-rot acc
    22626  4.64027E-07 2.50569E-05 4.21958E-05-1.65273E-06-7.38378E-05-1.31106E-04-3.04941E-05-3.65606E-05-1.08623E-04



 n o d a l   p r i n t   o u t   f o r   t i m e  s t e p    6401                              ( at time 3.1996798E+00 )

 nodal point  x-disp     y-disp      z-disp      x-vel       y-vel       z-vel      x-accl      y-accl      z-accl      x-coor      y-coor      z-coor
    22626 -7.52290E-03-4.12972E-02-1.00089E+01-1.08539E-02 1.98022E-02-3.16306E+00-5.87951E-03-8.92381E-03-5.93006E-03 4.79567E+01-2.20711E+01-2.67043E+00



 n o d a l   p r i n t   o u t   f o r   t i m e  s t e p    6401                              ( at time 3.1996798E+00 )

 nodal point  x-rot      y-rot       z-rot       x-rot vel   y-rot vel   z-rot vel   x-rot acc   y-rot acc   z-rot acc
    22626  3.63903E-07 1.70989E-05 2.87426E-05-1.07074E-06-8.49191E-05-1.43308E-04 5.82051E-06-1.10824E-04-1.22033E-04



 n o d a l   p r i n t   o u t   f o r   t i m e  s t e p    6601                              ( at time 3.2996698E+00 )

 nodal point  x-disp     y-disp      z-disp      x-vel       y-vel       z-vel      x-accl      y-accl      z-accl      x-coor      y-coor      z-coor
    22626 -8.62117E-03-3.94125E-02-1.03252E+01-1.10865E-02 1.78883E-02-3.16276E+00-2.32699E-03-1.91414E-02 3.00199E-03 4.79556E+01-2.20692E+01-2.98669E+00



 n o d a l   p r i n t   o u t   f o r   t i m e  s t e p    6601                              ( at time 3.2996698E+00 )

 nodal point  x-rot      y-rot       z-rot       x-rot vel   y-rot vel   z-rot vel   x-rot acc   y-rot acc   z-rot acc
    22626  1.42690E-07 8.48087E-06 1.40714E-05-2.34197E-06-8.82135E-05-1.50105E-04-1.27136E-05-3.29470E-05-6.79693E-05



 n o d a l   p r i n t   o u t   f o r   t i m e  s t e p    6801                              ( at time 3.3996598E+00 )

 nodal point  x-disp     y-disp      z-disp      x-vel       y-vel       z-vel      x-accl      y-accl      z-accl      x-coor      y-coor      z-coor
    22626 -9.75860E-03-3.77133E-02-1.06414E+01-1.15857E-02 1.61155E-02-3.16267E+00-4.99237E-03-1.77295E-02 8.25010E-04 4.79544E+01-2.20675E+01-3.30293E+00



 n o d a l   p r i n t   o u t   f o r   t i m e  s t e p    6801                              ( at time 3.3996598E+00 )

 nodal point  x-rot      y-rot       z-rot       x-rot vel   y-rot vel   z-rot vel   x-rot acc   y-rot acc   z-rot acc
    22626  1.10250E-07-2.70320E-07-1.05696E-06-2.20220E-06-8.73620E-05-1.51984E-04 1.39784E-06 8.51626E-06-1.87949E-05



 n o d a l   p r i n t   o u t   f o r   t i m e  s t e p    7001                              ( at time 3.4996498E+00 )

 nodal point  x-disp     y-disp      z-disp      x-vel       y-vel       z-vel      x-accl      y-accl      z-accl      x-coor      y-coor      z-coor
    22626 -1.09510E-02-3.61720E-02-1.09577E+01-1.22734E-02 1.46893E-02-3.16295E+00-6.87750E-03-1.42636E-02-2.79932E-03 4.79532E+01-2.20660E+01-3.61918E+00



 n o d a l   p r i n t   o u t   f o r   t i m e  s t e p    7001                              ( at time 3.4996498E+00 )

 nodal point  x-rot      y-rot       z-rot       x-rot vel   y-rot vel   z-rot vel   x-rot acc   y-rot acc   z-rot acc
    22626  1.71488E-07-8.86127E-06-1.57620E-05 9.63266E-07-8.62545E-05-1.46042E-04 3.16578E-05 1.10756E-05 5.94213E-05



 n o d a l   p r i n t   o u t   f o r   t i m e  s t e p    7201                              ( at time 3.5996397E+00 )

 nodal point  x-disp     y-disp      z-disp      x-vel       y-vel       z-vel      x-accl      y-accl      z-accl      x-coor      y-coor      z-coor
    22626 -1.21942E-02-3.48119E-02-1.12739E+01-1.22699E-02 1.21725E-02-3.16267E+00 3.46953E-05-2.51711E-02 2.87323E-03 4.79520E+01-2.20646E+01-3.93544E+00



 n o d a l   p r i n t   o u t   f o r   t i m e  s t e p    7201                              ( at time 3.5996397E+00 )

 nodal point  x-rot      y-rot       z-rot       x-rot vel   y-rot vel   z-rot vel   x-rot acc   y-rot acc   z-rot acc
    22626  1.42757E-07-1.73117E-05-3.00095E-05 1.79747E-06-8.32359E-05-1.36820E-04 8.34285E-06 3.01895E-05 9.22340E-05



 n o d a l   p r i n t   o u t   f o r   t i m e  s t e p    7401                              ( at time 3.6996297E+00 )

 nodal point  x-disp     y-disp      z-disp      x-vel       y-vel       z-vel      x-accl      y-accl      z-accl      x-coor      y-coor      z-coor
    22626 -1.34088E-02-3.37640E-02-1.15901E+01-1.19810E-02 8.81131E-03-3.16167E+00 2.88971E-03-3.36147E-02 9.95019E-03 4.79508E+01-2.20636E+01-4.25162E+00



 n o d a l   p r i n t   o u t   f o r   t i m e  s t e p    7401                              ( at time 3.6996297E+00 )

 nodal point  x-rot      y-rot       z-rot       x-rot vel   y-rot vel   z-rot vel   x-rot acc   y-rot acc   z-rot acc
    22626  4.43870E-07-2.55061E-05-4.36678E-05 4.61667E-06-8.04713E-05-1.35411E-04 2.81948E-05 2.76481E-05 1.40897E-05



 n o d a l   p r i n t   o u t   f o r   t i m e  s t e p    7601                              ( at time 3.7996197E+00 )

 nodal point  x-disp     y-disp      z-disp      x-vel       y-vel       z-vel      x-accl      y-accl      z-accl      x-coor      y-coor      z-coor
    22626 -1.45811E-02-3.30139E-02-1.19062E+01-1.14963E-02 6.16697E-03-3.16098E+00 4.84785E-03-2.64461E-02 6.90768E-03 4.79496E+01-2.20628E+01-4.56772E+00



 n o d a l   p r i n t   o u t   f o r   t i m e  s t e p    7601                              ( at time 3.7996197E+00 )

 nodal point  x-rot      y-rot       z-rot       x-rot vel   y-rot vel   z-rot vel   x-rot acc   y-rot acc   z-rot acc
    22626  9.26582E-07-3.32113E-05-5.67796E-05 5.37970E-06-7.10506E-05-1.20173E-04 7.63105E-06 9.42167E-05 1.52401E-04



 n o d a l   p r i n t   o u t   f o r   t i m e  s t e p    7801                              ( at time 3.8996097E+00 )

 nodal point  x-disp     y-disp      z-disp      x-vel       y-vel       z-vel      x-accl      y-accl      z-accl      x-coor      y-coor      z-coor
    22626 -1.56995E-02-3.25016E-02-1.22223E+01-1.08519E-02 4.33855E-03-3.16091E+00 6.44399E-03-1.82860E-02 6.81944E-04 4.79485E+01-2.20623E+01-4.88378E+00



 n o d a l   p r i n t   o u t   f o r   t i m e  s t e p    7801                              ( at time 3.8996097E+00 )

 nodal point  x-rot      y-rot       z-rot       x-rot vel   y-rot vel   z-rot vel   x-rot acc   y-rot acc   z-rot acc
    22626  1.29816E-06-3.96992E-05-6.77295E-05 8.97586E-07-5.68071E-05-9.42057E-05-4.48255E-05 1.42449E-04 2.59695E-04



 n o d a l   p r i n t   o u t   f o r   t i m e  s t e p    8001                              ( at time 3.9995997E+00 )

 nodal point  x-disp     y-disp      z-disp      x-vel       y-vel       z-vel      x-accl      y-accl      z-accl      x-coor      y-coor      z-coor
    22626 -1.67565E-02-3.21118E-02-1.25384E+01-1.02526E-02 3.35219E-03-3.16124E+00 5.99402E-03-9.86456E-03-3.30482E-03 4.79474E+01-2.20619E+01-5.19986E+00



 n o d a l   p r i n t   o u t   f o r   t i m e  s t e p    8001                              ( at time 3.9995997E+00 )

 nodal point  x-rot      y-rot       z-rot       x-rot vel   y-rot vel   z-rot vel   x-rot acc   y-rot acc   z-rot acc
    22626  1.45370E-06-4.48165E-05-7.62142E-05-4.42674E-08-4.46962E-05-7.77653E-05-9.41949E-06 1.21122E-04 1.64420E-04



 n o d a l   p r i n t   o u t   f o r   t i m e  s t e p    8201                              ( at time 4.0995897E+00 )

 nodal point  x-disp     y-disp      z-disp      x-vel       y-vel       z-vel      x-accl      y-accl      z-accl      x-coor      y-coor      z-coor
    22626 -1.76986E-02-3.18982E-02-1.28544E+01-8.45167E-03 7.36231E-04-3.16076E+00 1.80109E-02-2.61622E-02 4.82130E-03 4.79465E+01-2.20617E+01-5.51593E+00



 n o d a l   p r i n t   o u t   f o r   t i m e  s t e p    8201                              ( at time 4.0995897E+00 )

 nodal point  x-rot      y-rot       z-rot       x-rot vel   y-rot vel   z-rot vel   x-rot acc   y-rot acc   z-rot acc
    22626  1.47990E-06-4.88098E-05-8.30025E-05 4.18270E-07-3.16938E-05-5.53575E-05 4.62583E-06 1.30037E-04 2.24100E-04



 n o d a l   p r i n t   o u t   f o r   t i m e  s t e p    8401                              ( at time 4.1995797E+00 )

 nodal point  x-disp     y-disp      z-disp      x-vel       y-vel       z-vel      x-accl      y-accl      z-accl      x-coor      y-coor      z-coor
    22626 -1.84635E-02-3.19480E-02-1.31704E+01-6.82720E-03-1.63129E-03-3.16015E+00 1.62463E-02-2.36776E-02 6.12082E-03 4.79457E+01-2.20617E+01-5.83194E+00



 n o d a l   p r i n t   o u t   f o r   t i m e  s t e p    8401                              ( at time 4.1995797E+00 )

 nodal point  x-rot      y-rot       z-rot       x-rot vel   y-rot vel   z-rot vel   x-rot acc   y-rot acc   z-rot acc
    22626  1.55061E-06-5.10893E-05-8.68006E-05-8.94726E-08-1.27315E-05-2.10868E-05-5.07794E-06 1.89642E-04 3.42741E-04



 n o d a l   p r i n t   o u t   f o r   t i m e  s t e p    8601                              ( at time 4.2995697E+00 )

 nodal point  x-disp     y-disp      z-disp      x-vel       y-vel       z-vel      x-accl      y-accl      z-accl      x-coor      y-coor      z-coor
    22626 -1.90856E-02-3.22302E-02-1.34864E+01-5.47326E-03-3.74914E-03-3.15996E+00 1.35408E-02-2.11806E-02 1.85270E-03 4.79451E+01-2.20620E+01-6.14791E+00



 n o d a l   p r i n t   o u t   f o r   t i m e  s t e p    8601                              ( at time 4.2995697E+00 )

 nodal point  x-rot      y-rot       z-rot       x-rot vel   y-rot vel   z-rot vel   x-rot acc   y-rot acc   z-rot acc
    22626  1.55311E-06-5.14228E-05-8.75041E-05 1.92583E-07 4.03564E-06 6.29088E-06 2.82084E-06 1.67689E-04 2.73805E-04



 n o d a l   p r i n t   o u t   f o r   t i m e  s t e p    8801                              ( at time 4.3995597E+00 )

 nodal point  x-disp     y-disp      z-disp      x-vel       y-vel       z-vel      x-accl      y-accl      z-accl      x-coor      y-coor      z-coor
    22626 -1.95447E-02-3.26407E-02-1.38024E+01-3.71184E-03-4.50270E-03-3.16064E+00 1.76160E-02-7.53642E-03-6.81708E-03 4.79446E+01-2.20624E+01-6.46390E+00



 n o d a l   p r i n t   o u t   f o r   t i m e  s t e p    8801                              ( at time 4.3995597E+00 )

 nodal point  x-rot      y-rot       z-rot       x-rot vel   y-rot vel   z-rot vel   x-rot acc   y-rot acc   z-rot acc
    22626  1.64524E-06-5.00437E-05-8.50201E-05 1.11920E-06 2.34572E-05 4.20130E-05 9.26715E-06 1.94235E-04 3.57258E-04



 n o d a l   p r i n t   o u t   f o r   t i m e  s t e p    9001                              ( at time 4.4995497E+00 )

 nodal point  x-disp     y-disp      z-disp      x-vel       y-vel       z-vel      x-accl      y-accl      z-accl      x-coor      y-coor      z-coor
    22626 -1.98301E-02-3.31907E-02-1.41184E+01-1.89162E-03-6.84330E-03-3.16022E+00 1.82039E-02-2.34082E-02 4.26572E-03 4.79444E+01-2.20630E+01-6.77992E+00



 n o d a l   p r i n t   o u t   f o r   t i m e  s t e p    9001                              ( at time 4.4995497E+00 )

 nodal point  x-rot      y-rot       z-rot       x-rot vel   y-rot vel   z-rot vel   x-rot acc   y-rot acc   z-rot acc
    22626  1.79689E-06-4.64079E-05-7.86857E-05 3.86473E-06 4.54153E-05 7.87913E-05 2.74579E-05 2.19603E-04 3.67818E-04



 n o d a l   p r i n t   o u t   f o r   t i m e  s t e p    9201                              ( at time 4.5995397E+00 )

 nodal point  x-disp     y-disp      z-disp      x-vel       y-vel       z-vel      x-accl      y-accl      z-accl      x-coor      y-coor      z-coor
    22626 -1.99241E-02-3.40317E-02-1.44344E+01 3.20609E-05-9.77073E-03-3.15960E+00 1.92388E-02-2.92773E-02 6.19951E-03 4.79443E+01-2.20638E+01-7.09588E+00



 n o d a l   p r i n t   o u t   f o r   t i m e  s t e p    9201                              ( at time 4.5995397E+00 )

 nodal point  x-rot      y-rot       z-rot       x-rot vel   y-rot vel   z-rot vel   x-rot acc   y-rot acc   z-rot acc
    22626  2.14352E-06-4.11200E-05-6.94585E-05 4.27424E-06 6.06404E-05 1.03932E-04 4.09547E-06 1.52267E-04 2.51436E-04



 n o d a l   p r i n t   o u t   f o r   t i m e  s t e p    9401                              ( at time 4.6995297E+00 )

 nodal point  x-disp     y-disp      z-disp      x-vel       y-vel       z-vel      x-accl      y-accl      z-accl      x-coor      y-coor      z-coor
    22626 -1.98082E-02-3.50857E-02-1.47503E+01 2.17908E-03-1.12968E-02-3.15946E+00 2.14723E-02-1.52623E-02 1.37105E-03 4.79444E+01-2.20649E+01-7.41180E+00



 n o d a l   p r i n t   o u t   f o r   t i m e  s t e p    9401                              ( at time 4.6995297E+00 )

 nodal point  x-rot      y-rot       z-rot       x-rot vel   y-rot vel   z-rot vel   x-rot acc   y-rot acc   z-rot acc
    22626  2.52936E-06-3.38879E-05-5.68874E-05 3.00384E-06 8.61031E-05 1.47282E-04-1.27052E-05 2.54653E-04 4.33537E-04



 n o d a l   p r i n t   o u t   f o r   t i m e  s t e p    9601                              ( at time 4.7995197E+00 )

 nodal point  x-disp     y-disp      z-disp      x-vel       y-vel       z-vel      x-accl      y-accl      z-accl      x-coor      y-coor      z-coor
    22626 -1.94914E-02-3.62854E-02-1.50662E+01 4.06530E-03-1.25272E-02-3.15978E+00 1.88641E-02-1.23052E-02-3.21421E-03 4.79447E+01-2.20661E+01-7.72772E+00



 n o d a l   p r i n t   o u t   f o r   t i m e  s t e p    9601                              ( at time 4.7995197E+00 )

 nodal point  x-rot      y-rot       z-rot       x-rot vel   y-rot vel   z-rot vel   x-rot acc   y-rot acc   z-rot acc
    22626  2.84663E-06-2.40673E-05-4.00722E-05-1.05527E-07 1.10409E-04 1.89333E-04-3.10969E-05 2.43085E-04 4.20552E-04



 n o d a l   p r i n t   o u t   f o r   t i m e  s t e p    9801                              ( at time 4.8995097E+00 )

 nodal point  x-disp     y-disp      z-disp      x-vel       y-vel       z-vel      x-accl      y-accl      z-accl      x-coor      y-coor      z-coor
    22626 -1.89935E-02-3.75861E-02-1.53822E+01 5.87122E-03-1.35876E-02-3.15996E+00 1.80611E-02-1.06055E-02-1.75017E-03 4.79452E+01-2.20674E+01-8.04369E+00



 n o d a l   p r i n t   o u t   f o r   t i m e  s t e p    9801                              ( at time 4.8995097E+00 )

 nodal point  x-rot      y-rot       z-rot       x-rot vel   y-rot vel   z-rot vel   x-rot acc   y-rot acc   z-rot acc
    22626  2.77806E-06-1.21342E-05-1.95019E-05-2.22404E-06 1.26971E-04 2.18591E-04-2.11873E-05 1.65632E-04 2.92612E-04



 n o d a l   p r i n t   o u t   f o r   t i m e  s t e p   10001                              ( at time 4.9994997E+00 )

 nodal point  x-disp     y-disp      z-disp      x-vel       y-vel       z-vel      x-accl      y-accl      z-accl      x-coor      y-coor      z-coor
    22626 -1.82899E-02-3.90436E-02-1.56981E+01 8.14605E-03-1.56125E-02-3.15975E+00 2.27504E-02-2.02500E-02 2.05775E-03 4.79459E+01-2.20688E+01-8.35964E+00



 n o d a l   p r i n t   o u t   f o r   t i m e  s t e p   10001                              ( at time 4.9994997E+00 )

 nodal point  x-rot      y-rot       z-rot       x-rot vel   y-rot vel   z-rot vel   x-rot acc   y-rot acc   z-rot acc
    22626  2.56416E-06 1.45333E-06 3.87494E-06-1.61987E-06 1.44741E-04 2.49274E-04 6.04233E-06 1.77723E-04 3.06861E-04



 n o d a l   p r i n t   o u t   f o r   t i m e  s t e p   10202                              ( at time 5.0999896E+00 )

 nodal point  x-disp     y-disp      z-disp      x-vel       y-vel       z-vel      x-accl      y-accl      z-accl      x-coor      y-coor      z-coor
    22626 -1.73683E-02-4.06793E-02-1.60157E+01 1.01180E-02-1.67854E-02-3.15991E+00 1.96238E-02-1.16722E-02-1.62521E-03 4.79468E+01-2.20705E+01-8.67716E+00



 n o d a l   p r i n t   o u t   f o r   t i m e  s t e p   10202                              ( at time 5.0999896E+00 )

 nodal point  x-rot      y-rot       z-rot       x-rot vel   y-rot vel   z-rot vel   x-rot acc   y-rot acc   z-rot acc
    22626  2.32499E-06 1.71903E-05 3.07691E-05-4.41922E-06 1.65775E-04 2.84480E-04-2.78571E-05 2.09313E-04 3.50349E-04



 n o d a l   p r i n t   o u t   f o r   t i m e  s t e p   10402                              ( at time 5.1999796E+00 )

 nodal point  x-disp     y-disp      z-disp      x-vel       y-vel       z-vel      x-accl      y-accl      z-accl      x-coor      y-coor      z-coor
    22626 -1.62838E-02-4.23596E-02-1.63317E+01 1.15614E-02-1.65152E-02-3.16107E+00 1.44349E-02 2.70162E-03-1.15048E-02 4.79479E+01-2.20721E+01-8.99317E+00



 n o d a l   p r i n t   o u t   f o r   t i m e  s t e p   10402                              ( at time 5.1999796E+00 )

 nodal point  x-rot      y-rot       z-rot       x-rot vel   y-rot vel   z-rot vel   x-rot acc   y-rot acc   z-rot acc
    22626  1.94945E-06 3.47500E-05 6.07066E-05-4.13100E-06 1.81279E-04 3.12716E-04 2.88250E-06 1.55053E-04 2.82381E-04



 n o d a l   p r i n t   o u t   f o r   t i m e  s t e p   10602                              ( at time 5.2999696E+00 )

 nodal point  x-disp     y-disp      z-disp      x-vel       y-vel       z-vel      x-accl      y-accl      z-accl      x-coor      y-coor      z-coor
    22626 -1.50442E-02-4.39896E-02-1.66478E+01 1.30965E-02-1.60954E-02-3.16114E+00 1.53532E-02 4.19847E-03-7.65401E-04 4.79491E+01-2.20738E+01-9.30928E+00



 n o d a l   p r i n t   o u t   f o r   t i m e  s t e p   10602                              ( at time 5.2999696E+00 )

 nodal point  x-rot      y-rot       z-rot       x-rot vel   y-rot vel   z-rot vel   x-rot acc   y-rot acc   z-rot acc
    22626  1.12447E-06 5.39963E-05 9.35654E-05-1.13357E-05 2.05256E-04 3.37994E-04-7.20548E-05 2.39796E-04 2.52812E-04



 n o d a l   p r i n t   o u t   f o r   t i m e  s t e p   10802                              ( at time 5.3999596E+00 )

 nodal point  x-disp     y-disp      z-disp      x-vel       y-vel       z-vel      x-accl      y-accl      z-accl      x-coor      y-coor      z-coor
    22626 -1.36732E-02-4.55231E-02-1.69638E+01 1.46395E-02-1.49393E-02-3.15849E+00 1.54306E-02 1.15625E-02 2.64791E-02 4.79505E+01-2.20753E+01-9.62526E+00



 n o d a l   p r i n t   o u t   f o r   t i m e  s t e p   10802                              ( at time 5.3999596E+00 )

 nodal point  x-rot      y-rot       z-rot       x-rot vel   y-rot vel   z-rot vel   x-rot acc   y-rot acc   z-rot acc
    22626  1.12027E-06 7.66981E-05 1.27924E-04 5.94764E-06 2.59685E-04 3.50206E-04 1.72851E-04 5.44344E-04 1.22128E-04



 n o d a l   p r i n t   o u t   f o r   t i m e  s t e p   11002                              ( at time 5.4999496E+00 )

 nodal point  x-disp     y-disp      z-disp      x-vel       y-vel       z-vel      x-accl      y-accl      z-accl      x-coor      y-coor      z-coor
    22626 -1.21460E-02-4.69041E-02-1.72792E+01 1.62609E-02-1.27365E-02-3.15059E+00 1.62166E-02 2.20304E-02 7.90294E-02 4.79520E+01-2.20767E+01-9.94073E+00



 n o d a l   p r i n t   o u t   f o r   t i m e  s t e p   11002                              ( at time 5.4999496E+00 )

 nodal point  x-rot      y-rot       z-rot       x-rot vel   y-rot vel   z-rot vel   x-rot acc   y-rot acc   z-rot acc
    22626  2.64108E-06 1.07556E-04 1.62706E-04 2.96098E-05 3.65623E-04 3.53194E-04 2.36646E-04 1.05949E-03 2.98807E-05



 n o d a l   p r i n t   o u t   f o r   t i m e  s t e p   11202                              ( at time 5.5999396E+00 )

 nodal point  x-disp     y-disp      z-disp      x-vel       y-vel       z-vel      x-accl      y-accl      z-accl      x-coor      y-coor      z-coor
    22626 -1.05058E-02-4.79190E-02-1.75936E+01 1.65175E-02-7.50712E-03-3.13739E+00 2.56603E-03 5.22991E-02 1.32066E-01 4.79537E+01-2.20777E+01-1.02551E+01



 n o d a l   p r i n t   o u t   f o r   t i m e  s t e p   11202                              ( at time 5.5999396E+00 )

 nodal point  x-rot      y-rot       z-rot       x-rot vel   y-rot vel   z-rot vel   x-rot acc   y-rot acc   z-rot acc
    22626  9.67489E-06 1.52356E-04 1.96132E-04 1.15029E-04 5.34424E-04 3.25617E-04 8.54282E-04 1.68818E-03-2.75800E-04



 n o d a l   p r i n t   o u t   f o r   t i m e  s t e p   11402                              ( at time 5.6999296E+00 )

 nodal point  x-disp     y-disp      z-disp      x-vel       y-vel       z-vel      x-accl      y-accl      z-accl      x-coor      y-coor      z-coor
    22626 -8.81163E-03-4.83979E-02-1.79065E+01 1.72208E-02-1.47260E-03-3.11933E+00 7.03304E-03 6.03510E-02 1.80608E-01 4.79554E+01-2.20782E+01-1.05680E+01



 n o d a l   p r i n t   o u t   f o r   t i m e  s t e p   11402                              ( at time 5.6999296E+00 )

 nodal point  x-rot      y-rot       z-rot       x-rot vel   y-rot vel   z-rot vel   x-rot acc   y-rot acc   z-rot acc
    22626  2.51916E-05 2.15538E-04 2.26675E-04 2.04565E-04 7.39963E-04 2.84685E-04 8.95441E-04 2.05559E-03-4.09359E-04



 n o d a l   p r i n t   o u t   f o r   t i m e  s t e p   11602                              ( at time 5.7999195E+00 )

 nodal point  x-disp     y-disp      z-disp      x-vel       y-vel       z-vel      x-accl      y-accl      z-accl      x-coor      y-coor      z-coor
    22626 -7.00682E-03-4.83667E-02-1.82173E+01 1.88817E-02 3.06402E-03-3.09657E+00 1.66115E-02 4.53708E-02 2.27563E-01 4.79572E+01-2.20782E+01-1.08788E+01



 n o d a l   p r i n t   o u t   f o r   t i m e  s t e p   11602                              ( at time 5.7999195E+00 )

 nodal point  x-rot      y-rot       z-rot       x-rot vel   y-rot vel   z-rot vel   x-rot acc   y-rot acc   z-rot acc
    22626  4.92856E-05 3.00647E-04 2.53562E-04 3.03400E-04 9.62680E-04 2.41457E-04 9.88452E-04 2.22740E-03-4.32317E-04



 n o d a l   p r i n t   o u t   f o r   t i m e  s t e p   11802                              ( at time 5.8999095E+00 )

 nodal point  x-disp     y-disp      z-disp      x-vel       y-vel       z-vel      x-accl      y-accl      z-accl      x-coor      y-coor      z-coor
    22626 -5.08133E-03-4.77609E-02-1.85256E+01 1.99605E-02 8.33853E-03-3.07045E+00 1.07881E-02 5.27505E-02 2.61297E-01 4.79591E+01-2.20776E+01-1.11871E+01



 n o d a l   p r i n t   o u t   f o r   t i m e  s t e p   11802                              ( at time 5.8999095E+00 )

 nodal point  x-rot      y-rot       z-rot       x-rot vel   y-rot vel   z-rot vel   x-rot acc   y-rot acc   z-rot acc
    22626  8.56854E-05 4.10109E-04 2.74473E-04 4.29451E-04 1.22572E-03 1.83498E-04 1.26064E-03 2.63068E-03-5.79651E-04



 n o d a l   p r i n t   o u t   f o r   t i m e  s t e p   12002                              ( at time 5.9998995E+00 )

 nodal point  x-disp     y-disp      z-disp      x-vel       y-vel       z-vel      x-accl      y-accl      z-accl      x-coor      y-coor      z-coor
    22626 -3.08686E-03-4.66515E-02-1.88311E+01 2.03529E-02 1.47361E-02-3.03887E+00 3.92533E-03 6.39818E-02 3.15758E-01 4.79611E+01-2.20764E+01-1.14926E+01



 n o d a l   p r i n t   o u t   f o r   t i m e  s t e p   12002                              ( at time 5.9998995E+00 )

 nodal point  x-rot      y-rot       z-rot       x-rot vel   y-rot vel   z-rot vel   x-rot acc   y-rot acc   z-rot acc
    22626  1.34098E-04 5.49030E-04 2.89153E-04 5.64005E-04 1.54776E-03 1.06623E-04 1.34567E-03 3.22072E-03-7.68825E-04



 n o d a l   p r i n t   o u t   f o r   t i m e  s t e p   12202                              ( at time 6.0998895E+00 )

 nodal point  x-disp     y-disp      z-disp      x-vel       y-vel       z-vel      x-accl      y-accl      z-accl      x-coor      y-coor      z-coor
    22626 -9.71036E-04-4.49376E-02-1.91335E+01 2.14363E-02 2.01520E-02-3.00773E+00 1.08345E-02 5.41650E-02 3.11488E-01 4.79632E+01-2.20747E+01-1.17950E+01



 n o d a l   p r i n t   o u t   f o r   t i m e  s t e p   12202                              ( at time 6.0998895E+00 )

 nodal point  x-rot      y-rot       z-rot       x-rot vel   y-rot vel   z-rot vel   x-rot acc   y-rot acc   z-rot acc
    22626  1.97408E-04 7.17029E-04 2.96041E-04 7.07258E-04 1.83985E-03 3.93870E-05 1.43267E-03 2.92122E-03-6.72427E-04



 n o d a l   p r i n t   o u t   f o r   t i m e  s t e p   12402                              ( at time 6.1998795E+00 )

 nodal point  x-disp     y-disp      z-disp      x-vel       y-vel       z-vel      x-accl      y-accl      z-accl      x-coor      y-coor      z-coor
    22626  1.19740E-03-4.26150E-02-1.94325E+01 2.22475E-02 2.63348E-02-2.97423E+00 8.11253E-03 6.18334E-02 3.35067E-01 4.79654E+01-2.20724E+01-1.20940E+01



 n o d a l   p r i n t   o u t   f o r   t i m e  s t e p   12402                              ( at time 6.1998795E+00 )

 nodal point  x-rot      y-rot       z-rot       x-rot vel   y-rot vel   z-rot vel   x-rot acc   y-rot acc   z-rot acc
    22626  2.75543E-04 9.17609E-04 2.94104E-04 8.58125E-04 2.16506E-03-6.33482E-05 1.50882E-03 3.25243E-03-1.02746E-03



 n o d a l   p r i n t   o u t   f o r   t i m e  s t e p   12602                              ( at time 6.2998695E+00 )

 nodal point  x-disp     y-disp      z-disp      x-vel       y-vel       z-vel      x-accl      y-accl      z-accl      x-coor      y-coor      z-coor
    22626  3.47142E-03-3.96645E-02-1.97281E+01 2.36670E-02 3.20645E-02-2.93766E+00 1.41964E-02 5.73030E-02 3.65661E-01 4.79677E+01-2.20695E+01-1.23895E+01



 n o d a l   p r i n t   o u t   f o r   t i m e  s t e p   12602                              ( at time 6.2998695E+00 )

 nodal point  x-rot      y-rot       z-rot       x-rot vel   y-rot vel   z-rot vel   x-rot acc   y-rot acc   z-rot acc
    22626  3.69944E-04 1.15168E-03 2.82392E-04 1.00570E-03 2.49933E-03-1.72644E-04 1.47589E-03 3.34303E-03-1.09307E-03



 n o d a l   p r i n t   o u t   f o r   t i m e  s t e p   12802                              ( at time 6.3998595E+00 )

 nodal point  x-disp     y-disp      z-disp      x-vel       y-vel       z-vel      x-accl      y-accl      z-accl      x-coor      y-coor      z-coor
    22626  5.99905E-03-3.61546E-02-2.00199E+01 2.67540E-02 3.86951E-02-2.90004E+00 3.08733E-02 6.63128E-02 3.76251E-01 4.79702E+01-2.20659E+01-1.26814E+01



 n o d a l   p r i n t   o u t   f o r   t i m e  s t e p   12802                              ( at time 6.3998595E+00 )

 nodal point  x-rot      y-rot       z-rot       x-rot vel   y-rot vel   z-rot vel   x-rot acc   y-rot acc   z-rot acc
    22626  4.80660E-04 1.41871E-03 2.59921E-04 1.17682E-03 2.84763E-03-2.79339E-04 1.71139E-03 3.48330E-03-1.06706E-03



 n o d a l   p r i n t   o u t   f o r   t i m e  s t e p   13002                              ( at time 6.4998495E+00 )

 nodal point  x-disp     y-disp      z-disp      x-vel       y-vel       z-vel      x-accl      y-accl      z-accl      x-coor      y-coor      z-coor
    22626  8.85470E-03-3.20172E-02-2.03079E+01 2.98232E-02 4.40649E-02-2.86058E+00 3.06955E-02 5.37034E-02 3.94649E-01 4.79730E+01-2.20618E+01-1.29694E+01



 n o d a l   p r i n t   o u t   f o r   t i m e  s t e p   13002                              ( at time 6.4998495E+00 )

 nodal point  x-rot      y-rot       z-rot       x-rot vel   y-rot vel   z-rot vel   x-rot acc   y-rot acc   z-rot acc
    22626  6.06908E-04 1.72115E-03 2.27220E-04 1.34001E-03 3.19299E-03-3.66274E-04 1.63211E-03 3.45393E-03-8.69430E-04



 n o d a l   p r i n t   o u t   f o r   t i m e  s t e p   13202                              ( at time 6.5998395E+00 )

 nodal point  x-disp     y-disp      z-disp      x-vel       y-vel       z-vel      x-accl      y-accl      z-accl      x-coor      y-coor      z-coor
    22626  1.20942E-02-2.72082E-02-2.05919E+01 3.43875E-02 5.16975E-02-2.81926E+00 4.56477E-02 7.63336E-02 4.13233E-01 4.79763E+01-2.20570E+01-1.32534E+01



 n o d a l   p r i n t   o u t   f o r   t i m e  s t e p   13202                              ( at time 6.5998395E+00 )

 nodal point  x-rot      y-rot       z-rot       x-rot vel   y-rot vel   z-rot vel   x-rot acc   y-rot acc   z-rot acc
    22626  7.50668E-04 2.05689E-03 1.83687E-04 1.53149E-03 3.54884E-03-4.91819E-04 1.91497E-03 3.55884E-03-1.25557E-03



 n o d a l   p r i n t   o u t   f o r   t i m e  s t e p   13402                              ( at time 6.6998295E+00 )

 nodal point  x-disp     y-disp      z-disp      x-vel       y-vel       z-vel      x-accl      y-accl      z-accl      x-coor      y-coor      z-coor
    22626  1.57232E-02-2.17117E-02-2.08717E+01 3.92713E-02 5.81391E-02-2.77771E+00 4.88426E-02 6.44223E-02 4.15570E-01 4.79799E+01-2.20515E+01-1.35332E+01



 n o d a l   p r i n t   o u t   f o r   t i m e  s t e p   13402                              ( at time 6.6998295E+00 )

 nodal point  x-rot      y-rot       z-rot       x-rot vel   y-rot vel   z-rot vel   x-rot acc   y-rot acc   z-rot acc
    22626  9.12157E-04 2.42683E-03 1.27799E-04 1.70232E-03 3.85975E-03-6.24170E-04 1.70847E-03 3.10948E-03-1.32365E-03



 n o d a l   p r i n t   o u t   f o r   t i m e  s t e p   13602                              ( at time 6.7998195E+00 )

 nodal point  x-disp     y-disp      z-disp      x-vel       y-vel       z-vel      x-accl      y-accl      z-accl      x-coor      y-coor      z-coor
    22626  1.99558E-02-1.55989E-02-2.11471E+01 4.54932E-02 6.46676E-02-2.73178E+00 6.22249E-02 6.52914E-02 4.59350E-01 4.79841E+01-2.20454E+01-1.38086E+01



 n o d a l   p r i n t   o u t   f o r   t i m e  s t e p   13602                              ( at time 6.7998195E+00 )

 nodal point  x-rot      y-rot       z-rot       x-rot vel   y-rot vel   z-rot vel   x-rot acc   y-rot acc   z-rot acc
    22626  1.09260E-03 2.82971E-03 5.95561E-05 1.92659E-03 4.17916E-03-7.48187E-04 2.24288E-03 3.19440E-03-1.24030E-03



 n o d a l   p r i n t   o u t   f o r   t i m e  s t e p   13802                              ( at time 6.8998095E+00 )

 nodal point  x-disp     y-disp      z-disp      x-vel       y-vel       z-vel      x-accl      y-accl      z-accl      x-coor      y-coor      z-coor
    22626  2.48239E-02-8.78382E-03-2.14178E+01 5.17745E-02 7.20607E-02-2.68388E+00 6.28195E-02 7.39386E-02 4.79012E-01 4.79890E+01-2.20386E+01-1.40793E+01



 n o d a l   p r i n t   o u t   f o r   t i m e  s t e p   13802                              ( at time 6.8998095E+00 )

 nodal point  x-rot      y-rot       z-rot       x-rot vel   y-rot vel   z-rot vel   x-rot acc   y-rot acc   z-rot acc
    22626  1.29383E-03 3.26455E-03-2.14946E-05 2.12328E-03 4.51180E-03-8.75820E-04 1.96711E-03 3.32675E-03-1.27645E-03



 n o d a l   p r i n t   o u t   f o r   t i m e  s t e p   14002                              ( at time 6.9997995E+00 )

 nodal point  x-disp     y-disp      z-disp      x-vel       y-vel       z-vel      x-accl      y-accl      z-accl      x-coor      y-coor      z-coor
    22626  3.03668E-02-1.40885E-03-2.16838E+01 5.88984E-02 7.65543E-02-2.63507E+00 7.12466E-02 4.49406E-02 4.88154E-01 4.79945E+01-2.20312E+01-1.43453E+01



 n o d a l   p r i n t   o u t   f o r   t i m e  s t e p   14002                              ( at time 6.9997995E+00 )

 nodal point  x-rot      y-rot       z-rot       x-rot vel   y-rot vel   z-rot vel   x-rot acc   y-rot acc   z-rot acc
    22626  1.51549E-03 3.73067E-03-1.14303E-04 2.32027E-03 4.80954E-03-9.79913E-04 1.97013E-03 2.97766E-03-1.04104E-03



 n o d a l   p r i n t   o u t   f o r   t i m e  s t e p   14202                              ( at time 7.0997895E+00 )

 nodal point  x-disp     y-disp      z-disp      x-vel       y-vel       z-vel      x-accl      y-accl      z-accl      x-coor      y-coor      z-coor
    22626  3.66548E-02 6.66853E-03-2.19447E+01 6.75851E-02 8.42718E-02-2.58326E+00 8.68746E-02 7.71829E-02 5.18191E-01 4.80008E+01-2.20231E+01-1.46062E+01



 n o d a l   p r i n t   o u t   f o r   t i m e  s t e p   14202                              ( at time 7.0997895E+00 )

 nodal point  x-rot      y-rot       z-rot       x-rot vel   y-rot vel   z-rot vel   x-rot acc   y-rot acc   z-rot acc
    22626  1.75953E-03 4.22630E-03-2.21510E-04 2.56412E-03 5.11697E-03-1.13881E-03 2.43868E-03 3.07462E-03-1.58911E-03



 n o d a l   p r i n t   o u t   f o r   t i m e  s t e p   14402                              ( at time 7.1997794E+00 )

 nodal point  x-disp     y-disp      z-disp      x-vel       y-vel       z-vel      x-accl      y-accl      z-accl      x-coor      y-coor      z-coor
    22626  4.37701E-02 1.53037E-02-2.22002E+01 7.54833E-02 8.85219E-02-2.52765E+00 7.89901E-02 4.25048E-02 5.56127E-01 4.80079E+01-2.20145E+01-1.48617E+01



 n o d a l   p r i n t   o u t   f o r   t i m e  s t e p   14402                              ( at time 7.1997794E+00 )

 nodal point  x-rot      y-rot       z-rot       x-rot vel   y-rot vel   z-rot vel   x-rot acc   y-rot acc   z-rot acc
    22626  2.02883E-03 4.75292E-03-3.42419E-04 2.79414E-03 5.41118E-03-1.27023E-03 2.30041E-03 2.94236E-03-1.31432E-03



 n o d a l   p r i n t   o u t   f o r   t i m e  s t e p   14602                              ( at time 7.2997694E+00 )

 nodal point  x-disp     y-disp      z-disp      x-vel       y-vel       z-vel      x-accl      y-accl      z-accl      x-coor      y-coor      z-coor
    22626  5.18399E-02 2.44512E-02-2.24502E+01 8.39575E-02 9.43929E-02-2.47234E+00 8.47512E-02 5.87161E-02 5.53127E-01 4.80160E+01-2.20053E+01-1.51117E+01



 n o d a l   p r i n t   o u t   f o r   t i m e  s t e p   14602                              ( at time 7.2997694E+00 )

 nodal point  x-rot      y-rot       z-rot       x-rot vel   y-rot vel   z-rot vel   x-rot acc   y-rot acc   z-rot acc
    22626  2.32046E-03 5.30863E-03-4.75030E-04 3.04303E-03 5.70400E-03-1.39028E-03 2.48919E-03 2.92857E-03-1.20063E-03



 n o d a l   p r i n t   o u t   f o r   t i m e  s t e p   14802                              ( at time 7.3997594E+00 )

 nodal point  x-disp     y-disp      z-disp      x-vel       y-vel       z-vel      x-accl      y-accl      z-accl      x-coor      y-coor      z-coor
    22626  6.07144E-02 3.42171E-02-2.26945E+01 9.29160E-02 1.00950E-01-2.41491E+00 8.95933E-02 6.55730E-02 5.74370E-01 4.80249E+01-2.19956E+01-1.53560E+01



 n o d a l   p r i n t   o u t   f o r   t i m e  s t e p   14802                              ( at time 7.3997594E+00 )

 nodal point  x-rot      y-rot       z-rot       x-rot vel   y-rot vel   z-rot vel   x-rot acc   y-rot acc   z-rot acc
    22626  2.63860E-03 5.89461E-03-6.20571E-04 3.30254E-03 6.02008E-03-1.51806E-03 2.59537E-03 3.16108E-03-1.27798E-03



 n o d a l   p r i n t   o u t   f o r   t i m e  s t e p   15002                              ( at time 7.4997494E+00 )

 nodal point  x-disp     y-disp      z-disp      x-vel       y-vel       z-vel      x-accl      y-accl      z-accl      x-coor      y-coor      z-coor
    22626  7.04671E-02 4.45694E-02-2.29330E+01 1.02494E-01 1.05698E-01-2.35577E+00 9.57928E-02 4.74868E-02 5.91428E-01 4.80346E+01-2.19852E+01-1.55945E+01



 n o d a l   p r i n t   o u t   f o r   t i m e  s t e p   15002                              ( at time 7.4997494E+00 )

 nodal point  x-rot      y-rot       z-rot       x-rot vel   y-rot vel   z-rot vel   x-rot acc   y-rot acc   z-rot acc
    22626  2.98093E-03 6.51100E-03-7.76807E-04 3.56660E-03 6.31146E-03-1.60218E-03 2.64083E-03 2.91406E-03-8.41200E-04



 n o d a l   p r i n t   o u t   f o r   t i m e  s t e p   15202                              ( at time 7.5997394E+00 )

 nodal point  x-disp     y-disp      z-disp      x-vel       y-vel       z-vel      x-accl      y-accl      z-accl      x-coor      y-coor      z-coor
    22626  8.10153E-02 5.54269E-02-2.31655E+01 1.10268E-01 1.11557E-01-2.29454E+00 7.77469E-02 5.86000E-02 6.12395E-01 4.80452E+01-2.19744E+01-1.58270E+01



 n o d a l   p r i n t   o u t   f o r   t i m e  s t e p   15202                              ( at time 7.5997394E+00 )

 nodal point  x-rot      y-rot       z-rot       x-rot vel   y-rot vel   z-rot vel   x-rot acc   y-rot acc   z-rot acc
    22626  3.35138E-03 7.15520E-03-9.43048E-04 3.84613E-03 6.56930E-03-1.72684E-03 2.79565E-03 2.57873E-03-1.24677E-03



 n o d a l   p r i n t   o u t   f o r   t i m e  s t e p   15402                              ( at time 7.6997294E+00 )

 nodal point  x-disp     y-disp      z-disp      x-vel       y-vel       z-vel      x-accl      y-accl      z-accl      x-coor      y-coor      z-coor
    22626  9.24378E-02 6.67188E-02-2.33917E+01 1.17718E-01 1.14602E-01-2.23058E+00 7.45028E-02 3.04521E-02 6.39668E-01 4.80566E+01-2.19631E+01-1.60532E+01



 n o d a l   p r i n t   o u t   f o r   t i m e  s t e p   15402                              ( at time 7.6997294E+00 )

 nodal point  x-rot      y-rot       z-rot       x-rot vel   y-rot vel   z-rot vel   x-rot acc   y-rot acc   z-rot acc
    22626  3.74872E-03 7.82727E-03-1.12003E-03 4.11790E-03 6.85259E-03-1.81168E-03 2.71789E-03 2.83315E-03-8.48467E-04



 n o d a l   p r i n t   o u t   f o r   t i m e  s t e p   15602                              ( at time 7.7997194E+00 )

 nodal point  x-disp     y-disp      z-disp      x-vel       y-vel       z-vel      x-accl      y-accl      z-accl      x-coor      y-coor      z-coor
    22626  1.04679E-01 7.83814E-02-2.36115E+01 1.25862E-01 1.19900E-01-2.16516E+00 8.14525E-02 5.29879E-02 6.54301E-01 4.80689E+01-2.19514E+01-1.62730E+01



 n o d a l   p r i n t   o u t   f o r   t i m e  s t e p   15602                              ( at time 7.7997194E+00 )

 nodal point  x-rot      y-rot       z-rot       x-rot vel   y-rot vel   z-rot vel   x-rot acc   y-rot acc   z-rot acc
    22626  4.17740E-03 8.52483E-03-1.30487E-03 4.45075E-03 7.10205E-03-1.87492E-03 3.32883E-03 2.49483E-03-6.32469E-04



 n o d a l   p r i n t   o u t   f o r   t i m e  s t e p   15802                              ( at time 7.8997094E+00 )

 nodal point  x-disp     y-disp      z-disp      x-vel       y-vel       z-vel      x-accl      y-accl      z-accl      x-coor      y-coor      z-coor
    22626  1.17703E-01 9.05390E-02-2.38248E+01 1.34180E-01 1.22623E-01-2.10057E+00 8.31876E-02 2.72334E-02 6.45970E-01 4.80819E+01-2.19393E+01-1.64863E+01



 n o d a l   p r i n t   o u t   f o r   t i m e  s t e p   15802                              ( at time 7.8997094E+00 )

 nodal point  x-rot      y-rot       z-rot       x-rot vel   y-rot vel   z-rot vel   x-rot acc   y-rot acc   z-rot acc
    22626  4.63695E-03 9.24572E-03-1.49923E-03 4.75301E-03 7.32449E-03-1.97780E-03 3.02299E-03 2.22464E-03-1.02896E-03



 n o d a l   p r i n t   o u t   f o r   t i m e  s t e p   16002                              ( at time 7.9996994E+00 )

 nodal point  x-disp     y-disp      z-disp      x-vel       y-vel       z-vel      x-accl      y-accl      z-accl      x-coor      y-coor      z-coor
    22626  1.31554E-01 1.02885E-01-2.40314E+01 1.42514E-01 1.24730E-01-2.03351E+00 8.33499E-02 2.10725E-02 6.70595E-01 4.80957E+01-2.19269E+01-1.66929E+01



 n o d a l   p r i n t   o u t   f o r   t i m e  s t e p   16002                              ( at time 7.9996994E+00 )

 nodal point  x-rot      y-rot       z-rot       x-rot vel   y-rot vel   z-rot vel   x-rot acc   y-rot acc   z-rot acc
    22626  5.12662E-03 9.98923E-03-1.70163E-03 5.06866E-03 7.53607E-03-2.03834E-03 3.15678E-03 2.11606E-03-6.05437E-04



 n o d a l   p r i n t   o u t   f o r   t i m e  s t e p   16202                              ( at time 8.0996894E+00 )

 nodal point  x-disp     y-disp      z-disp      x-vel       y-vel       z-vel      x-accl      y-accl      z-accl      x-coor      y-coor      z-coor
    22626  1.46218E-01 1.15559E-01-2.42313E+01 1.49683E-01 1.27906E-01-1.96438E+00 7.16915E-02 3.17596E-02 6.91416E-01 4.81104E+01-2.19142E+01-1.68928E+01



 n o d a l   p r i n t   o u t   f o r   t i m e  s t e p   16202                              ( at time 8.0996894E+00 )

 nodal point  x-rot      y-rot       z-rot       x-rot vel   y-rot vel   z-rot vel   x-rot acc   y-rot acc   z-rot acc
    22626  5.64842E-03 1.07531E-02-1.91034E-03 5.38106E-03 7.74940E-03-2.12105E-03 3.12430E-03 2.13343E-03-8.27177E-04



 n o d a l   p r i n t   o u t   f o r   t i m e  s t e p   16402                              ( at time 8.1996794E+00 )

 nodal point  x-disp     y-disp      z-disp      x-vel       y-vel       z-vel      x-accl      y-accl      z-accl      x-coor      y-coor      z-coor
    22626  1.61706E-01 1.28477E-01-2.44242E+01 1.58279E-01 1.30295E-01-1.89388E+00 8.59757E-02 2.38869E-02 7.05060E-01 4.81259E+01-2.19013E+01-1.70857E+01



 n o d a l   p r i n t   o u t   f o r   t i m e  s t e p   16402                              ( at time 8.1996794E+00 )

 nodal point  x-rot      y-rot       z-rot       x-rot vel   y-rot vel   z-rot vel   x-rot acc   y-rot acc   z-rot acc
    22626  6.20320E-03 1.15370E-02-2.12663E-03 5.69137E-03 7.93281E-03-2.18165E-03 3.10342E-03 1.83432E-03-6.06022E-04



 n o d a l   p r i n t   o u t   f o r   t i m e  s t e p   16602                              ( at time 8.2996694E+00 )

 nodal point  x-disp     y-disp      z-disp      x-vel       y-vel       z-vel      x-accl      y-accl      z-accl      x-coor      y-coor      z-coor
    22626  1.77990E-01 1.41555E-01-2.46102E+01 1.66186E-01 1.30861E-01-1.82542E+00 7.90692E-02 5.66897E-03 6.84638E-01 4.81422E+01-2.18882E+01-1.72717E+01



 n o d a l   p r i n t   o u t   f o r   t i m e  s t e p   16602                              ( at time 8.2996694E+00 )

 nodal point  x-rot      y-rot       z-rot       x-rot vel   y-rot vel   z-rot vel   x-rot acc   y-rot acc   z-rot acc
    22626  6.78869E-03 1.23362E-02-2.34798E-03 5.99570E-03 8.07637E-03-2.23411E-03 3.04362E-03 1.43571E-03-5.24648E-04



 n o d a l   p r i n t   o u t   f o r   t i m e  s t e p   16802                              ( at time 8.3996594E+00 )

 nodal point  x-disp     y-disp      z-disp      x-vel       y-vel       z-vel      x-accl      y-accl      z-accl      x-coor      y-coor      z-coor
    22626  1.94948E-01 1.54674E-01-2.47890E+01 1.73545E-01 1.31595E-01-1.75286E+00 7.36064E-02 7.34150E-03 7.25755E-01 4.81591E+01-2.18751E+01-1.74505E+01



 n o d a l   p r i n t   o u t   f o r   t i m e  s t e p   16802                              ( at time 8.3996594E+00 )

 nodal point  x-rot      y-rot       z-rot       x-rot vel   y-rot vel   z-rot vel   x-rot acc   y-rot acc   z-rot acc
    22626  7.40552E-03 1.31513E-02-2.57643E-03 6.34442E-03 8.23149E-03-2.31419E-03 3.48748E-03 1.55137E-03-8.00879E-04



 n o d a l   p r i n t   o u t   f o r   t i m e  s t e p   17002                              ( at time 8.4996494E+00 )

 nodal point  x-disp     y-disp      z-disp      x-vel       y-vel       z-vel      x-accl      y-accl      z-accl      x-coor      y-coor      z-coor
    22626  2.12675E-01 1.67776E-01-2.49607E+01 1.81236E-01 1.29526E-01-1.68068E+00 7.69104E-02-2.06937E-02 7.21846E-01 4.81769E+01-2.18620E+01-1.76222E+01



 n o d a l   p r i n t   o u t   f o r   t i m e  s t e p   17002                              ( at time 8.4996494E+00 )

 nodal point  x-rot      y-rot       z-rot       x-rot vel   y-rot vel   z-rot vel   x-rot acc   y-rot acc   z-rot acc
    22626  8.05729E-03 1.39808E-02-2.81089E-03 6.68966E-03 8.36621E-03-2.36795E-03 3.45282E-03 1.34736E-03-5.37732E-04



 n o d a l   p r i n t   o u t   f o r   t i m e  s t e p   17202                              ( at time 8.5996394E+00 )

 nodal point  x-disp     y-disp      z-disp      x-vel       y-vel       z-vel      x-accl      y-accl      z-accl      x-coor      y-coor      z-coor
    22626  2.31200E-01 1.80532E-01-2.51250E+01 1.88356E-01 1.26123E-01-1.60603E+00 7.12100E-02-3.40335E-02 7.46599E-01 4.81954E+01-2.18493E+01-1.77865E+01



 n o d a l   p r i n t   o u t   f o r   t i m e  s t e p   17202                              ( at time 8.5996394E+00 )

 nodal point  x-rot      y-rot       z-rot       x-rot vel   y-rot vel   z-rot vel   x-rot acc   y-rot acc   z-rot acc
    22626  8.74205E-03 1.48231E-02-3.05090E-03 7.01452E-03 8.49515E-03-2.43332E-03 3.24885E-03 1.28953E-03-6.53706E-04



 n o d a l   p r i n t   o u t   f o r   t i m e  s t e p   17402                              ( at time 8.6996293E+00 )

 nodal point  x-disp     y-disp      z-disp      x-vel       y-vel       z-vel      x-accl      y-accl      z-accl      x-coor      y-coor      z-coor
    22626  2.50478E-01 1.93040E-01-2.52820E+01 1.97336E-01 1.23656E-01-1.53283E+00 8.98075E-02-2.46763E-02 7.32044E-01 4.82147E+01-2.18368E+01-1.79435E+01



 n o d a l   p r i n t   o u t   f o r   t i m e  s t e p   17402                              ( at time 8.6996293E+00 )

 nodal point  x-rot      y-rot       z-rot       x-rot vel   y-rot vel   z-rot vel   x-rot acc   y-rot acc   z-rot acc
    22626  9.46427E-03 1.56765E-02-3.29679E-03 7.40851E-03 8.59052E-03-2.48200E-03 3.94028E-03 9.53752E-04-4.86903E-04



 n o d a l   p r i n t   o u t   f o r   t i m e  s t e p   17602                              ( at time 8.7996193E+00 )

 nodal point  x-disp     y-disp      z-disp      x-vel       y-vel       z-vel      x-accl      y-accl      z-accl      x-coor      y-coor      z-coor
    22626  2.70572E-01 2.05152E-01-2.54314E+01 2.04878E-01 1.17789E-01-1.45716E+00 7.54240E-02-5.86764E-02 7.56773E-01 4.82348E+01-2.18246E+01-1.80929E+01



 n o d a l   p r i n t   o u t   f o r   t i m e  s t e p   17602                              ( at time 8.7996193E+00 )

 nodal point  x-rot      y-rot       z-rot       x-rot vel   y-rot vel   z-rot vel   x-rot acc   y-rot acc   z-rot acc
    22626  1.02242E-02 1.65419E-02-3.54907E-03 7.77079E-03 8.71455E-03-2.55248E-03 3.62320E-03 1.24046E-03-7.04810E-04



 n o d a l   p r i n t   o u t   f o r   t i m e  s t e p   17802                              ( at time 8.8996093E+00 )

 nodal point  x-disp     y-disp      z-disp      x-vel       y-vel       z-vel      x-accl      y-accl      z-accl      x-coor      y-coor      z-coor
    22626  2.91387E-01 2.16641E-01-2.55733E+01 2.12546E-01 1.12778E-01-1.38086E+00 7.66936E-02-5.01163E-02 7.63069E-01 4.82556E+01-2.18131E+01-1.82348E+01



 n o d a l   p r i n t   o u t   f o r   t i m e  s t e p   17802                              ( at time 8.8996093E+00 )

 nodal point  x-rot      y-rot       z-rot       x-rot vel   y-rot vel   z-rot vel   x-rot acc   y-rot acc   z-rot acc
    22626  1.10201E-02 1.74168E-02-3.80779E-03 8.16655E-03 8.78449E-03-2.61183E-03 3.95795E-03 6.99522E-04-5.93590E-04



 n o d a l   p r i n t   o u t   f o r   t i m e  s t e p   18002                              ( at time 8.9995993E+00 )

 nodal point  x-disp     y-disp      z-disp      x-vel       y-vel       z-vel      x-accl      y-accl      z-accl      x-coor      y-coor      z-coor
    22626  3.13062E-01 2.27664E-01-2.57075E+01 2.20724E-01 1.08730E-01-1.30210E+00 8.17903E-02-4.04822E-02 7.87660E-01 4.82772E+01-2.18021E+01-1.83690E+01



 n o d a l   p r i n t   o u t   f o r   t i m e  s t e p   18002                              ( at time 8.9995993E+00 )

 nodal point  x-rot      y-rot       z-rot       x-rot vel   y-rot vel   z-rot vel   x-rot acc   y-rot acc   z-rot acc
    22626  1.18585E-02 1.82986E-02-4.07259E-03 8.61467E-03 8.86987E-03-2.69532E-03 4.48173E-03 8.53858E-04-8.34973E-04



 n o d a l   p r i n t   o u t   f o r   t i m e  s t e p   18202                              ( at time 9.0995893E+00 )

 nodal point  x-disp     y-disp      z-disp      x-vel       y-vel       z-vel      x-accl      y-accl      z-accl      x-coor      y-coor      z-coor
    22626  3.35575E-01 2.38234E-01-2.58338E+01 2.28341E-01 1.02418E-01-1.22552E+00 7.61745E-02-6.31247E-02 7.65915E-01 4.82998E+01-2.17916E+01-1.84953E+01



 n o d a l   p r i n t   o u t   f o r   t i m e  s t e p   18202                              ( at time 9.0995893E+00 )

 nodal point  x-rot      y-rot       z-rot       x-rot vel   y-rot vel   z-rot vel   x-rot acc   y-rot acc   z-rot acc
    22626  1.27391E-02 1.91907E-02-4.34399E-03 8.98323E-03 8.95236E-03-2.74607E-03 3.68591E-03 8.24965E-04-5.07578E-04



 n o d a l   p r i n t   o u t   f o r   t i m e  s t e p   18402                              ( at time 9.1995793E+00 )

 nodal point  x-disp     y-disp      z-disp      x-vel       y-vel       z-vel      x-accl      y-accl      z-accl      x-coor      y-coor      z-coor
    22626  3.58833E-01 2.48185E-01-2.59525E+01 2.36554E-01 9.67530E-02-1.14922E+00 8.21378E-02-5.66560E-02 7.63087E-01 4.83230E+01-2.17816E+01-1.86140E+01



 n o d a l   p r i n t   o u t   f o r   t i m e  s t e p   18402                              ( at time 9.1995793E+00 )

 nodal point  x-rot      y-rot       z-rot       x-rot vel   y-rot vel   z-rot vel   x-rot acc   y-rot acc   z-rot acc
    22626  1.36583E-02 2.00896E-02-4.62044E-03 9.42075E-03 9.00838E-03-2.80812E-03 4.37564E-03 5.60238E-04-6.20545E-04



 n o d a l   p r i n t   o u t   f o r   t i m e  s t e p   18602                              ( at time 9.2995693E+00 )

 nodal point  x-disp     y-disp      z-disp      x-vel       y-vel       z-vel      x-accl      y-accl      z-accl      x-coor      y-coor      z-coor
    22626  3.82901E-01 2.57642E-01-2.60634E+01 2.44770E-01 9.17261E-02-1.06933E+00 8.21729E-02-5.02741E-02 7.98937E-01 4.83471E+01-2.17721E+01-1.87249E+01



 n o d a l   p r i n t   o u t   f o r   t i m e  s t e p   18602                              ( at time 9.2995693E+00 )

 nodal point  x-rot      y-rot       z-rot       x-rot vel   y-rot vel   z-rot vel   x-rot acc   y-rot acc   z-rot acc
    22626  1.46216E-02 2.09960E-02-4.90404E-03 9.83654E-03 9.09453E-03-2.88423E-03 4.15832E-03 8.61626E-04-7.61119E-04



 n o d a l   p r i n t   o u t   f o r   t i m e  s t e p   18802                              ( at time 9.3995593E+00 )

 nodal point  x-disp     y-disp      z-disp      x-vel       y-vel       z-vel      x-accl      y-accl      z-accl      x-coor      y-coor      z-coor
    22626  4.07733E-01 2.66378E-01-2.61665E+01 2.51054E-01 8.34378E-02-9.94520E-01 6.28378E-02-8.28913E-02 7.48188E-01 4.83719E+01-2.17634E+01-1.88280E+01



 n o d a l   p r i n t   o u t   f o r   t i m e  s t e p   18802                              ( at time 9.3995593E+00 )

 nodal point  x-rot      y-rot       z-rot       x-rot vel   y-rot vel   z-rot vel   x-rot acc   y-rot acc   z-rot acc
    22626  1.56250E-02 2.19106E-02-5.19374E-03 1.02244E-02 9.19492E-03-2.93391E-03 3.87907E-03 1.00400E-03-4.96943E-04



 n o d a l   p r i n t   o u t   f o r   t i m e  s t e p   19002                              ( at time 9.4995493E+00 )

 nodal point  x-disp     y-disp      z-disp      x-vel       y-vel       z-vel      x-accl      y-accl      z-accl      x-coor      y-coor      z-coor
    22626  4.33151E-01 2.74412E-01-2.62621E+01 2.57793E-01 7.81032E-02-9.18594E-01 6.74009E-02-5.33520E-02 7.59328E-01 4.83973E+01-2.17554E+01-1.89236E+01



 n o d a l   p r i n t   o u t   f o r   t i m e  s t e p   19002                              ( at time 9.4995493E+00 )

 nodal point  x-rot      y-rot       z-rot       x-rot vel   y-rot vel   z-rot vel   x-rot acc   y-rot acc   z-rot acc
    22626  1.66684E-02 2.28344E-02-5.48789E-03 1.06291E-02 9.27233E-03-2.99497E-03 4.04707E-03 7.74184E-04-6.10586E-04



 n o d a l   p r i n t   o u t   f o r   t i m e  s t e p   19202                              ( at time 9.5995393E+00 )

 nodal point  x-disp     y-disp      z-disp      x-vel       y-vel       z-vel      x-accl      y-accl      z-accl      x-coor      y-coor      z-coor
    22626  4.59316E-01 2.81929E-01-2.63502E+01 2.65726E-01 7.16570E-02-8.44588E-01 7.93410E-02-6.44671E-02 7.40135E-01 4.84235E+01-2.17479E+01-1.90117E+01



 n o d a l   p r i n t   o u t   f o r   t i m e  s t e p   19202                              ( at time 9.5995393E+00 )

 nodal point  x-rot      y-rot       z-rot       x-rot vel   y-rot vel   z-rot vel   x-rot acc   y-rot acc   z-rot acc
    22626  1.77548E-02 2.37660E-02-5.79010E-03 1.10831E-02 9.34524E-03-3.05421E-03 4.54066E-03 7.29143E-04-5.92450E-04



 n o d a l   p r i n t   o u t   f o r   t i m e  s t e p   19402                              ( at time 9.6995293E+00 )

 nodal point  x-disp     y-disp      z-disp      x-vel       y-vel       z-vel      x-accl      y-accl      z-accl      x-coor      y-coor      z-coor
    22626  4.86224E-01 2.88808E-01-2.64307E+01 2.72431E-01 6.73615E-02-7.67433E-01 6.70495E-02-4.29599E-02 7.71624E-01 4.84504E+01-2.17410E+01-1.90922E+01



 n o d a l   p r i n t   o u t   f o r   t i m e  s t e p   19402                              ( at time 9.6995293E+00 )

 nodal point  x-rot      y-rot       z-rot       x-rot vel   y-rot vel   z-rot vel   x-rot acc   y-rot acc   z-rot acc
    22626  1.88823E-02 2.47039E-02-6.09690E-03 1.14821E-02 9.40985E-03-3.09617E-03 3.99067E-03 6.46161E-04-4.19654E-04



 n o d a l   p r i n t   o u t   f o r   t i m e  s t e p   19602                              ( at time 9.7995193E+00 )

 nodal point  x-disp     y-disp      z-disp      x-vel       y-vel       z-vel      x-accl      y-accl      z-accl      x-coor      y-coor      z-coor
    22626  5.13868E-01 2.95326E-01-2.65038E+01 2.78789E-01 6.50265E-02-6.93195E-01 6.35915E-02-2.33526E-02 7.42456E-01 4.84780E+01-2.17345E+01-1.91653E+01



 n o d a l   p r i n t   o u t   f o r   t i m e  s t e p   19602                              ( at time 9.7995193E+00 )

 nodal point  x-rot      y-rot       z-rot       x-rot vel   y-rot vel   z-rot vel   x-rot acc   y-rot acc   z-rot acc
    22626  2.00528E-02 2.56496E-02-6.40995E-03 1.19452E-02 9.52661E-03-3.18668E-03 4.63174E-03 1.16770E-03-9.05197E-04



 n o d a l   p r i n t   o u t   f o r   t i m e  s t e p   19802                              ( at time 9.8995093E+00 )

 nodal point  x-disp     y-disp      z-disp      x-vel       y-vel       z-vel      x-accl      y-accl      z-accl      x-coor      y-coor      z-coor
    22626  5.42278E-01 3.01684E-01-2.65696E+01 2.87897E-01 6.27154E-02-6.22888E-01 9.10869E-02-2.31131E-02 7.03141E-01 4.85065E+01-2.17281E+01-1.92311E+01



 n o d a l   p r i n t   o u t   f o r   t i m e  s t e p   19802                              ( at time 9.8995093E+00 )

 nodal point  x-rot      y-rot       z-rot       x-rot vel   y-rot vel   z-rot vel   x-rot acc   y-rot acc   z-rot acc
    22626  2.12661E-02 2.66050E-02-6.73063E-03 1.23181E-02 9.56486E-03-3.24089E-03 3.72859E-03 3.82533E-04-5.42220E-04



 n o d a l   p r i n t   o u t   f o r   t i m e  s t e p   20003                              ( at time 9.9999992E+00 )

 nodal point  x-disp     y-disp      z-disp      x-vel       y-vel       z-vel      x-accl      y-accl      z-accl      x-coor      y-coor      z-coor
[...]
    22626  2.36089E-01 1.40721E-01-6.19306E-02 1.60330E-02 6.36243E-03-4.53017E-03 3.64218E-04 1.10828E-04 1.89146E-04



 n o d a l   p r i n t   o u t   f o r   t i m e  s t e p   45205                              ( at time 2.2599738E+01 )

 nodal point  x-disp     y-disp      z-disp      x-vel       y-vel       z-vel      x-accl      y-accl      z-accl      x-coor      y-coor      z-coor
    22626  4.53328E+00 2.38301E-01-2.13952E+01 2.72391E-01-6.64703E-02 4.40814E-01 9.36117E-03-1.03600E-02 1.11829E-03 5.24975E+01-2.17915E+01-1.40567E+01



 n o d a l   p r i n t   o u t   f o r   t i m e  s t e p   45205                              ( at time 2.2599738E+01 )

 nodal point  x-rot      y-rot       z-rot       x-rot vel   y-rot vel   z-rot vel   x-rot acc   y-rot acc   z-rot acc
    22626  2.37693E-01 1.41358E-01-6.23820E-02 1.60475E-02 6.38207E-03-4.50244E-03 1.45709E-04 1.96359E-04 2.77280E-04



 n o d a l   p r i n t   o u t   f o r   t i m e  s t e p   45405                              ( at time 2.2699728E+01 )

 nodal point  x-disp     y-disp      z-disp      x-vel       y-vel       z-vel      x-accl      y-accl      z-accl      x-coor      y-coor      z-coor
    22626  4.56061E+00 2.31544E-01-2.13510E+01 2.74433E-01-6.85439E-02 4.43540E-01 2.04252E-02-2.07384E-02 2.72626E-02 5.25248E+01-2.17982E+01-1.40125E+01



 n o d a l   p r i n t   o u t   f o r   t i m e  s t e p   45405                              ( at time 2.2699728E+01 )

 nodal point  x-rot      y-rot       z-rot       x-rot vel   y-rot vel   z-rot vel   x-rot acc   y-rot acc   z-rot acc
    22626  2.39300E-01 1.41996E-01-6.28301E-02 1.60928E-02 6.35973E-03-4.47069E-03 4.53176E-04-2.23379E-04 3.17500E-04



 n o d a l   p r i n t   o u t   f o r   t i m e  s t e p   45605                              ( at time 2.2799718E+01 )

 nodal point  x-disp     y-disp      z-disp      x-vel       y-vel       z-vel      x-accl      y-accl      z-accl      x-coor      y-coor      z-coor
    22626  4.58820E+00 2.24634E-01-2.13065E+01 2.76609E-01-6.91785E-02 4.47158E-01 2.17601E-02-6.34602E-03 3.61839E-02 5.25524E+01-2.18052E+01-1.39680E+01



 n o d a l   p r i n t   o u t   f o r   t i m e  s t e p   45605                              ( at time 2.2799718E+01 )

 nodal point  x-rot      y-rot       z-rot       x-rot vel   y-rot vel   z-rot vel   x-rot acc   y-rot acc   z-rot acc
    22626  2.40910E-01 1.42633E-01-6.32746E-02 1.61176E-02 6.37043E-03-4.42167E-03 2.47997E-04 1.06940E-04 4.90233E-04



 n o d a l   p r i n t   o u t   f o r   t i m e  s t e p   45805                              ( at time 2.2899708E+01 )

 nodal point  x-disp     y-disp      z-disp      x-vel       y-vel       z-vel      x-accl      y-accl      z-accl      x-coor      y-coor      z-coor
    22626  4.61598E+00 2.17761E-01-2.12617E+01 2.78429E-01-6.85857E-02 4.50441E-01 1.81999E-02 5.92878E-03 3.28398E-02 5.25802E+01-2.18120E+01-1.39232E+01



 n o d a l   p r i n t   o u t   f o r   t i m e  s t e p   45805                              ( at time 2.2899708E+01 )

 nodal point  x-rot      y-rot       z-rot       x-rot vel   y-rot vel   z-rot vel   x-rot acc   y-rot acc   z-rot acc
    22626  2.42524E-01 1.43269E-01-6.37141E-02 1.61576E-02 6.36270E-03-4.38385E-03 3.99526E-04-7.72711E-05 3.78280E-04



 n o d a l   p r i n t   o u t   f o r   t i m e  s t e p   46005                              ( at time 2.2999698E+01 )

 nodal point  x-disp     y-disp      z-disp      x-vel       y-vel       z-vel      x-accl      y-accl      z-accl      x-coor      y-coor      z-coor
    22626  4.64392E+00 2.10776E-01-2.12164E+01 2.80928E-01-7.08142E-02 4.54887E-01 2.49909E-02-2.22869E-02 4.44662E-02 5.26081E+01-2.18190E+01-1.38779E+01



 n o d a l   p r i n t   o u t   f o r   t i m e  s t e p   46005                              ( at time 2.2999698E+01 )

 nodal point  x-rot      y-rot       z-rot       x-rot vel   y-rot vel   z-rot vel   x-rot acc   y-rot acc   z-rot acc
    22626  2.44143E-01 1.43907E-01-6.41511E-02 1.62345E-02 6.39194E-03-4.35444E-03 7.69566E-04 2.92443E-04 2.94106E-04



 n o d a l   p r i n t   o u t   f o r   t i m e  s t e p   46205                              ( at time 2.3099688E+01 )

 nodal point  x-disp     y-disp      z-disp      x-vel       y-vel       z-vel      x-accl      y-accl      z-accl      x-coor      y-coor      z-coor
    22626  4.67216E+00 2.03631E-01-2.11707E+01 2.84007E-01-7.22111E-02 4.59914E-01 3.07937E-02-1.39712E-02 5.02758E-02 5.26363E+01-2.18262E+01-1.38322E+01



 n o d a l   p r i n t   o u t   f o r   t i m e  s t e p   46205                              ( at time 2.3099688E+01 )

 nodal point  x-rot      y-rot       z-rot       x-rot vel   y-rot vel   z-rot vel   x-rot acc   y-rot acc   z-rot acc
    22626  2.45769E-01 1.44547E-01-6.45844E-02 1.62941E-02 6.40439E-03-4.30374E-03 5.95814E-04 1.24527E-04 5.07054E-04



 n o d a l   p r i n t   o u t   f o r   t i m e  s t e p   46405                              ( at time 2.3199678E+01 )

 nodal point  x-disp     y-disp      z-disp      x-vel       y-vel       z-vel      x-accl      y-accl      z-accl      x-coor      y-coor      z-coor
    22626  4.70067E+00 1.96374E-01-2.11244E+01 2.86186E-01-7.29704E-02 4.65164E-01 2.17926E-02-7.59366E-03 5.25031E-02 5.26648E+01-2.18334E+01-1.37859E+01



 n o d a l   p r i n t   o u t   f o r   t i m e  s t e p   46405                              ( at time 2.3199678E+01 )

 nodal point  x-rot      y-rot       z-rot       x-rot vel   y-rot vel   z-rot vel   x-rot acc   y-rot acc   z-rot acc
    22626  2.47402E-01 1.45189E-01-6.50139E-02 1.63628E-02 6.45130E-03-4.27842E-03 6.86969E-04 4.69066E-04 2.53227E-04



 n o d a l   p r i n t   o u t   f o r   t i m e  s t e p   46605                              ( at time 2.3299668E+01 )

 nodal point  x-disp     y-disp      z-disp      x-vel       y-vel       z-vel      x-accl      y-accl      z-accl      x-coor      y-coor      z-coor
    22626  4.72946E+00 1.88948E-01-2.10775E+01 2.90157E-01-7.61514E-02 4.72802E-01 3.97151E-02-3.18131E-02 7.63820E-02 5.26936E+01-2.18408E+01-1.37390E+01



 n o d a l   p r i n t   o u t   f o r   t i m e  s t e p   46605                              ( at time 2.3299668E+01 )

 nodal point  x-rot      y-rot       z-rot       x-rot vel   y-rot vel   z-rot vel   x-rot acc   y-rot acc   z-rot acc
    22626  2.49043E-01 1.45837E-01-6.54392E-02 1.64434E-02 6.50841E-03-4.22209E-03 8.06447E-04 5.71243E-04 5.63391E-04



 n o d a l   p r i n t   o u t   f o r   t i m e  s t e p   46805                              ( at time 2.3399658E+01 )

 nodal point  x-disp     y-disp      z-disp      x-vel       y-vel       z-vel      x-accl      y-accl      z-accl      x-coor      y-coor      z-coor
    22626  4.75863E+00 1.81234E-01-2.10299E+01 2.93499E-01-7.82176E-02 4.80246E-01 3.34243E-02-2.06640E-02 7.44551E-02 5.27228E+01-2.18486E+01-1.36914E+01



 n o d a l   p r i n t   o u t   f o r   t i m e  s t e p   46805                              ( at time 2.3399658E+01 )

 nodal point  x-rot      y-rot       z-rot       x-rot vel   y-rot vel   z-rot vel   x-rot acc   y-rot acc   z-rot acc
    22626  2.50690E-01 1.46489E-01-6.58610E-02 1.65167E-02 6.54212E-03-4.20934E-03 7.32757E-04 3.37072E-04 1.27552E-04



 n o d a l   p r i n t   o u t   f o r   t i m e  s t e p   47005                              ( at time 2.3499648E+01 )

 nodal point  x-disp     y-disp      z-disp      x-vel       y-vel       z-vel      x-accl      y-accl      z-accl      x-coor      y-coor      z-coor
    22626  4.78814E+00 1.73372E-01-2.09816E+01 2.96855E-01-7.95028E-02 4.85771E-01 3.35635E-02-1.28530E-02 5.52460E-02 5.27523E+01-2.18564E+01-1.36431E+01



 n o d a l   p r i n t   o u t   f o r   t i m e  s t e p   47005                              ( at time 2.3499648E+01 )

 nodal point  x-rot      y-rot       z-rot       x-rot vel   y-rot vel   z-rot vel   x-rot acc   y-rot acc   z-rot acc
    22626  2.52346E-01 1.47147E-01-6.62805E-02 1.65943E-02 6.62245E-03-4.18217E-03 7.76012E-04 8.03349E-04 2.71696E-04



 n o d a l   p r i n t   o u t   f o r   t i m e  s t e p   47205                              ( at time 2.3599638E+01 )

 nodal point  x-disp     y-disp      z-disp      x-vel       y-vel       z-vel      x-accl      y-accl      z-accl      x-coor      y-coor      z-coor
    22626  4.81808E+00 1.65197E-01-2.09326E+01 3.01464E-01-8.39614E-02 4.93071E-01 4.60992E-02-4.45913E-02 7.30083E-02 5.27823E+01-2.18646E+01-1.35941E+01



 n o d a l   p r i n t   o u t   f o r   t i m e  s t e p   47205                              ( at time 2.3599638E+01 )

 nodal point  x-rot      y-rot       z-rot       x-rot vel   y-rot vel   z-rot vel   x-rot acc   y-rot acc   z-rot acc
    22626  2.54009E-01 1.47813E-01-6.66962E-02 1.66751E-02 6.70483E-03-4.14371E-03 8.08347E-04 8.23962E-04 3.84581E-04



 n o d a l   p r i n t   o u t   f o r   t i m e  s t e p   47405                              ( at time 2.3699628E+01 )

 nodal point  x-disp     y-disp      z-disp      x-vel       y-vel       z-vel      x-accl      y-accl      z-accl      x-coor      y-coor      z-coor
    22626  4.84852E+00 1.56626E-01-2.08831E+01 3.06987E-01-8.69387E-02 4.97695E-01 5.52317E-02-2.97758E-02 4.62491E-02 5.28127E+01-2.18732E+01-1.35446E+01



 n o d a l   p r i n t   o u t   f o r   t i m e  s t e p   47405                              ( at time 2.3699628E+01 )

 nodal point  x-rot      y-rot       z-rot       x-rot vel   y-rot vel   z-rot vel   x-rot acc   y-rot acc   z-rot acc
    22626  2.55681E-01 1.48487E-01-6.71097E-02 1.67707E-02 6.77487E-03-4.13066E-03 9.56239E-04 7.00414E-04 1.30597E-04



 n o d a l   p r i n t   o u t   f o r   t i m e  s t e p   47605                              ( at time 2.3799618E+01 )

 nodal point  x-disp     y-disp      z-disp      x-vel       y-vel       z-vel      x-accl      y-accl      z-accl      x-coor      y-coor      z-coor
    22626  4.87941E+00 1.47732E-01-2.08331E+01 3.11305E-01-9.06698E-02 5.02046E-01 4.31854E-02-3.73150E-02 4.35132E-02 5.28436E+01-2.18821E+01-1.34946E+01



 n o d a l   p r i n t   o u t   f o r   t i m e  s t e p   47605                              ( at time 2.3799618E+01 )

 nodal point  x-rot      y-rot       z-rot       x-rot vel   y-rot vel   z-rot vel   x-rot acc   y-rot acc   z-rot acc
    22626  2.57363E-01 1.49169E-01-6.75215E-02 1.68625E-02 6.85620E-03-4.10141E-03 9.17492E-04 8.13391E-04 2.92468E-04



 n o d a l   p r i n t   o u t   f o r   t i m e  s t e p   47805                              ( at time 2.3899608E+01 )

 nodal point  x-disp     y-disp      z-disp      x-vel       y-vel       z-vel      x-accl      y-accl      z-accl      x-coor      y-coor      z-coor
    22626  4.91076E+00 1.38553E-01-2.07827E+01 3.15775E-01-9.34275E-02 5.05650E-01 4.46989E-02-2.75791E-02 3.60427E-02 5.28749E+01-2.18912E+01-1.34442E+01



 n o d a l   p r i n t   o u t   f o r   t i m e  s t e p   47805                              ( at time 2.3899608E+01 )

 nodal point  x-rot      y-rot       z-rot       x-rot vel   y-rot vel   z-rot vel   x-rot acc   y-rot acc   z-rot acc
    22626  2.59053E-01 1.49858E-01-6.79299E-02 1.69493E-02 6.92135E-03-4.06556E-03 8.68445E-04 6.51571E-04 3.58555E-04



 n o d a l   p r i n t   o u t   f o r   t i m e  s t e p   48005                              ( at time 2.3999598E+01 )

 nodal point  x-disp     y-disp      z-disp      x-vel       y-vel       z-vel      x-accl      y-accl      z-accl      x-coor      y-coor      z-coor
    22626  4.94255E+00 1.29027E-01-2.07319E+01 3.20591E-01-9.69122E-02 5.09173E-01 4.81721E-02-3.48516E-02 3.52362E-02 5.29067E+01-2.19008E+01-1.33934E+01



 n o d a l   p r i n t   o u t   f o r   t i m e  s t e p   48005                              ( at time 2.3999598E+01 )

 nodal point  x-rot      y-rot       z-rot       x-rot vel   y-rot vel   z-rot vel   x-rot acc   y-rot acc   z-rot acc
    22626  2.60753E-01 1.50553E-01-6.83369E-02 1.70477E-02 7.00013E-03-4.07020E-03 9.84312E-04 7.87907E-04-4.64269E-05



 n o d a l   p r i n t   o u t   f o r   t i m e  s t e p   48205                              ( at time 2.4099588E+01 )

 nodal point  x-disp     y-disp      z-disp      x-vel       y-vel       z-vel      x-accl      y-accl      z-accl      x-coor      y-coor      z-coor
    22626  4.97482E+00 1.19223E-01-2.06809E+01 3.24519E-01-9.91491E-02 5.11896E-01 3.92819E-02-2.23709E-02 2.72287E-02 5.29390E+01-2.19106E+01-1.33424E+01



 n o d a l   p r i n t   o u t   f o r   t i m e  s t e p   48205                              ( at time 2.4099588E+01 )

 nodal point  x-rot      y-rot       z-rot       x-rot vel   y-rot vel   z-rot vel   x-rot acc   y-rot acc   z-rot acc
    22626  2.62463E-01 1.51255E-01-6.87441E-02 1.71617E-02 7.04500E-03-4.05660E-03 1.13976E-03 4.48743E-04 1.36060E-04



 n o d a l   p r i n t   o u t   f o r   t i m e  s t e p   48405                              ( at time 2.4199578E+01 )

 nodal point  x-disp     y-disp      z-disp      x-vel       y-vel       z-vel      x-accl      y-accl      z-accl      x-coor      y-coor      z-coor
    22626  5.00737E+00 1.09193E-01-2.06296E+01 3.27452E-01-1.01011E-01 5.13546E-01 2.93374E-02-1.86171E-02 1.65093E-02 5.29715E+01-2.19206E+01-1.32911E+01



 n o d a l   p r i n t   o u t   f o r   t i m e  s t e p   48405                              ( at time 2.4199578E+01 )

 nodal point  x-rot      y-rot       z-rot       x-rot vel   y-rot vel   z-rot vel   x-rot acc   y-rot acc   z-rot acc
    22626  2.64182E-01 1.51962E-01-6.91489E-02 1.72247E-02 7.10436E-03-4.04058E-03 6.30240E-04 5.93705E-04 1.60163E-04



 n o d a l   p r i n t   o u t   f o r   t i m e  s t e p   48605                              ( at time 2.4299568E+01 )

 nodal point  x-disp     y-disp      z-disp      x-vel       y-vel       z-vel      x-accl      y-accl      z-accl      x-coor      y-coor      z-coor
    22626  5.04031E+00 9.90209E-02-2.05782E+01 3.30782E-01-1.02386E-01 5.14456E-01 3.32961E-02-1.37568E-02 9.10127E-03 5.30045E+01-2.19308E+01-1.32397E+01



 n o d a l   p r i n t   o u t   f o r   t i m e  s t e p   48605                              ( at time 2.4299568E+01 )

 nodal point  x-rot      y-rot       z-rot       x-rot vel   y-rot vel   z-rot vel   x-rot acc   y-rot acc   z-rot acc
    22626  2.65908E-01 1.52675E-01-6.95533E-02 1.73091E-02 7.13829E-03-4.04526E-03 8.44321E-04 3.39317E-04-4.67334E-05



 n o d a l   p r i n t   o u t   f o r   t i m e  s t e p   48805                              ( at time 2.4399558E+01 )

 nodal point  x-disp     y-disp      z-disp      x-vel       y-vel       z-vel      x-accl      y-accl      z-accl      x-coor      y-coor      z-coor
    22626  5.07355E+00 8.88006E-02-2.05267E+01 3.33241E-01-1.02019E-01 5.15748E-01 2.45910E-02 3.67541E-03 1.29151E-02 5.30377E+01-2.19410E+01-1.31882E+01



 n o d a l   p r i n t   o u t   f o r   t i m e  s t e p   48805                              ( at time 2.4399558E+01 )

 nodal point  x-rot      y-rot       z-rot       x-rot vel   y-rot vel   z-rot vel   x-rot acc   y-rot acc   z-rot acc
    22626  2.67644E-01 1.53390E-01-6.99579E-02 1.73899E-02 7.16725E-03-4.05104E-03 8.07326E-04 2.89556E-04-5.78078E-05



 n o d a l   p r i n t   o u t   f o r   t i m e  s t e p   49006                              ( at time 2.4500048E+01 )

 nodal point  x-disp     y-disp      z-disp      x-vel       y-vel       z-vel      x-accl      y-accl      z-accl      x-coor      y-coor      z-coor
    22626  5.10719E+00 7.85044E-02-2.04748E+01 3.35128E-01-1.03017E-01 5.15776E-01 1.87838E-02-9.93211E-03 2.75814E-04 5.30714E+01-2.19513E+01-1.31363E+01



 n o d a l   p r i n t   o u t   f o r   t i m e  s t e p   49006                              ( at time 2.4500048E+01 )

 nodal point  x-rot      y-rot       z-rot       x-rot vel   y-rot vel   z-rot vel   x-rot acc   y-rot acc   z-rot acc
    22626  2.69394E-01 1.54113E-01-7.03645E-02 1.74444E-02 7.20668E-03-4.04897E-03 5.42601E-04 3.92465E-04 2.05609E-05



 n o d a l   p r i n t   o u t   f o r   t i m e  s t e p   49206                              ( at time 2.4600038E+01 )

 nodal point  x-disp     y-disp      z-disp      x-vel       y-vel       z-vel      x-accl      y-accl      z-accl      x-coor      y-coor      z-coor
    22626  5.14084E+00 6.81995E-02-2.04233E+01 3.37422E-01-1.02607E-01 5.14937E-01 2.29398E-02 4.10110E-03-8.38953E-03 5.31050E+01-2.19616E+01-1.30848E+01



 n o d a l   p r i n t   o u t   f o r   t i m e  s t e p   49206                              ( at time 2.4600038E+01 )

 nodal point  x-rot      y-rot       z-rot       x-rot vel   y-rot vel   z-rot vel   x-rot acc   y-rot acc   z-rot acc
    22626  2.71140E-01 1.54833E-01-7.07679E-02 1.74963E-02 7.20549E-03-4.03775E-03 5.18999E-04-1.19220E-05 1.12174E-04



 n o d a l   p r i n t   o u t   f o r   t i m e  s t e p   49406                              ( at time 2.4700028E+01 )

 nodal point  x-disp     y-disp      z-disp      x-vel       y-vel       z-vel      x-accl      y-accl      z-accl      x-coor      y-coor      z-coor
    22626  5.17463E+00 5.80316E-02-2.03719E+01 3.38482E-01-1.01128E-01 5.13828E-01 1.06004E-02 1.47923E-02-1.10835E-02 5.31388E+01-2.19718E+01-1.30334E+01



 n o d a l   p r i n t   o u t   f o r   t i m e  s t e p   49406                              ( at time 2.4700028E+01 )

 nodal point  x-rot      y-rot       z-rot       x-rot vel   y-rot vel   z-rot vel   x-rot acc   y-rot acc   z-rot acc
    22626  2.72893E-01 1.55554E-01-7.11729E-02 1.75548E-02 7.21946E-03-4.04860E-03 5.85494E-04 1.39686E-04-1.08427E-04



 n o d a l   p r i n t   o u t   f o r   t i m e  s t e p   49606                              ( at time 2.4800018E+01 )

 nodal point  x-disp     y-disp      z-disp      x-vel       y-vel       z-vel      x-accl      y-accl      z-accl      x-coor      y-coor      z-coor
    22626  5.20848E+00 4.80041E-02-2.03206E+01 3.39104E-01-9.97456E-02 5.11825E-01 6.22568E-03 1.38210E-02-2.00391E-02 5.31727E+01-2.19818E+01-1.29821E+01



 n o d a l   p r i n t   o u t   f o r   t i m e  s t e p   49606                              ( at time 2.4800018E+01 )

 nodal point  x-rot      y-rot       z-rot       x-rot vel   y-rot vel   z-rot vel   x-rot acc   y-rot acc   z-rot acc
    22626  2.74650E-01 1.56277E-01-7.15786E-02 1.75912E-02 7.22763E-03-4.04964E-03 3.63212E-04 8.16798E-05-1.04923E-05



 n o d a l   p r i n t   o u t   f o r   t i m e  s t e p   49806                              ( at time 2.4900008E+01 )

 nodal point  x-disp     y-disp      z-disp      x-vel       y-vel       z-vel      x-accl      y-accl      z-accl      x-coor      y-coor      z-coor
    22626  5.24238E+00 3.80928E-02-2.02696E+01 3.39449E-01-9.81458E-02 5.09504E-01 3.45000E-03 1.60003E-02-2.32061E-02 5.32066E+01-2.19917E+01-1.29311E+01



 n o d a l   p r i n t   o u t   f o r   t i m e  s t e p   49806                              ( at time 2.4900008E+01 )

 nodal point  x-rot      y-rot       z-rot       x-rot vel   y-rot vel   z-rot vel   x-rot acc   y-rot acc   z-rot acc
    22626  2.76411E-01 1.56998E-01-7.19848E-02 1.76365E-02 7.21194E-03-4.07058E-03 4.53865E-04-1.56861E-04-2.09380E-04



 n o d a l   p r i n t   o u t   f o r   t i m e  s t e p   50006                              ( at time 2.4999998E+01 )

 nodal point  x-disp     y-disp      z-disp      x-vel       y-vel       z-vel      x-accl      y-accl      z-accl      x-coor      y-coor      z-coor
    22626  5.27632E+00 2.83814E-02-2.02187E+01 3.39571E-01-9.61040E-02 5.06130E-01 1.21307E-03 2.04193E-02-3.37483E-02 5.32405E+01-2.20014E+01-1.28802E+01



 n o d a l   p r i n t   o u t   f o r   t i m e  s t e p   50006                              ( at time 2.4999998E+01 )

 nodal point  x-rot      y-rot       z-rot       x-rot vel   y-rot vel   z-rot vel   x-rot acc   y-rot acc   z-rot acc
    22626  2.78177E-01 1.57719E-01-7.23928E-02 1.76918E-02 7.19606E-03-4.08749E-03 5.52865E-04-1.58796E-04-1.69069E-04
