 LSTC 50th% Full_FE H-III Dummy (Beta Version, February 17, 2019)        
                    ls-dyna smp s R16 R16.0_619_d222963 date 03/18/2025

{BEGIN LEGEND}
 Entity #        Title
    22626                                                                                     
{END LEGEND}




 n o d a l   p r i n t   o u t   f o r   t i m e  s t e p       1                              ( at time 0.0000000E+00 )

 nodal point  x-disp     y-disp      z-disp      x-vel       y-vel       z-vel      x-accl      y-accl      z-accl      x-coor      y-coor      z-coor
    22626  0.00000E+00 0.00000E+00 0.00000E+00 0.00000E+00 0.00000E+00-3.12000E+00 0.00000E+00 0.00000E+00 0.00000E+00 4.79642E+01-2.20298E+01 7.33850E+00



 n o d a l   p r i n t   o u t   f o r   t i m e  s t e p       1                              ( at time 0.0000000E+00 )

 nodal point  x-rot      y-rot       z-rot       x-rot vel   y-rot vel   z-rot vel   x-rot acc   y-rot acc   z-rot acc
    22626  0.00000E+00 0.00000E+00 0.00000E+00 0.00000E+00 0.00000E+00 0.00000E+00 0.00000E+00 0.00000E+00 0.00000E+00



 n o d a l   p r i n t   o u t   f o r   t i m e  s t e p     201                              ( at time 9.9989993E-02 )

 nodal point  x-disp     y-disp      z-disp      x-vel       y-vel       z-vel      x-accl      y-accl      z-accl      x-coor      y-coor      z-coor
    22626  8.34042E-07-4.04452E-06-3.12016E-01 4.76622E-05-4.96446E-04-3.12074E+00 4.76669E-04-4.96495E-03-7.42748E-03 4.79642E+01-2.20298E+01 7.02648E+00



 n o d a l   p r i n t   o u t   f o r   t i m e  s t e p     201                              ( at time 9.9989993E-02 )

 nodal point  x-rot      y-rot       z-rot       x-rot vel   y-rot vel   z-rot vel   x-rot acc   y-rot acc   z-rot acc
    22626  9.61320E-09 3.03978E-08 5.26915E-08 1.30678E-06 2.72150E-06 5.21170E-06 1.30691E-05 2.72177E-05 5.21222E-05



 n o d a l   p r i n t   o u t   f o r   t i m e  s t e p     401                              ( at time 1.9997999E-01 )

 nodal point  x-disp     y-disp      z-disp      x-vel       y-vel       z-vel      x-accl      y-accl      z-accl      x-coor      y-coor      z-coor
    22626 -5.12692E-05-5.21571E-04-6.23853E-01-1.09633E-03-1.11144E-02-3.11558E+00-1.14410E-02-1.06190E-01 5.16371E-02 4.79641E+01-2.20303E+01 6.71465E+00



 n o d a l   p r i n t   o u t   f o r   t i m e  s t e p     401                              ( at time 1.9997999E-01 )

 nodal point  x-rot      y-rot       z-rot       x-rot vel   y-rot vel   z-rot vel   x-rot acc   y-rot acc   z-rot acc
    22626  4.60278E-07 1.33022E-06 2.50280E-06 2.61070E-06 1.90645E-05 3.49609E-05 1.30406E-05 1.63447E-04 2.97522E-04



 n o d a l   p r i n t   o u t   f o r   t i m e  s t e p     601                              ( at time 2.9996998E-01 )

 nodal point  x-disp     y-disp      z-disp      x-vel       y-vel       z-vel      x-accl      y-accl      z-accl      x-coor      y-coor      z-coor
    22626 -2.42991E-05-1.97616E-03-9.35238E-01 1.67122E-03-1.60417E-02-3.11415E+00 2.76783E-02-4.92782E-02 1.42756E-02 4.79642E+01-2.20318E+01 6.40326E+00



 n o d a l   p r i n t   o u t   f o r   t i m e  s t e p     601                              ( at time 2.9996998E-01 )

 nodal point  x-rot      y-rot       z-rot       x-rot vel   y-rot vel   z-rot vel   x-rot acc   y-rot acc   z-rot acc
    22626  6.74864E-07 2.40999E-06 4.82460E-06 8.22774E-06 5.30176E-06 1.46528E-05 5.61760E-05-1.37642E-04-2.03102E-04



 n o d a l   p r i n t   o u t   f o r   t i m e  s t e p     801                              ( at time 3.9995997E-01 )

 nodal point  x-disp     y-disp      z-disp      x-vel       y-vel       z-vel      x-accl      y-accl      z-accl      x-coor      y-coor      z-coor
    22626  6.27089E-05-3.57146E-03-1.24663E+00 2.54275E-04-1.73444E-02-3.11356E+00-1.41709E-02-1.30281E-02 5.93006E-03 4.79642E+01-2.20334E+01 6.09187E+00



 n o d a l   p r i n t   o u t   f o r   t i m e  s t e p     801                              ( at time 3.9995997E-01 )

 nodal point  x-rot      y-rot       z-rot       x-rot vel   y-rot vel   z-rot vel   x-rot acc   y-rot acc   z-rot acc
    22626  1.58103E-06 3.65275E-06 6.62400E-06 6.29782E-06 2.36361E-05 3.70136E-05-1.93012E-05 1.83362E-04 2.23630E-04



 n o d a l   p r i n t   o u t   f o r   t i m e  s t e p    1001                              ( at time 4.9994997E-01 )

 nodal point  x-disp     y-disp      z-disp      x-vel       y-vel       z-vel      x-accl      y-accl      z-accl      x-coor      y-coor      z-coor
    22626  8.37246E-05-5.61908E-03-1.55783E+00 9.59047E-04-2.36850E-02-3.11092E+00 7.04842E-03-6.34123E-02 2.63837E-02 4.79643E+01-2.20354E+01 5.78067E+00



 n o d a l   p r i n t   o u t   f o r   t i m e  s t e p    1001                              ( at time 4.9994997E-01 )

 nodal point  x-rot      y-rot       z-rot       x-rot vel   y-rot vel   z-rot vel   x-rot acc   y-rot acc   z-rot acc
    22626  1.49962E-06 6.48500E-06 1.14944E-05-4.79300E-06 4.19550E-05 6.76846E-05-1.10919E-04 1.83207E-04 3.06741E-04



 n o d a l   p r i n t   o u t   f o r   t i m e  s t e p    1201                              ( at time 5.9993996E-01 )

 nodal point  x-disp     y-disp      z-disp      x-vel       y-vel       z-vel      x-accl      y-accl      z-accl      x-coor      y-coor      z-coor
    22626  7.54799E-05-8.10383E-03-1.86890E+00-3.49874E-04-2.58768E-02-3.11098E+00-1.30905E-02-2.19205E-02-5.65109E-04 4.79643E+01-2.20379E+01 5.46960E+00



 n o d a l   p r i n t   o u t   f o r   t i m e  s t e p    1201                              ( at time 5.9993996E-01 )

 nodal point  x-rot      y-rot       z-rot       x-rot vel   y-rot vel   z-rot vel   x-rot acc   y-rot acc   z-rot acc
    22626  1.27661E-06 9.47184E-06 1.68525E-05-2.13637E-06 2.33768E-05 4.65949E-05 2.65690E-05-1.85800E-04-2.10918E-04



 n o d a l   p r i n t   o u t   f o r   t i m e  s t e p    1401                              ( at time 6.9992995E-01 )

 nodal point  x-disp     y-disp      z-disp      x-vel       y-vel       z-vel      x-accl      y-accl      z-accl      x-coor      y-coor      z-coor
    22626  6.71240E-05-1.09637E-02-2.17979E+00 9.54068E-04-3.20024E-02-3.10783E+00 1.30407E-02-6.12619E-02 3.14959E-02 4.79642E+01-2.20408E+01 5.15871E+00



 n o d a l   p r i n t   o u t   f o r   t i m e  s t e p    1401                              ( at time 6.9992995E-01 )

 nodal point  x-rot      y-rot       z-rot       x-rot vel   y-rot vel   z-rot vel   x-rot acc   y-rot acc   z-rot acc
    22626  1.11757E-06 1.23059E-05 2.10704E-05-2.32013E-06 3.36328E-05 5.05238E-05-1.83780E-06 1.02570E-04 3.92927E-05



 n o d a l   p r i n t   o u t   f o r   t i m e  s t e p    1601                              ( at time 7.9991994E-01 )

 nodal point  x-disp     y-disp      z-disp      x-vel       y-vel       z-vel      x-accl      y-accl      z-accl      x-coor      y-coor      z-coor
    22626  2.06627E-04-1.44762E-02-2.49043E+00 1.64651E-03-3.62932E-02-3.10631E+00 6.92510E-03-4.29131E-02 1.52198E-02 4.79644E+01-2.20443E+01 4.84807E+00



 n o d a l   p r i n t   o u t   f o r   t i m e  s t e p    1601                              ( at time 7.9991994E-01 )

 nodal point  x-rot      y-rot       z-rot       x-rot vel   y-rot vel   z-rot vel   x-rot acc   y-rot acc   z-rot acc
    22626  1.03411E-06 1.59133E-05 2.68870E-05 2.83681E-06 4.18441E-05 6.20786E-05 5.15746E-05 8.21213E-05 1.15560E-04



 n o d a l   p r i n t   o u t   f o r   t i m e  s t e p    1801                              ( at time 8.9990994E-01 )

 nodal point  x-disp     y-disp      z-disp      x-vel       y-vel       z-vel      x-accl      y-accl      z-accl      x-coor      y-coor      z-coor
    22626  3.17708E-04-1.80548E-02-2.80113E+00-3.65960E-05-3.56769E-02-3.10783E+00-1.68327E-02 6.16374E-03-1.52460E-02 4.79645E+01-2.20478E+01 4.53737E+00



 n o d a l   p r i n t   o u t   f o r   t i m e  s t e p    1801                              ( at time 8.9990994E-01 )

 nodal point  x-rot      y-rot       z-rot       x-rot vel   y-rot vel   z-rot vel   x-rot acc   y-rot acc   z-rot acc
    22626  1.00922E-06 1.91489E-05 3.21522E-05-2.29266E-06 2.82074E-05 4.83201E-05-5.12998E-05-1.36381E-04-1.37599E-04



 n o d a l   p r i n t   o u t   f o r   t i m e  s t e p    2001                              ( at time 9.9989993E-01 )

 nodal point  x-disp     y-disp      z-disp      x-vel       y-vel       z-vel      x-accl      y-accl      z-accl      x-coor      y-coor      z-coor
    22626  2.74389E-04-2.16909E-02-3.11188E+00-2.42782E-04-3.75760E-02-3.10805E+00-2.06206E-03-1.89922E-02-2.17459E-03 4.79645E+01-2.20515E+01 4.22662E+00



 n o d a l   p r i n t   o u t   f o r   t i m e  s t e p    2001                              ( at time 9.9989993E-01 )

 nodal point  x-rot      y-rot       z-rot       x-rot vel   y-rot vel   z-rot vel   x-rot acc   y-rot acc   z-rot acc
    22626  8.39749E-07 2.22712E-05 3.70807E-05-4.17305E-07 3.36434E-05 6.05823E-05 1.87554E-05 5.43655E-05 1.22634E-04



 n o d a l   p r i n t   o u t   f o r   t i m e  s t e p    2201                              ( at time 1.0998899E+00 )

 nodal point  x-disp     y-disp      z-disp      x-vel       y-vel       z-vel      x-accl      y-accl      z-accl      x-coor      y-coor      z-coor
    22626  3.20163E-04-2.55470E-02-3.42264E+00 5.16849E-04-3.92380E-02-3.10771E+00 7.59707E-03-1.66220E-02 3.39781E-03 4.79645E+01-2.20553E+01 3.91586E+00



 n o d a l   p r i n t   o u t   f o r   t i m e  s t e p    2201                              ( at time 1.0998899E+00 )

 nodal point  x-rot      y-rot       z-rot       x-rot vel   y-rot vel   z-rot vel   x-rot acc   y-rot acc   z-rot acc
    22626  9.30237E-07 2.56728E-05 4.28573E-05 5.13021E-06 3.10133E-05 4.30780E-05 5.54807E-05-2.63036E-05-1.75061E-04



 n o d a l   p r i n t   o u t   f o r   t i m e  s t e p    2401                              ( at time 1.1998799E+00 )

 nodal point  x-disp     y-disp      z-disp      x-vel       y-vel       z-vel      x-accl      y-accl      z-accl      x-coor      y-coor      z-coor
    22626  4.37928E-04-2.94474E-02-3.73345E+00 1.46690E-03-3.85232E-02-3.10924E+00 9.50141E-03 7.14862E-03-1.53581E-02 4.79646E+01-2.20592E+01 3.60505E+00



 n o d a l   p r i n t   o u t   f o r   t i m e  s t e p    2401                              ( at time 1.1998799E+00 )

 nodal point  x-rot      y-rot       z-rot       x-rot vel   y-rot vel   z-rot vel   x-rot acc   y-rot acc   z-rot acc
    22626  1.34302E-06 2.81166E-05 4.62096E-05 4.96566E-06 2.11013E-05 2.73258E-05-1.64560E-06-9.91294E-05-1.57538E-04



 n o d a l   p r i n t   o u t   f o r   t i m e  s t e p    2601                              ( at time 1.2998699E+00 )

 nodal point  x-disp     y-disp      z-disp      x-vel       y-vel       z-vel      x-accl      y-accl      z-accl      x-coor      y-coor      z-coor
    22626  5.28733E-04-3.31416E-02-4.04447E+00 4.57307E-04-3.49747E-02-3.11230E+00-1.00969E-02 3.54884E-02-3.05588E-02 4.79647E+01-2.20629E+01 3.29403E+00



 n o d a l   p r i n t   o u t   f o r   t i m e  s t e p    2601                              ( at time 1.2998699E+00 )

 nodal point  x-rot      y-rot       z-rot       x-rot vel   y-rot vel   z-rot vel   x-rot acc   y-rot acc   z-rot acc
    22626  1.62248E-06 3.00643E-05 4.88524E-05-2.36578E-06 2.24545E-05 3.46531E-05-7.33218E-05 1.35334E-05 7.32802E-05



 n o d a l   p r i n t   o u t   f o r   t i m e  s t e p    2801                              ( at time 1.3998599E+00 )

 nodal point  x-disp     y-disp      z-disp      x-vel       y-vel       z-vel      x-accl      y-accl      z-accl      x-coor      y-coor      z-coor
    22626  5.09915E-04-3.63686E-02-4.35587E+00-2.77071E-04-2.97832E-02-3.11611E+00-7.34451E-03 5.19209E-02-3.81007E-02 4.79647E+01-2.20662E+01 2.98263E+00



 n o d a l   p r i n t   o u t   f o r   t i m e  s t e p    2801                              ( at time 1.3998599E+00 )

 nodal point  x-rot      y-rot       z-rot       x-rot vel   y-rot vel   z-rot vel   x-rot acc   y-rot acc   z-rot acc
    22626  1.21686E-06 3.21024E-05 5.18426E-05-3.90158E-06 1.91671E-05 2.18549E-05-1.53595E-05-3.28773E-05-1.27995E-04



 n o d a l   p r i n t   o u t   f o r   t i m e  s t e p    3001                              ( at time 1.4998499E+00 )

 nodal point  x-disp     y-disp      z-disp      x-vel       y-vel       z-vel      x-accl      y-accl      z-accl      x-coor      y-coor      z-coor
    22626  5.07526E-04-3.92448E-02-4.66756E+00 5.70356E-04-2.80504E-02-3.11816E+00 8.47511E-03 1.73293E-02-2.04679E-02 4.79647E+01-2.20690E+01 2.67094E+00



 n o d a l   p r i n t   o u t   f o r   t i m e  s t e p    3001                              ( at time 1.4998499E+00 )

 nodal point  x-rot      y-rot       z-rot       x-rot vel   y-rot vel   z-rot vel   x-rot acc   y-rot acc   z-rot acc
    22626  9.21092E-07 3.33004E-05 5.29577E-05-1.02529E-06 3.76486E-06 1.21127E-06 2.87658E-05-1.54038E-04-2.06457E-04



 n o d a l   p r i n t   o u t   f o r   t i m e  s t e p    3201                              ( at time 1.5998399E+00 )

 nodal point  x-disp     y-disp      z-disp      x-vel       y-vel       z-vel      x-accl      y-accl      z-accl      x-coor      y-coor      z-coor
    22626  5.61786E-04-4.19508E-02-4.97944E+00 2.65668E-04-2.54913E-02-3.12059E+00-3.04718E-03 2.55939E-02-2.43474E-02 4.79647E+01-2.20717E+01 2.35906E+00



 n o d a l   p r i n t   o u t   f o r   t i m e  s t e p    3201                              ( at time 1.5998399E+00 )

 nodal point  x-rot      y-rot       z-rot       x-rot vel   y-rot vel   z-rot vel   x-rot acc   y-rot acc   z-rot acc
    22626  6.89646E-07 3.34455E-05 5.20792E-05-7.62539E-07 2.29532E-06-1.19148E-05 2.62774E-06-1.46968E-05-1.31274E-04



 n o d a l   p r i n t   o u t   f o r   t i m e  s t e p    3401                              ( at time 1.6998299E+00 )

 nodal point  x-disp     y-disp      z-disp      x-vel       y-vel       z-vel      x-accl      y-accl      z-accl      x-coor      y-coor      z-coor
    22626  5.79460E-04-4.42578E-02-5.29166E+00-1.60123E-05-2.03652E-02-3.12451E+00-2.81709E-03 5.12654E-02-3.92476E-02 4.79648E+01-2.20740E+01 2.04684E+00



 n o d a l   p r i n t   o u t   f o r   t i m e  s t e p    3401                              ( at time 1.6998299E+00 )

 nodal point  x-rot      y-rot       z-rot       x-rot vel   y-rot vel   z-rot vel   x-rot acc   y-rot acc   z-rot acc
    22626  5.52141E-07 3.33569E-05 5.09347E-05-2.58499E-06-2.42705E-06-1.48706E-05-1.82263E-05-4.72284E-05-2.95607E-05



 n o d a l   p r i n t   o u t   f o r   t i m e  s t e p    3601                              ( at time 1.7998199E+00 )

 nodal point  x-disp     y-disp      z-disp      x-vel       y-vel       z-vel      x-accl      y-accl      z-accl      x-coor      y-coor      z-coor
    22626  5.89594E-04-4.60428E-02-5.60429E+00-2.39378E-04-1.56730E-02-3.12860E+00-2.23389E-03 4.69275E-02-4.08285E-02 4.79648E+01-2.20758E+01 1.73421E+00



 n o d a l   p r i n t   o u t   f o r   t i m e  s t e p    3601                              ( at time 1.7998199E+00 )

 nodal point  x-rot      y-rot       z-rot       x-rot vel   y-rot vel   z-rot vel   x-rot acc   y-rot acc   z-rot acc
    22626  5.66421E-07 3.28814E-05 4.92799E-05 1.68091E-06-1.18734E-05-2.32346E-05 4.26633E-05-9.44735E-05-8.36480E-05



 n o d a l   p r i n t   o u t   f o r   t i m e  s t e p    3801                              ( at time 1.8998099E+00 )

 nodal point  x-disp     y-disp      z-disp      x-vel       y-vel       z-vel      x-accl      y-accl      z-accl      x-coor      y-coor      z-coor
    22626  5.09261E-04-4.74830E-02-5.91723E+00-1.09866E-03-1.32693E-02-3.13099E+00-8.59367E-03 2.40393E-02-2.39277E-02 4.79647E+01-2.20773E+01 1.42127E+00



 n o d a l   p r i n t   o u t   f o r   t i m e  s t e p    3801                              ( at time 1.8998099E+00 )

 nodal point  x-rot      y-rot       z-rot       x-rot vel   y-rot vel   z-rot vel   x-rot acc   y-rot acc   z-rot acc
    22626  5.20273E-07 3.14955E-05 4.62073E-05 4.02149E-06-1.73861E-05-3.69089E-05 2.34082E-05-5.51316E-05-1.36757E-04



 n o d a l   p r i n t   o u t   f o r   t i m e  s t e p    4001                              ( at time 1.9997999E+00 )

 nodal point  x-disp     y-disp      z-disp      x-vel       y-vel       z-vel      x-accl      y-accl      z-accl      x-coor      y-coor      z-coor
    22626  4.40092E-04-4.86831E-02-6.23043E+00-6.03458E-04-1.08469E-02-3.13330E+00 4.95251E-03 2.42258E-02-2.31218E-02 4.79646E+01-2.20785E+01 1.10807E+00



 n o d a l   p r i n t   o u t   f o r   t i m e  s t e p    4001                              ( at time 1.9997999E+00 )

 nodal point  x-rot      y-rot       z-rot       x-rot vel   y-rot vel   z-rot vel   x-rot acc   y-rot acc   z-rot acc
    22626  9.24320E-07 2.94911E-05 4.20960E-05 4.70791E-06-1.90988E-05-4.33259E-05 6.86482E-06-1.71288E-05-6.41762E-05



 n o d a l   p r i n t   o u t   f o r   t i m e  s t e p    4201                              ( at time 2.0997899E+00 )

 nodal point  x-disp     y-disp      z-disp      x-vel       y-vel       z-vel      x-accl      y-accl      z-accl      x-coor      y-coor      z-coor
    22626  3.76834E-04-4.95779E-02-6.54389E+00-8.07028E-04-7.25647E-03-3.13639E+00-2.03591E-03 3.59082E-02-3.08616E-02 4.79646E+01-2.20794E+01 7.94615E-01



 n o d a l   p r i n t   o u t   f o r   t i m e  s t e p    4201                              ( at time 2.0997899E+00 )

 nodal point  x-rot      y-rot       z-rot       x-rot vel   y-rot vel   z-rot vel   x-rot acc   y-rot acc   z-rot acc
    22626  1.37087E-06 2.69712E-05 3.67732E-05 8.07852E-07-2.79886E-05-6.21004E-05-3.90045E-05-8.89076E-05-1.87764E-04



 n o d a l   p r i n t   o u t   f o r   t i m e  s t e p    4401                              ( at time 2.1997798E+00 )

 nodal point  x-disp     y-disp      z-disp      x-vel       y-vel       z-vel      x-accl      y-accl      z-accl      x-coor      y-coor      z-coor
    22626  2.37909E-04-5.00819E-02-6.85766E+00-1.74736E-03-2.64260E-03-3.14004E+00-9.40430E-03 4.61434E-02-3.65461E-02 4.79644E+01-2.20799E+01 4.80837E-01



 n o d a l   p r i n t   o u t   f o r   t i m e  s t e p    4401                              ( at time 2.1997798E+00 )

 nodal point  x-rot      y-rot       z-rot       x-rot vel   y-rot vel   z-rot vel   x-rot acc   y-rot acc   z-rot acc
    22626  1.41674E-06 2.38779E-05 3.04632E-05 5.98037E-07-3.24177E-05-6.35511E-05-2.09836E-06-4.42951E-05-1.45088E-05



 n o d a l   p r i n t   o u t   f o r   t i m e  s t e p    4601                              ( at time 2.2997698E+00 )

 nodal point  x-disp     y-disp      z-disp      x-vel       y-vel       z-vel      x-accl      y-accl      z-accl      x-coor      y-coor      z-coor
    22626  2.79908E-05-5.01095E-02-7.17182E+00-2.47778E-03 1.50561E-03-3.14326E+00-7.30486E-03 4.14862E-02-3.21515E-02 4.79642E+01-2.20799E+01 1.66681E-01



 n o d a l   p r i n t   o u t   f o r   t i m e  s t e p    4601                              ( at time 2.2997698E+00 )

 nodal point  x-rot      y-rot       z-rot       x-rot vel   y-rot vel   z-rot vel   x-rot acc   y-rot acc   z-rot acc
    22626  1.17972E-06 2.06064E-05 2.40663E-05-3.25794E-06-3.80150E-05-7.28469E-05-3.85636E-05-5.59790E-05-9.29667E-05



 n o d a l   p r i n t   o u t   f o r   t i m e  s t e p    4801                              ( at time 2.3997598E+00 )

 nodal point  x-disp     y-disp      z-disp      x-vel       y-vel       z-vel      x-accl      y-accl      z-accl      x-coor      y-coor      z-coor
    22626 -2.35948E-04-4.98764E-02-7.48621E+00-2.63264E-03 3.22917E-03-3.14523E+00-1.54876E-03 1.72374E-02-1.97478E-02 4.79639E+01-2.20797E+01-1.47707E-01



 n o d a l   p r i n t   o u t   f o r   t i m e  s t e p    4801                              ( at time 2.3997598E+00 )

 nodal point  x-rot      y-rot       z-rot       x-rot vel   y-rot vel   z-rot vel   x-rot acc   y-rot acc   z-rot acc
    22626  8.08167E-07 1.67438E-05 1.58840E-05-4.23740E-06-4.03847E-05-8.79890E-05-9.79558E-06-2.36988E-05-1.51436E-04



 n o d a l   p r i n t   o u t   f o r   t i m e  s t e p    5001                              ( at time 2.4997498E+00 )

 nodal point  x-disp     y-disp      z-disp      x-vel       y-vel       z-vel      x-accl      y-accl      z-accl      x-coor      y-coor      z-coor
    22626 -5.32235E-04-4.94306E-02-7.80082E+00-3.30024E-03 6.35790E-03-3.14794E+00-6.67663E-03 3.12903E-02-2.71061E-02 4.79636E+01-2.20792E+01-4.62317E-01



 n o d a l   p r i n t   o u t   f o r   t i m e  s t e p    5001                              ( at time 2.4997498E+00 )

 nodal point  x-rot      y-rot       z-rot       x-rot vel   y-rot vel   z-rot vel   x-rot acc   y-rot acc   z-rot acc
    22626  5.14970E-07 1.21726E-05 6.60034E-06-2.96386E-06-4.89933E-05-1.01231E-04 1.27367E-05-8.60946E-05-1.32434E-04



 n o d a l   p r i n t   o u t   f o r   t i m e  s t e p    5201                              ( at time 2.5997398E+00 )

 nodal point  x-disp     y-disp      z-disp      x-vel       y-vel       z-vel      x-accl      y-accl      z-accl      x-coor      y-coor      z-coor
    22626 -9.09952E-04-4.85860E-02-8.11577E+00-4.27743E-03 1.04372E-02-3.15145E+00-9.77291E-03 4.07972E-02-3.50439E-02 4.79633E+01-2.20784E+01-7.77265E-01



 n o d a l   p r i n t   o u t   f o r   t i m e  s t e p    5201                              ( at time 2.5997398E+00 )

 nodal point  x-rot      y-rot       z-rot       x-rot vel   y-rot vel   z-rot vel   x-rot acc   y-rot acc   z-rot acc
    22626  2.21361E-07 6.90824E-06-3.89159E-06-3.99800E-06-5.48610E-05-1.10051E-04-1.03425E-05-5.86826E-05-8.82074E-05



 n o d a l   p r i n t   o u t   f o r   t i m e  s t e p    5401                              ( at time 2.6997298E+00 )

 nodal point  x-disp     y-disp      z-disp      x-vel       y-vel       z-vel      x-accl      y-accl      z-accl      x-coor      y-coor      z-coor
    22626 -1.38129E-03-4.73483E-02-8.43105E+00-5.44759E-03 1.38066E-02-3.15472E+00-1.17028E-02 3.36970E-02-3.27333E-02 4.79628E+01-2.20771E+01-1.09255E+00



 n o d a l   p r i n t   o u t   f o r   t i m e  s t e p    5401                              ( at time 2.6997298E+00 )

 nodal point  x-rot      y-rot       z-rot       x-rot vel   y-rot vel   z-rot vel   x-rot acc   y-rot acc   z-rot acc
    22626 -2.90188E-08 1.50615E-06-1.48419E-05-1.63843E-06-5.43873E-05-1.07796E-04 2.35980E-05 4.73690E-06 2.25515E-05



 n o d a l   p r i n t   o u t   f o r   t i m e  s t e p    5601                              ( at time 2.7997198E+00 )

 nodal point  x-disp     y-disp      z-disp      x-vel       y-vel       z-vel      x-accl      y-accl      z-accl      x-coor      y-coor      z-coor
    22626 -1.99900E-03-4.58524E-02-8.74660E+00-6.72225E-03 1.58270E-02-3.15676E+00-1.27479E-02 2.02061E-02-2.04655E-02 4.79622E+01-2.20756E+01-1.40810E+00



 n o d a l   p r i n t   o u t   f o r   t i m e  s t e p    5601                              ( at time 2.7997198E+00 )

 nodal point  x-rot      y-rot       z-rot       x-rot vel   y-rot vel   z-rot vel   x-rot acc   y-rot acc   z-rot acc
    22626 -8.73836E-08-4.56108E-06-2.68329E-05 6.43668E-07-6.76068E-05-1.35038E-04 2.28233E-05-1.32208E-04-2.72448E-04



 n o d a l   p r i n t   o u t   f o r   t i m e  s t e p    5801                              ( at time 2.8997098E+00 )

 nodal point  x-disp     y-disp      z-disp      x-vel       y-vel       z-vel      x-accl      y-accl      z-accl      x-coor      y-coor      z-coor
    22626 -2.67613E-03-4.42224E-02-9.06233E+00-6.87847E-03 1.66593E-02-3.15839E+00-1.56234E-03 8.32366E-03-1.62880E-02 4.79615E+01-2.20740E+01-1.72383E+00



 n o d a l   p r i n t   o u t   f o r   t i m e  s t e p    5801                              ( at time 2.8997098E+00 )

 nodal point  x-rot      y-rot       z-rot       x-rot vel   y-rot vel   z-rot vel   x-rot acc   y-rot acc   z-rot acc
    22626  8.59888E-08-1.17984E-05-4.10930E-05 1.64820E-06-7.12488E-05-1.45242E-04 1.00463E-05-3.64240E-05-1.02054E-04



 n o d a l   p r i n t   o u t   f o r   t i m e  s t e p    6001                              ( at time 2.9996998E+00 )

 nodal point  x-disp     y-disp      z-disp      x-vel       y-vel       z-vel      x-accl      y-accl      z-accl      x-coor      y-coor      z-coor
    22626 -3.40395E-03-4.24488E-02-9.37823E+00-7.92670E-03 1.89156E-02-3.16058E+00-1.04833E-02 2.25660E-02-2.18508E-02 4.79608E+01-2.20722E+01-2.03973E+00



 n o d a l   p r i n t   o u t   f o r   t i m e  s t e p    6001                              ( at time 2.9996998E+00 )

 nodal point  x-rot      y-rot       z-rot       x-rot vel   y-rot vel   z-rot vel   x-rot acc   y-rot acc   z-rot acc
    22626  2.18950E-07-1.88751E-05-5.53514E-05 1.44262E-08-6.99446E-05-1.43584E-04-1.63393E-05 1.30437E-05 1.65882E-05



 n o d a l   p r i n t   o u t   f o r   t i m e  s t e p    6201                              ( at time 3.0996898E+00 )

 nodal point  x-disp     y-disp      z-disp      x-vel       y-vel       z-vel      x-accl      y-accl      z-accl      x-coor      y-coor      z-coor
    22626 -4.28166E-03-4.04478E-02-9.69437E+00-9.54256E-03 2.06212E-02-3.16246E+00-1.61602E-02 1.70576E-02-1.88370E-02 4.79599E+01-2.20702E+01-2.35587E+00



 n o d a l   p r i n t   o u t   f o r   t i m e  s t e p    6201                              ( at time 3.0996898E+00 )

 nodal point  x-rot      y-rot       z-rot       x-rot vel   y-rot vel   z-rot vel   x-rot acc   y-rot acc   z-rot acc
    22626  8.11850E-08-2.59437E-05-7.00100E-05-3.63723E-06-7.05517E-05-1.49669E-04-3.65202E-05-6.07182E-06-6.08607E-05



 n o d a l   p r i n t   o u t   f o r   t i m e  s t e p    6401                              ( at time 3.1996798E+00 )

 nodal point  x-disp     y-disp      z-disp      x-vel       y-vel       z-vel      x-accl      y-accl      z-accl      x-coor      y-coor      z-coor
    22626 -5.26678E-03-3.84294E-02-1.00106E+01-1.00304E-02 1.94870E-02-3.16291E+00-4.87928E-03-1.13430E-02-4.45410E-03 4.79589E+01-2.20682E+01-2.67212E+00



 n o d a l   p r i n t   o u t   f o r   t i m e  s t e p    6401                              ( at time 3.1996798E+00 )

 nodal point  x-rot      y-rot       z-rot       x-rot vel   y-rot vel   z-rot vel   x-rot acc   y-rot acc   z-rot acc
    22626 -2.11928E-07-3.31384E-05-8.48652E-05-3.01904E-06-7.28755E-05-1.52532E-04 6.18250E-06-2.32397E-05-2.86266E-05



 n o d a l   p r i n t   o u t   f o r   t i m e  s t e p    6601                              ( at time 3.2996698E+00 )

 nodal point  x-disp     y-disp      z-disp      x-vel       y-vel       z-vel      x-accl      y-accl      z-accl      x-coor      y-coor      z-coor
    22626 -6.28397E-03-3.65846E-02-1.03269E+01-1.02806E-02 1.73851E-02-3.16250E+00-2.50213E-03-2.10221E-02 4.07737E-03 4.79579E+01-2.20664E+01-2.98835E+00



 n o d a l   p r i n t   o u t   f o r   t i m e  s t e p    6601                              ( at time 3.2996698E+00 )

 nodal point  x-rot      y-rot       z-rot       x-rot vel   y-rot vel   z-rot vel   x-rot acc   y-rot acc   z-rot acc
    22626 -6.49956E-07-4.02912E-05-1.00107E-04-4.48346E-06-7.12956E-05-1.52602E-04-1.46456E-05 1.57998E-05-7.05694E-07



 n o d a l   p r i n t   o u t   f o r   t i m e  s t e p    6801                              ( at time 3.3996598E+00 )

 nodal point  x-disp     y-disp      z-disp      x-vel       y-vel       z-vel      x-accl      y-accl      z-accl      x-coor      y-coor      z-coor
    22626 -7.34668E-03-3.49407E-02-1.06431E+01-1.08634E-02 1.54328E-02-3.16239E+00-5.82814E-03-1.95240E-02 1.09683E-03 4.79568E+01-2.20647E+01-3.30457E+00



 n o d a l   p r i n t   o u t   f o r   t i m e  s t e p    6801                              ( at time 3.3996598E+00 )

 nodal point  x-rot      y-rot       z-rot       x-rot vel   y-rot vel   z-rot vel   x-rot acc   y-rot acc   z-rot acc
    22626 -9.08100E-07-4.71222E-05-1.15151E-04-4.79738E-06-6.39364E-05-1.45880E-04-3.13951E-06 7.35994E-05 6.72244E-05



 n o d a l   p r i n t   o u t   f o r   t i m e  s t e p    7001                              ( at time 3.4996498E+00 )

 nodal point  x-disp     y-disp      z-disp      x-vel       y-vel       z-vel      x-accl      y-accl      z-accl      x-coor      y-coor      z-coor
    22626 -8.46754E-03-3.34822E-02-1.09593E+01-1.16073E-02 1.36918E-02-3.16241E+00-7.43971E-03-1.74120E-02-1.76448E-04 4.79557E+01-2.20633E+01-3.62079E+00



 n o d a l   p r i n t   o u t   f o r   t i m e  s t e p    7001                              ( at time 3.4996498E+00 )

 nodal point  x-rot      y-rot       z-rot       x-rot vel   y-rot vel   z-rot vel   x-rot acc   y-rot acc   z-rot acc
    22626 -1.16262E-06-5.31343E-05-1.28818E-04-2.15561E-06-5.72769E-05-1.31816E-04 2.64203E-05 6.66017E-05 1.40661E-04



 n o d a l   p r i n t   o u t   f o r   t i m e  s t e p    7201                              ( at time 3.5996397E+00 )

 nodal point  x-disp     y-disp      z-disp      x-vel       y-vel       z-vel      x-accl      y-accl      z-accl      x-coor      y-coor      z-coor
    22626 -9.64362E-03-3.22326E-02-1.12755E+01-1.15842E-02 1.10759E-02-3.16216E+00 2.30498E-04-2.61624E-02 2.49649E-03 4.79545E+01-2.20620E+01-3.93699E+00



 n o d a l   p r i n t   o u t   f o r   t i m e  s t e p    7201                              ( at time 3.5996397E+00 )

 nodal point  x-rot      y-rot       z-rot       x-rot vel   y-rot vel   z-rot vel   x-rot acc   y-rot acc   z-rot acc
    22626 -1.43373E-06-5.85345E-05-1.41417E-04 8.72333E-08-4.96067E-05-1.17409E-04 2.24307E-05 7.67100E-05 1.44080E-04



 n o d a l   p r i n t   o u t   f o r   t i m e  s t e p    7401                              ( at time 3.6996297E+00 )

 nodal point  x-disp     y-disp      z-disp      x-vel       y-vel       z-vel      x-accl      y-accl      z-accl      x-coor      y-coor      z-coor
    22626 -1.07897E-02-3.12997E-02-1.15916E+01-1.12889E-02 7.54109E-03-3.16119E+00 2.95332E-03-3.53511E-02 9.69983E-03 4.79534E+01-2.20611E+01-4.25313E+00



 n o d a l   p r i n t   o u t   f o r   t i m e  s t e p    7401                              ( at time 3.6996297E+00 )

 nodal point  x-rot      y-rot       z-rot       x-rot vel   y-rot vel   z-rot vel   x-rot acc   y-rot acc   z-rot acc
    22626 -1.42307E-06-6.30185E-05-1.52624E-04 9.00694E-07-4.08346E-05-1.06967E-04 8.13541E-06 8.77294E-05 1.04431E-04



 n o d a l   p r i n t   o u t   f o r   t i m e  s t e p    7601                              ( at time 3.7996197E+00 )

 nodal point  x-disp     y-disp      z-disp      x-vel       y-vel       z-vel      x-accl      y-accl      z-accl      x-coor      y-coor      z-coor
    22626 -1.19003E-02-3.06894E-02-1.19077E+01-1.09282E-02 4.73738E-03-3.16041E+00 3.60795E-03-2.80399E-02 7.78038E-03 4.79523E+01-2.20605E+01-4.56916E+00



 n o d a l   p r i n t   o u t   f o r   t i m e  s t e p    7601                              ( at time 3.7996197E+00 )

 nodal point  x-rot      y-rot       z-rot       x-rot vel   y-rot vel   z-rot vel   x-rot acc   y-rot acc   z-rot acc
    22626 -1.26543E-06-6.65653E-05-1.62485E-04 2.64328E-06-2.74126E-05-8.36894E-05 1.74276E-05 1.34234E-04 2.32800E-04



 n o d a l   p r i n t   o u t   f o r   t i m e  s t e p    7801                              ( at time 3.8996097E+00 )

 nodal point  x-disp     y-disp      z-disp      x-vel       y-vel       z-vel      x-accl      y-accl      z-accl      x-coor      y-coor      z-coor
    22626 -1.29555E-02-3.03187E-02-1.22237E+01-1.02051E-02 2.99696E-03-3.16033E+00 7.23114E-03-1.74060E-02 7.60630E-04 4.79512E+01-2.20601E+01-4.88517E+00



 n o d a l   p r i n t   o u t   f o r   t i m e  s t e p    7801                              ( at time 3.8996097E+00 )

 nodal point  x-rot      y-rot       z-rot       x-rot vel   y-rot vel   z-rot vel   x-rot acc   y-rot acc   z-rot acc
    22626 -1.16994E-06-6.85025E-05-1.69483E-04-1.96603E-06-8.32696E-06-5.43916E-05-4.60977E-05 1.90875E-04 2.93007E-04



 n o d a l   p r i n t   o u t   f o r   t i m e  s t e p    8001                              ( at time 3.9995997E+00 )

 nodal point  x-disp     y-disp      z-disp      x-vel       y-vel       z-vel      x-accl      y-accl      z-accl      x-coor      y-coor      z-coor
    22626 -1.39425E-02-3.00833E-02-1.25397E+01-9.56557E-03 1.70450E-03-3.16072E+00 6.39623E-03-1.29259E-02-3.90092E-03 4.79502E+01-2.20599E+01-5.20120E+00



 n o d a l   p r i n t   o u t   f o r   t i m e  s t e p    8001                              ( at time 3.9995997E+00 )

 nodal point  x-rot      y-rot       z-rot       x-rot vel   y-rot vel   z-rot vel   x-rot acc   y-rot acc   z-rot acc
    22626 -1.31810E-06-6.87210E-05-1.73596E-04-3.24228E-06 4.52822E-06-3.22137E-05-1.27638E-05 1.28565E-04 2.21801E-04



 n o d a l   p r i n t   o u t   f o r   t i m e  s t e p    8201                              ( at time 4.0995897E+00 )

 nodal point  x-disp     y-disp      z-disp      x-vel       y-vel       z-vel      x-accl      y-accl      z-accl      x-coor      y-coor      z-coor
    22626 -1.48237E-02-3.00290E-02-1.28557E+01-7.91924E-03-8.79227E-04-3.16028E+00 1.64649E-02-2.58398E-02 4.40879E-03 4.79494E+01-2.20598E+01-5.51722E+00



 n o d a l   p r i n t   o u t   f o r   t i m e  s t e p    8201                              ( at time 4.0995897E+00 )

 nodal point  x-rot      y-rot       z-rot       x-rot vel   y-rot vel   z-rot vel   x-rot acc   y-rot acc   z-rot acc
    22626 -1.58769E-06-6.76418E-05-1.75443E-04-3.93830E-06 2.07798E-05-6.25418E-07-6.96082E-06 1.62532E-04 3.15914E-04



 n o d a l   p r i n t   o u t   f o r   t i m e  s t e p    8401                              ( at time 4.1995797E+00 )

 nodal point  x-disp     y-disp      z-disp      x-vel       y-vel       z-vel      x-accl      y-accl      z-accl      x-coor      y-coor      z-coor
    22626 -1.55404E-02-3.02337E-02-1.31717E+01-6.28288E-03-3.19993E-03-3.15973E+00 1.63652E-02-2.32094E-02 5.51279E-03 4.79486E+01-2.20600E+01-5.83318E+00



 n o d a l   p r i n t   o u t   f o r   t i m e  s t e p    8401                              ( at time 4.1995797E+00 )

 nodal point  x-rot      y-rot       z-rot       x-rot vel   y-rot vel   z-rot vel   x-rot acc   y-rot acc   z-rot acc
    22626 -1.86115E-06-6.44677E-05-1.73797E-04-3.83754E-06 4.12811E-05 3.42535E-05 1.00768E-06 2.05034E-04 3.48825E-04



 n o d a l   p r i n t   o u t   f o r   t i m e  s t e p    8601                              ( at time 4.2995697E+00 )

 nodal point  x-disp     y-disp      z-disp      x-vel       y-vel       z-vel      x-accl      y-accl      z-accl      x-coor      y-coor      z-coor
    22626 -1.60997E-02-3.06671E-02-1.34876E+01-4.81544E-03-5.14663E-03-3.15963E+00 1.46759E-02-1.94690E-02 1.02053E-03 4.79481E+01-2.20605E+01-6.14911E+00



 n o d a l   p r i n t   o u t   f o r   t i m e  s t e p    8601                              ( at time 4.2995697E+00 )

 nodal point  x-rot      y-rot       z-rot       x-rot vel   y-rot vel   z-rot vel   x-rot acc   y-rot acc   z-rot acc
    22626 -2.11679E-06-5.94455E-05-1.68847E-04-3.21591E-06 5.78397E-05 6.25925E-05 6.21690E-06 1.65603E-04 2.83418E-04



 n o d a l   p r i n t   o u t   f o r   t i m e  s t e p    8801                              ( at time 4.3995597E+00 )

 nodal point  x-disp     y-disp      z-disp      x-vel       y-vel       z-vel      x-accl      y-accl      z-accl      x-coor      y-coor      z-coor
    22626 -1.65005E-02-3.12203E-02-1.38036E+01-3.17685E-03-5.99456E-03-3.16036E+00 1.63876E-02-8.48017E-03-7.33450E-03 4.79477E+01-2.20610E+01-6.46507E+00



 n o d a l   p r i n t   o u t   f o r   t i m e  s t e p    8801                              ( at time 4.3995597E+00 )

 nodal point  x-rot      y-rot       z-rot       x-rot vel   y-rot vel   z-rot vel   x-rot acc   y-rot acc   z-rot acc
    22626 -2.38693E-06-5.25293E-05-1.60548E-04-1.66068E-06 7.86948E-05 1.00455E-04 1.55539E-05 2.08572E-04 3.78659E-04



 n o d a l   p r i n t   o u t   f o r   t i m e  s t e p    9001                              ( at time 4.4995497E+00 )

 nodal point  x-disp     y-disp      z-disp      x-vel       y-vel       z-vel      x-accl      y-accl      z-accl      x-coor      y-coor      z-coor
    22626 -1.67376E-02-3.19113E-02-1.41196E+01-1.41717E-03-8.16860E-03-3.16004E+00 1.75985E-02-2.17425E-02 3.22373E-03 4.79474E+01-2.20617E+01-6.78107E+00



 n o d a l   p r i n t   o u t   f o r   t i m e  s t e p    9001                              ( at time 4.4995497E+00 )

 nodal point  x-rot      y-rot       z-rot       x-rot vel   y-rot vel   z-rot vel   x-rot acc   y-rot acc   z-rot acc
    22626 -2.48162E-06-4.35130E-05-1.48410E-04 1.14803E-06 9.93217E-05 1.37177E-04 2.80899E-05 2.06289E-04 3.67258E-04



 n o d a l   p r i n t   o u t   f o r   t i m e  s t e p    9201                              ( at time 4.5995397E+00 )

 nodal point  x-disp     y-disp      z-disp      x-vel       y-vel       z-vel      x-accl      y-accl      z-accl      x-coor      y-coor      z-coor
    22626 -1.67869E-02-3.28731E-02-1.44355E+01 4.25088E-04-1.08494E-02-3.15953E+00 1.84244E-02-2.68110E-02 5.06452E-03 4.79474E+01-2.20627E+01-7.09702E+00



 n o d a l   p r i n t   o u t   f o r   t i m e  s t e p    9201                              ( at time 4.5995397E+00 )

 nodal point  x-rot      y-rot       z-rot       x-rot vel   y-rot vel   z-rot vel   x-rot acc   y-rot acc   z-rot acc
    22626 -2.40342E-06-3.28521E-05-1.33365E-04 2.34147E-06 1.14820E-04 1.60517E-04 1.19356E-05 1.54994E-04 2.33422E-04



 n o d a l   p r i n t   o u t   f o r   t i m e  s t e p    9401                              ( at time 4.6995297E+00 )

 nodal point  x-disp     y-disp      z-disp      x-vel       y-vel       z-vel      x-accl      y-accl      z-accl      x-coor      y-coor      z-coor
    22626 -1.66300E-02-3.40300E-02-1.47514E+01 2.50650E-03-1.22322E-02-3.15959E+00 2.08163E-02-1.38293E-02-5.98491E-04 4.79476E+01-2.20638E+01-7.41294E+00



 n o d a l   p r i n t   o u t   f o r   t i m e  s t e p    9401                              ( at time 4.6995297E+00 )

 nodal point  x-rot      y-rot       z-rot       x-rot vel   y-rot vel   z-rot vel   x-rot acc   y-rot acc   z-rot acc
    22626 -2.21255E-06-2.03859E-05-1.15231E-04 1.99353E-06 1.35240E-04 1.99701E-04-3.47978E-06 2.04228E-04 3.91883E-04



 n o d a l   p r i n t   o u t   f o r   t i m e  s t e p    9601                              ( at time 4.7995197E+00 )

 nodal point  x-disp     y-disp      z-disp      x-vel       y-vel       z-vel      x-accl      y-accl      z-accl      x-coor      y-coor      z-coor
    22626 -1.62808E-02-3.53095E-02-1.50674E+01 4.32482E-03-1.31030E-02-3.16012E+00 1.81851E-02-8.70866E-03-5.23382E-03 4.79479E+01-2.20651E+01-7.72889E+00



 n o d a l   p r i n t   o u t   f o r   t i m e  s t e p    9601                              ( at time 4.7995197E+00 )

 nodal point  x-rot      y-rot       z-rot       x-rot vel   y-rot vel   z-rot vel   x-rot acc   y-rot acc   z-rot acc
    22626 -2.03689E-06-5.78226E-06-9.33823E-05 1.95235E-07 1.56202E-04 2.35908E-04-1.79848E-05 2.09639E-04 3.62103E-04



 n o d a l   p r i n t   o u t   f o r   t i m e  s t e p    9801                              ( at time 4.8995097E+00 )

 nodal point  x-disp     y-disp      z-disp      x-vel       y-vel       z-vel      x-accl      y-accl      z-accl      x-coor      y-coor      z-coor
    22626 -1.57604E-02-3.66601E-02-1.53834E+01 6.04095E-03-1.40401E-02-3.16039E+00 1.71629E-02-9.37231E-03-2.76594E-03 4.79484E+01-2.20665E+01-8.04489E+00



 n o d a l   p r i n t   o u t   f o r   t i m e  s t e p    9801                              ( at time 4.8995097E+00 )

 nodal point  x-rot      y-rot       z-rot       x-rot vel   y-rot vel   z-rot vel   x-rot acc   y-rot acc   z-rot acc
    22626 -2.02893E-06 1.06962E-05-6.85609E-05-4.98920E-07 1.71426E-04 2.59253E-04-6.94225E-06 1.52249E-04 2.33476E-04



 n o d a l   p r i n t   o u t   f o r   t i m e  s t e p   10001                              ( at time 4.9994997E+00 )

 nodal point  x-disp     y-disp      z-disp      x-vel       y-vel       z-vel      x-accl      y-accl      z-accl      x-coor      y-coor      z-coor
    22626 -1.50389E-02-3.81406E-02-1.56994E+01 8.20009E-03-1.56069E-02-3.16046E+00 2.15935E-02-1.56692E-02-6.24717E-04 4.79491E+01-2.20679E+01-8.36090E+00



 n o d a l   p r i n t   o u t   f o r   t i m e  s t e p   10001                              ( at time 4.9994997E+00 )

 nodal point  x-rot      y-rot       z-rot       x-rot vel   y-rot vel   z-rot vel   x-rot acc   y-rot acc   z-rot acc
    22626 -1.99495E-06 2.83040E-05-4.15178E-05-2.42556E-07 1.81348E-04 2.82267E-04 2.56389E-06 9.92331E-05 2.30164E-04



 n o d a l   p r i n t   o u t   f o r   t i m e  s t e p   10202                              ( at time 5.0999896E+00 )

 nodal point  x-disp     y-disp      z-disp      x-vel       y-vel       z-vel      x-accl      y-accl      z-accl      x-coor      y-coor      z-coor
    22626 -1.41115E-02-3.97509E-02-1.60170E+01 1.01749E-02-1.62587E-02-3.16094E+00 1.96514E-02-6.48636E-03-4.82343E-03 4.79501E+01-2.20695E+01-8.67851E+00



 n o d a l   p r i n t   o u t   f o r   t i m e  s t e p   10202                              ( at time 5.0999896E+00 )

 nodal point  x-rot      y-rot       z-rot       x-rot vel   y-rot vel   z-rot vel   x-rot acc   y-rot acc   z-rot acc
    22626 -1.99418E-06 4.75501E-05-1.19374E-05-1.45545E-06 1.97370E-04 3.04330E-04-1.20699E-05 1.59437E-04 2.19551E-04



 n o d a l   p r i n t   o u t   f o r   t i m e  s t e p   10402                              ( at time 5.1999796E+00 )

 nodal point  x-disp     y-disp      z-disp      x-vel       y-vel       z-vel      x-accl      y-accl      z-accl      x-coor      y-coor      z-coor
    22626 -1.30170E-02-4.13612E-02-1.63331E+01 1.16184E-02-1.56313E-02-3.16224E+00 1.44372E-02 6.27522E-03-1.29688E-02 4.79512E+01-2.20712E+01-8.99463E+00



 n o d a l   p r i n t   o u t   f o r   t i m e  s t e p   10402                              ( at time 5.1999796E+00 )

 nodal point  x-rot      y-rot       z-rot       x-rot vel   y-rot vel   z-rot vel   x-rot acc   y-rot acc   z-rot acc
    22626 -1.85811E-06 6.80034E-05 1.95330E-05 7.42569E-07 2.06396E-04 3.23335E-04 2.19823E-05 9.02745E-05 1.90069E-04



 n o d a l   p r i n t   o u t   f o r   t i m e  s t e p   10602                              ( at time 5.2999696E+00 )

 nodal point  x-disp     y-disp      z-disp      x-vel       y-vel       z-vel      x-accl      y-accl      z-accl      x-coor      y-coor      z-coor
    22626 -1.17965E-02-4.28579E-02-1.66494E+01 1.25877E-02-1.44892E-02-3.16392E+00 9.69356E-03 1.14217E-02-1.68364E-02 4.79524E+01-2.20726E+01-9.31092E+00



 n o d a l   p r i n t   o u t   f o r   t i m e  s t e p   10602                              ( at time 5.2999696E+00 )

 nodal point  x-rot      y-rot       z-rot       x-rot vel   y-rot vel   z-rot vel   x-rot acc   y-rot acc   z-rot acc
    22626 -1.64111E-06 8.88704E-05 5.21714E-05 7.85914E-07 2.12169E-04 3.29622E-04 4.33488E-07 5.77385E-05 6.28797E-05



 n o d a l   p r i n t   o u t   f o r   t i m e  s t e p   10802                              ( at time 5.3999596E+00 )

 nodal point  x-disp     y-disp      z-disp      x-vel       y-vel       z-vel      x-accl      y-accl      z-accl      x-coor      y-coor      z-coor
    22626 -1.04818E-02-4.42512E-02-1.69659E+01 1.38559E-02-1.34759E-02-3.16562E+00 1.26835E-02 1.01338E-02-1.69843E-02 4.79537E+01-2.20740E+01-9.62737E+00



 n o d a l   p r i n t   o u t   f o r   t i m e  s t e p   10802                              ( at time 5.3999596E+00 )

 nodal point  x-rot      y-rot       z-rot       x-rot vel   y-rot vel   z-rot vel   x-rot acc   y-rot acc   z-rot acc
    22626 -1.32095E-06 1.10199E-04 8.54091E-05 4.30822E-06 2.15046E-04 3.34047E-04 3.52266E-05 2.87674E-05 4.42531E-05



 n o d a l   p r i n t   o u t   f o r   t i m e  s t e p   11002                              ( at time 5.4999496E+00 )

 nodal point  x-disp     y-disp      z-disp      x-vel       y-vel       z-vel      x-accl      y-accl      z-accl      x-coor      y-coor      z-coor
    22626 -9.02519E-03-4.55211E-02-1.72825E+01 1.51536E-02-1.17672E-02-3.16668E+00 1.29786E-02 1.70886E-02-1.05892E-02 4.79552E+01-2.20753E+01-9.94395E+00



 n o d a l   p r i n t   o u t   f o r   t i m e  s t e p   11002                              ( at time 5.4999496E+00 )

 nodal point  x-rot      y-rot       z-rot       x-rot vel   y-rot vel   z-rot vel   x-rot acc   y-rot acc   z-rot acc
    22626 -9.31856E-07 1.32029E-04 1.19055E-04 7.53069E-06 2.21692E-04 3.34661E-04 3.22280E-05 6.64671E-05 6.13920E-06



 n o d a l   p r i n t   o u t   f o r   t i m e  s t e p   11202                              ( at time 5.5999396E+00 )

 nodal point  x-disp     y-disp      z-disp      x-vel       y-vel       z-vel      x-accl      y-accl      z-accl      x-coor      y-coor      z-coor
    22626 -7.48981E-03-4.65767E-02-1.75991E+01 1.54065E-02-9.27896E-03-3.16708E+00 2.52904E-03 2.48853E-02-4.01061E-03 4.79567E+01-2.20764E+01-1.02606E+01



 n o d a l   p r i n t   o u t   f o r   t i m e  s t e p   11202                              ( at time 5.5999396E+00 )

 nodal point  x-rot      y-rot       z-rot       x-rot vel   y-rot vel   z-rot vel   x-rot acc   y-rot acc   z-rot acc
    22626 -2.61013E-07 1.55536E-04 1.52757E-04 3.27372E-06 2.51474E-04 3.33789E-04-4.25741E-05 2.97852E-04-8.71835E-06



 n o d a l   p r i n t   o u t   f o r   t i m e  s t e p   11402                              ( at time 5.6999296E+00 )

 nodal point  x-disp     y-disp      z-disp      x-vel       y-vel       z-vel      x-accl      y-accl      z-accl      x-coor      y-coor      z-coor
    22626 -5.91348E-03-4.73618E-02-1.79158E+01 1.58939E-02-6.37777E-03-3.16665E+00 4.87424E-03 2.90146E-02 4.29433E-03 4.79583E+01-2.20772E+01-1.05773E+01



 n o d a l   p r i n t   o u t   f o r   t i m e  s t e p   11402                              ( at time 5.6999296E+00 )

 nodal point  x-rot      y-rot       z-rot       x-rot vel   y-rot vel   z-rot vel   x-rot acc   y-rot acc   z-rot acc
    22626  1.15993E-07 1.82548E-04 1.86058E-04 4.01831E-06 2.94613E-04 3.28744E-04 7.44664E-06 4.31427E-04-5.04604E-05



 n o d a l   p r i n t   o u t   f o r   t i m e  s t e p   11602                              ( at time 5.7999195E+00 )

 nodal point  x-disp     y-disp      z-disp      x-vel       y-vel       z-vel      x-accl      y-accl      z-accl      x-coor      y-coor      z-coor
    22626 -4.30114E-03-4.78702E-02-1.82323E+01 1.66234E-02-4.06791E-03-3.16389E+00 7.29582E-03 2.31010E-02 2.75997E-02 4.79599E+01-2.20777E+01-1.08938E+01



 n o d a l   p r i n t   o u t   f o r   t i m e  s t e p   11602                              ( at time 5.7999195E+00 )

 nodal point  x-rot      y-rot       z-rot       x-rot vel   y-rot vel   z-rot vel   x-rot acc   y-rot acc   z-rot acc
    22626  3.71670E-07 2.15034E-04 2.18604E-04-1.78394E-06 3.54137E-04 3.20249E-04-5.80284E-05 5.95301E-04-8.49545E-05



 n o d a l   p r i n t   o u t   f o r   t i m e  s t e p   11802                              ( at time 5.8999095E+00 )

 nodal point  x-disp     y-disp      z-disp      x-vel       y-vel       z-vel      x-accl      y-accl      z-accl      x-coor      y-coor      z-coor
    22626 -2.60968E-03-4.82314E-02-1.85484E+01 1.71557E-02-3.13720E-03-3.15843E+00 5.32306E-03 9.30805E-03 5.46058E-02 4.79616E+01-2.20780E+01-1.12099E+01



 n o d a l   p r i n t   o u t   f o r   t i m e  s t e p   11802                              ( at time 5.8999095E+00 )

 nodal point  x-rot      y-rot       z-rot       x-rot vel   y-rot vel   z-rot vel   x-rot acc   y-rot acc   z-rot acc
    22626 -1.81602E-07 2.54931E-04 2.50254E-04-3.43581E-06 4.50309E-04 3.11890E-04-1.65204E-05 9.61825E-04-8.36028E-05



 n o d a l   p r i n t   o u t   f o r   t i m e  s t e p   12002                              ( at time 5.9998995E+00 )

 nodal point  x-disp     y-disp      z-disp      x-vel       y-vel       z-vel      x-accl      y-accl      z-accl      x-coor      y-coor      z-coor
    22626 -9.30449E-04-4.84402E-02-1.88638E+01 1.65485E-02-1.03223E-03-3.15070E+00-6.07263E-03 2.10518E-02 7.72984E-02 4.79632E+01-2.20782E+01-1.15253E+01



 n o d a l   p r i n t   o u t   f o r   t i m e  s t e p   12002                              ( at time 5.9998995E+00 )

 nodal point  x-rot      y-rot       z-rot       x-rot vel   y-rot vel   z-rot vel   x-rot acc   y-rot acc   z-rot acc
    22626 -7.32877E-08 3.06325E-04 2.79847E-04 6.65713E-06 5.82438E-04 2.83195E-04 1.00940E-04 1.32142E-03-2.86970E-04



 n o d a l   p r i n t   o u t   f o r   t i m e  s t e p   12202                              ( at time 6.0998895E+00 )

 nodal point  x-disp     y-disp      z-disp      x-vel       y-vel       z-vel      x-accl      y-accl      z-accl      x-coor      y-coor      z-coor
    22626  6.67935E-04-4.84216E-02-1.91783E+01 1.54813E-02 1.54020E-03-3.13892E+00-1.06728E-02 2.57269E-02 1.17812E-01 4.79648E+01-2.20782E+01-1.18398E+01



 n o d a l   p r i n t   o u t   f o r   t i m e  s t e p   12202                              ( at time 6.0998895E+00 )

 nodal point  x-rot      y-rot       z-rot       x-rot vel   y-rot vel   z-rot vel   x-rot acc   y-rot acc   z-rot acc
    22626  1.27003E-06 3.73662E-04 3.05890E-04 2.46793E-05 7.70734E-04 2.40932E-04 1.80240E-04 1.88313E-03-4.22676E-04



 n o d a l   p r i n t   o u t   f o r   t i m e  s t e p   12402                              ( at time 6.1998795E+00 )

 nodal point  x-disp     y-disp      z-disp      x-vel       y-vel       z-vel      x-accl      y-accl      z-accl      x-coor      y-coor      z-coor
    22626  2.15076E-03-4.81685E-02-1.94915E+01 1.41946E-02 3.44243E-03-3.12399E+00-1.28684E-02 1.90241E-02 1.49370E-01 4.79663E+01-2.20780E+01-1.21530E+01



 n o d a l   p r i n t   o u t   f o r   t i m e  s t e p   12402                              ( at time 6.1998795E+00 )

 nodal point  x-rot      y-rot       z-rot       x-rot vel   y-rot vel   z-rot vel   x-rot acc   y-rot acc   z-rot acc
    22626  4.98238E-06 4.62372E-04 3.28006E-04 4.64628E-05 1.01070E-03 2.04338E-04 2.17856E-04 2.39991E-03-3.65973E-04



 n o d a l   p r i n t   o u t   f o r   t i m e  s t e p   12602                              ( at time 6.2998695E+00 )

 nodal point  x-disp     y-disp      z-disp      x-vel       y-vel       z-vel      x-accl      y-accl      z-accl      x-coor      y-coor      z-coor
    22626  3.48441E-03-4.77606E-02-1.98029E+01 1.24049E-02 4.95972E-03-3.10527E+00-1.78983E-02 1.51745E-02 1.87146E-01 4.79677E+01-2.20776E+01-1.24644E+01



 n o d a l   p r i n t   o u t   f o r   t i m e  s t e p   12602                              ( at time 6.2998695E+00 )

 nodal point  x-rot      y-rot       z-rot       x-rot vel   y-rot vel   z-rot vel   x-rot acc   y-rot acc   z-rot acc
    22626  1.11143E-05 5.76968E-04 3.45958E-04 8.25295E-05 1.29021E-03 1.50327E-04 3.60704E-04 2.79538E-03-5.40163E-04



 n o d a l   p r i n t   o u t   f o r   t i m e  s t e p   12802                              ( at time 6.3998595E+00 )

 nodal point  x-disp     y-disp      z-disp      x-vel       y-vel       z-vel      x-accl      y-accl      z-accl      x-coor      y-coor      z-coor
    22626  4.58599E-03-4.71132E-02-2.01123E+01 9.29690E-03 8.20810E-03-3.08281E+00-3.10833E-02 3.24870E-02 2.24630E-01 4.79688E+01-2.20769E+01-1.27738E+01



 n o d a l   p r i n t   o u t   f o r   t i m e  s t e p   12802                              ( at time 6.3998595E+00 )

 nodal point  x-rot      y-rot       z-rot       x-rot vel   y-rot vel   z-rot vel   x-rot acc   y-rot acc   z-rot acc
    22626  2.26157E-05 7.23361E-04 3.57186E-04 1.49950E-04 1.64439E-03 7.82515E-05 6.74275E-04 3.54215E-03-7.20833E-04



 n o d a l   p r i n t   o u t   f o r   t i m e  s t e p   13002                              ( at time 6.4998495E+00 )

 nodal point  x-disp     y-disp      z-disp      x-vel       y-vel       z-vel      x-accl      y-accl      z-accl      x-coor      y-coor      z-coor
    22626  5.37168E-03-4.61360E-02-2.04194E+01 6.24753E-03 1.14575E-02-3.05822E+00-3.04968E-02 3.24977E-02 2.45973E-01 4.79696E+01-2.20759E+01-1.30809E+01



 n o d a l   p r i n t   o u t   f o r   t i m e  s t e p   13002                              ( at time 6.4998495E+00 )

 nodal point  x-rot      y-rot       z-rot       x-rot vel   y-rot vel   z-rot vel   x-rot acc   y-rot acc   z-rot acc
    22626  4.06291E-05 9.06363E-04 3.62143E-04 2.12286E-04 2.02590E-03 1.41690E-05 6.23418E-04 3.81552E-03-6.40890E-04



 n o d a l   p r i n t   o u t   f o r   t i m e  s t e p   13202                              ( at time 6.5998395E+00 )

 nodal point  x-disp     y-disp      z-disp      x-vel       y-vel       z-vel      x-accl      y-accl      z-accl      x-coor      y-coor      z-coor
    22626  5.81340E-03-4.48224E-02-2.07237E+01 1.93203E-03 1.52993E-02-3.02977E+00-4.31591E-02 3.84213E-02 2.84518E-01 4.79700E+01-2.20746E+01-1.33852E+01



 n o d a l   p r i n t   o u t   f o r   t i m e  s t e p   13202                              ( at time 6.5998395E+00 )

 nodal point  x-rot      y-rot       z-rot       x-rot vel   y-rot vel   z-rot vel   x-rot acc   y-rot acc   z-rot acc
    22626  6.51865E-05 1.13037E-03 3.60384E-04 2.94395E-04 2.44809E-03-5.80413E-05 8.21175E-04 4.22226E-03-7.22172E-04



 n o d a l   p r i n t   o u t   f o r   t i m e  s t e p   13402                              ( at time 6.6998295E+00 )

 nodal point  x-disp     y-disp      z-disp      x-vel       y-vel       z-vel      x-accl      y-accl      z-accl      x-coor      y-coor      z-coor
    22626  5.81742E-03-4.31449E-02-2.10251E+01-2.13627E-03 1.81773E-02-2.99888E+00-4.06872E-02 2.87831E-02 3.08950E-01 4.79700E+01-2.20729E+01-1.36866E+01



 n o d a l   p r i n t   o u t   f o r   t i m e  s t e p   13402                              ( at time 6.6998295E+00 )

 nodal point  x-rot      y-rot       z-rot       x-rot vel   y-rot vel   z-rot vel   x-rot acc   y-rot acc   z-rot acc
    22626  9.90926E-05 1.39722E-03 3.51282E-04 3.86093E-04 2.88384E-03-1.25092E-04 9.17069E-04 4.35791E-03-6.70578E-04



 n o d a l   p r i n t   o u t   f o r   t i m e  s t e p   13602                              ( at time 6.7998195E+00 )

 nodal point  x-disp     y-disp      z-disp      x-vel       y-vel       z-vel      x-accl      y-accl      z-accl      x-coor      y-coor      z-coor
    22626  5.37148E-03-4.12425E-02-2.13233E+01-6.59523E-03 2.07763E-02-2.96524E+00-4.45941E-02 2.59930E-02 3.36428E-01 4.79696E+01-2.20710E+01-1.39848E+01



 n o d a l   p r i n t   o u t   f o r   t i m e  s t e p   13602                              ( at time 6.7998195E+00 )

 nodal point  x-rot      y-rot       z-rot       x-rot vel   y-rot vel   z-rot vel   x-rot acc   y-rot acc   z-rot acc
    22626  1.41836E-04 1.70854E-03 3.36107E-04 4.71575E-04 3.34535E-03-1.80445E-04 8.54910E-04 4.61566E-03-5.53582E-04



 n o d a l   p r i n t   o u t   f o r   t i m e  s t e p   13802                              ( at time 6.8998095E+00 )

 nodal point  x-disp     y-disp      z-disp      x-vel       y-vel       z-vel      x-accl      y-accl      z-accl      x-coor      y-coor      z-coor
    22626  4.46970E-03-3.90334E-02-2.16181E+01-1.16685E-02 2.40228E-02-2.93019E+00-5.07381E-02 3.24680E-02 3.50480E-01 4.79687E+01-2.20688E+01-1.42796E+01



 n o d a l   p r i n t   o u t   f o r   t i m e  s t e p   13802                              ( at time 6.8998095E+00 )

 nodal point  x-rot      y-rot       z-rot       x-rot vel   y-rot vel   z-rot vel   x-rot acc   y-rot acc   z-rot acc
    22626  1.94601E-04 2.06573E-03 3.14649E-04 5.80799E-04 3.78282E-03-2.44053E-04 1.09234E-03 4.37507E-03-6.36147E-04



 n o d a l   p r i n t   o u t   f o r   t i m e  s t e p   14002                              ( at time 6.9997995E+00 )

 nodal point  x-disp     y-disp      z-disp      x-vel       y-vel       z-vel      x-accl      y-accl      z-accl      x-coor      y-coor      z-coor
    22626  3.04049E-03-3.65803E-02-2.19092E+01-1.68426E-02 2.64628E-02-2.89166E+00-5.17455E-02 2.44024E-02 3.85331E-01 4.79672E+01-2.20664E+01-1.45707E+01



 n o d a l   p r i n t   o u t   f o r   t i m e  s t e p   14002                              ( at time 6.9997995E+00 )

 nodal point  x-rot      y-rot       z-rot       x-rot vel   y-rot vel   z-rot vel   x-rot acc   y-rot acc   z-rot acc
    22626  2.58221E-04 2.46684E-03 2.89058E-04 6.89732E-04 4.23997E-03-2.88365E-04 1.08945E-03 4.57199E-03-4.43158E-04



 n o d a l   p r i n t   o u t   f o r   t i m e  s t e p   14202                              ( at time 7.0997895E+00 )

 nodal point  x-disp     y-disp      z-disp      x-vel       y-vel       z-vel      x-accl      y-accl      z-accl      x-coor      y-coor      z-coor
    22626  1.14802E-03-3.39403E-02-2.21965E+01-2.10210E-02 2.62679E-02-2.85231E+00-4.17879E-02-1.94958E-03 3.93569E-01 4.79653E+01-2.20637E+01-1.48580E+01



 n o d a l   p r i n t   o u t   f o r   t i m e  s t e p   14202                              ( at time 7.0997895E+00 )

 nodal point  x-rot      y-rot       z-rot       x-rot vel   y-rot vel   z-rot vel   x-rot acc   y-rot acc   z-rot acc
    22626  3.34197E-04 2.91175E-03 2.58694E-04 8.20599E-04 4.64907E-03-3.24729E-04 1.30879E-03 4.09134E-03-3.63680E-04



 n o d a l   p r i n t   o u t   f o r   t i m e  s t e p   14402                              ( at time 7.1997794E+00 )

 nodal point  x-disp     y-disp      z-disp      x-vel       y-vel       z-vel      x-accl      y-accl      z-accl      x-coor      y-coor      z-coor
    22626 -1.15244E-03-3.12640E-02-2.24795E+01-2.37630E-02 2.66856E-02-2.80939E+00-2.74235E-02 4.17815E-03 4.29268E-01 4.79630E+01-2.20611E+01-1.51410E+01



 n o d a l   p r i n t   o u t   f o r   t i m e  s t e p   14402                              ( at time 7.1997794E+00 )

 nodal point  x-rot      y-rot       z-rot       x-rot vel   y-rot vel   z-rot vel   x-rot acc   y-rot acc   z-rot acc
    22626  4.24197E-04 3.39552E-03 2.25960E-04 9.90416E-04 5.03231E-03-3.22881E-04 1.69835E-03 3.83286E-03 1.84843E-05



 n o d a l   p r i n t   o u t   f o r   t i m e  s t e p   14602                              ( at time 7.2997694E+00 )

 nodal point  x-disp     y-disp      z-disp      x-vel       y-vel       z-vel      x-accl      y-accl      z-accl      x-coor      y-coor      z-coor
    22626 -3.79794E-03-2.84951E-02-2.27582E+01-2.80102E-02 2.77622E-02-2.76487E+00-4.24761E-02 1.07664E-02 4.45201E-01 4.79604E+01-2.20583E+01-1.54197E+01



 n o d a l   p r i n t   o u t   f o r   t i m e  s t e p   14602                              ( at time 7.2997694E+00 )

 nodal point  x-rot      y-rot       z-rot       x-rot vel   y-rot vel   z-rot vel   x-rot acc   y-rot acc   z-rot acc
    22626  5.31168E-04 3.91659E-03 1.91478E-04 1.14825E-03 5.39495E-03-3.59352E-04 1.57853E-03 3.62670E-03-3.64747E-04



 n o d a l   p r i n t   o u t   f o r   t i m e  s t e p   14802                              ( at time 7.3997594E+00 )

 nodal point  x-disp     y-disp      z-disp      x-vel       y-vel       z-vel      x-accl      y-accl      z-accl      x-coor      y-coor      z-coor
    22626 -6.69813E-03-2.57373E-02-2.30322E+01-2.88188E-02 2.63039E-02-2.71680E+00-8.08649E-03-1.45839E-02 4.80743E-01 4.79575E+01-2.20555E+01-1.56937E+01



 n o d a l   p r i n t   o u t   f o r   t i m e  s t e p   14802                              ( at time 7.3997594E+00 )

 nodal point  x-rot      y-rot       z-rot       x-rot vel   y-rot vel   z-rot vel   x-rot acc   y-rot acc   z-rot acc
    22626  6.54217E-04 4.47074E-03 1.55150E-04 1.32437E-03 5.69297E-03-3.44436E-04 1.76139E-03 2.98058E-03 1.49172E-04



 n o d a l   p r i n t   o u t   f o r   t i m e  s t e p   15002                              ( at time 7.4997494E+00 )

 nodal point  x-disp     y-disp      z-disp      x-vel       y-vel       z-vel      x-accl      y-accl      z-accl      x-coor      y-coor      z-coor
    22626 -9.73128E-03-2.30515E-02-2.33014E+01-3.16041E-02 2.75012E-02-2.66789E+00-2.78559E-02 1.19737E-02 4.89230E-01 4.79544E+01-2.20528E+01-1.59629E+01



 n o d a l   p r i n t   o u t   f o r   t i m e  s t e p   15002                              ( at time 7.4997494E+00 )

 nodal point  x-rot      y-rot       z-rot       x-rot vel   y-rot vel   z-rot vel   x-rot acc   y-rot acc   z-rot acc
    22626  7.97129E-04 5.05506E-03 1.20952E-04 1.52479E-03 5.97861E-03-3.26453E-04 2.00432E-03 2.85664E-03 1.79852E-04



 n o d a l   p r i n t   o u t   f o r   t i m e  s t e p   15202                              ( at time 7.5997394E+00 )

 nodal point  x-disp     y-disp      z-disp      x-vel       y-vel       z-vel      x-accl      y-accl      z-accl      x-coor      y-coor      z-coor
    22626 -1.29179E-02-2.04714E-02-2.35656E+01-3.10683E-02 2.53225E-02-2.61623E+00 5.35822E-03-2.17889E-02 5.16565E-01 4.79513E+01-2.20503E+01-1.62271E+01



 n o d a l   p r i n t   o u t   f o r   t i m e  s t e p   15202                              ( at time 7.5997394E+00 )

 nodal point  x-rot      y-rot       z-rot       x-rot vel   y-rot vel   z-rot vel   x-rot acc   y-rot acc   z-rot acc
    22626  9.60784E-04 5.66690E-03 8.55784E-05 1.74246E-03 6.25045E-03-3.96719E-04 2.17695E-03 2.71871E-03-7.02731E-04



 n o d a l   p r i n t   o u t   f o r   t i m e  s t e p   15402                              ( at time 7.6997294E+00 )

 nodal point  x-disp     y-disp      z-disp      x-vel       y-vel       z-vel      x-accl      y-accl      z-accl      x-coor      y-coor      z-coor
    22626 -1.60295E-02-1.80908E-02-2.38245E+01-3.00248E-02 2.21441E-02-2.56104E+00 1.04361E-02-3.17878E-02 5.52023E-01 4.79482E+01-2.20479E+01-1.64860E+01



 n o d a l   p r i n t   o u t   f o r   t i m e  s t e p   15402                              ( at time 7.6997294E+00 )

 nodal point  x-rot      y-rot       z-rot       x-rot vel   y-rot vel   z-rot vel   x-rot acc   y-rot acc   z-rot acc
    22626  1.14697E-03 6.30372E-03 5.23874E-05 1.96667E-03 6.50845E-03-2.61977E-04 2.24235E-03 2.58026E-03 1.34755E-03



 n o d a l   p r i n t   o u t   f o r   t i m e  s t e p   15602                              ( at time 7.7997194E+00 )

 nodal point  x-disp     y-disp      z-disp      x-vel       y-vel       z-vel      x-accl      y-accl      z-accl      x-coor      y-coor      z-coor
    22626 -1.91026E-02-1.57575E-02-2.40779E+01-3.07491E-02 2.30112E-02-2.50829E+00-7.24385E-03 8.67253E-03 5.27516E-01 4.79451E+01-2.20455E+01-1.67394E+01



 n o d a l   p r i n t   o u t   f o r   t i m e  s t e p   15602                              ( at time 7.7997194E+00 )

 nodal point  x-rot      y-rot       z-rot       x-rot vel   y-rot vel   z-rot vel   x-rot acc   y-rot acc   z-rot acc
    22626  1.35831E-03 6.96358E-03 2.24373E-05 2.25237E-03 6.67072E-03-2.92094E-04 2.85724E-03 1.62288E-03-3.01194E-04



 n o d a l   p r i n t   o u t   f o r   t i m e  s t e p   15802                              ( at time 7.8997094E+00 )

 nodal point  x-disp     y-disp      z-disp      x-vel       y-vel       z-vel      x-accl      y-accl      z-accl      x-coor      y-coor      z-coor
    22626 -2.20008E-02-1.34964E-02-2.43256E+01-2.76218E-02 2.27031E-02-2.44717E+00 3.12767E-02-3.08176E-03 6.11229E-01 4.79422E+01-2.20433E+01-1.69871E+01



 n o d a l   p r i n t   o u t   f o r   t i m e  s t e p   15802                              ( at time 7.8997094E+00 )

 nodal point  x-rot      y-rot       z-rot       x-rot vel   y-rot vel   z-rot vel   x-rot acc   y-rot acc   z-rot acc
    22626  1.59735E-03 7.64210E-03-5.67354E-06 2.54491E-03 6.88335E-03-2.83467E-04 2.92575E-03 2.12646E-03 8.62798E-05



 n o d a l   p r i n t   o u t   f o r   t i m e  s t e p   16002                              ( at time 7.9996994E+00 )

 nodal point  x-disp     y-disp      z-disp      x-vel       y-vel       z-vel      x-accl      y-accl      z-accl      x-coor      y-coor      z-coor
    22626 -2.44705E-02-1.13023E-02-2.45672E+01-2.16407E-02 2.01481E-02-2.38533E+00 5.98162E-02-2.55519E-02 6.18513E-01 4.79397E+01-2.20411E+01-1.72287E+01



 n o d a l   p r i n t   o u t   f o r   t i m e  s t e p   16002                              ( at time 7.9996994E+00 )

 nodal point  x-rot      y-rot       z-rot       x-rot vel   y-rot vel   z-rot vel   x-rot acc   y-rot acc   z-rot acc
    22626  1.86607E-03 8.33864E-03-2.88095E-05 2.84686E-03 7.06425E-03-1.53639E-04 3.01979E-03 1.80923E-03 1.29840E-03



 n o d a l   p r i n t   o u t   f o r   t i m e  s t e p   16202                              ( at time 8.0996894E+00 )

 nodal point  x-disp     y-disp      z-disp      x-vel       y-vel       z-vel      x-accl      y-accl      z-accl      x-coor      y-coor      z-coor
    22626 -2.65158E-02-9.14785E-03-2.48027E+01-1.84396E-02 2.37316E-02-2.32393E+00 3.20142E-02 3.58387E-02 6.14009E-01 4.79377E+01-2.20389E+01-1.74642E+01



 n o d a l   p r i n t   o u t   f o r   t i m e  s t e p   16202                              ( at time 8.0996894E+00 )

 nodal point  x-rot      y-rot       z-rot       x-rot vel   y-rot vel   z-rot vel   x-rot acc   y-rot acc   z-rot acc
    22626  2.16615E-03 9.04841E-03-4.67688E-05 3.17992E-03 7.14341E-03-1.79190E-04 3.33087E-03 7.91588E-04-2.55539E-04



 n o d a l   p r i n t   o u t   f o r   t i m e  s t e p   16402                              ( at time 8.1996794E+00 )

 nodal point  x-disp     y-disp      z-disp      x-vel       y-vel       z-vel      x-accl      y-accl      z-accl      x-coor      y-coor      z-coor
    22626 -2.80179E-02-6.79894E-03-2.50316E+01-1.17998E-02 2.45483E-02-2.25620E+00 6.64052E-02 8.16746E-03 6.77404E-01 4.79362E+01-2.20366E+01-1.76931E+01



 n o d a l   p r i n t   o u t   f o r   t i m e  s t e p   16402                              ( at time 8.1996794E+00 )

 nodal point  x-rot      y-rot       z-rot       x-rot vel   y-rot vel   z-rot vel   x-rot acc   y-rot acc   z-rot acc
    22626  2.50121E-03 9.77353E-03-6.19866E-05 3.53519E-03 7.35602E-03-1.27814E-04 3.55312E-03 2.12634E-03 5.13815E-04



 n o d a l   p r i n t   o u t   f o r   t i m e  s t e p   16602                              ( at time 8.2996694E+00 )

 nodal point  x-disp     y-disp      z-disp      x-vel       y-vel       z-vel      x-accl      y-accl      z-accl      x-coor      y-coor      z-coor
    22626 -2.87115E-02-4.28887E-03-2.52539E+01-1.81772E-03 2.36544E-02-2.18857E+00 9.98307E-02-8.93950E-03 6.76376E-01 4.79355E+01-2.20341E+01-1.79154E+01



 n o d a l   p r i n t   o u t   f o r   t i m e  s t e p   16602                              ( at time 8.2996694E+00 )

 nodal point  x-rot      y-rot       z-rot       x-rot vel   y-rot vel   z-rot vel   x-rot acc   y-rot acc   z-rot acc
    22626  2.87113E-03 1.05113E-02-7.14498E-05 3.85208E-03 7.43408E-03-3.14413E-05 3.16919E-03 7.80662E-04 9.63821E-04



 n o d a l   p r i n t   o u t   f o r   t i m e  s t e p   16802                              ( at time 8.3996594E+00 )

 nodal point  x-disp     y-disp      z-disp      x-vel       y-vel       z-vel      x-accl      y-accl      z-accl      x-coor      y-coor      z-coor
    22626 -2.84467E-02-1.61393E-03-2.54692E+01 5.39195E-03 2.80064E-02-2.11647E+00 7.21040E-02 4.35243E-02 7.21086E-01 4.79357E+01-2.20314E+01-1.81307E+01



 n o d a l   p r i n t   o u t   f o r   t i m e  s t e p   16802                              ( at time 8.3996594E+00 )

 nodal point  x-rot      y-rot       z-rot       x-rot vel   y-rot vel   z-rot vel   x-rot acc   y-rot acc   z-rot acc
    22626  3.27673E-03 1.12595E-02-7.79067E-05 4.24553E-03 7.57762E-03-5.46979E-05 3.93489E-03 1.43561E-03-2.32590E-04



 n o d a l   p r i n t   o u t   f o r   t i m e  s t e p   17002                              ( at time 8.4996494E+00 )

 nodal point  x-disp     y-disp      z-disp      x-vel       y-vel       z-vel      x-accl      y-accl      z-accl      x-coor      y-coor      z-coor
    22626 -2.72824E-02 1.24821E-03-2.56770E+01 1.62114E-02 2.85080E-02-2.04061E+00 1.08205E-01 5.01614E-03 7.58663E-01 4.79369E+01-2.20285E+01-1.83385E+01



 n o d a l   p r i n t   o u t   f o r   t i m e  s t e p   17002                              ( at time 8.4996494E+00 )

 nodal point  x-rot      y-rot       z-rot       x-rot vel   y-rot vel   z-rot vel   x-rot acc   y-rot acc   z-rot acc
    22626  3.72139E-03 1.20221E-02-8.09865E-05 4.64736E-03 7.70918E-03 4.45901E-05 4.01876E-03 1.31570E-03 9.92981E-04



 n o d a l   p r i n t   o u t   f o r   t i m e  s t e p   17202                              ( at time 8.5996394E+00 )

 nodal point  x-disp     y-disp      z-disp      x-vel       y-vel       z-vel      x-accl      y-accl      z-accl      x-coor      y-coor      z-coor
    22626 -2.49357E-02 4.25276E-03-2.58774E+01 2.94272E-02 3.15675E-02-1.96738E+00 1.32171E-01 3.05979E-02 7.32418E-01 4.79392E+01-2.20255E+01-1.85389E+01



 n o d a l   p r i n t   o u t   f o r   t i m e  s t e p   17202                              ( at time 8.5996394E+00 )

 nodal point  x-rot      y-rot       z-rot       x-rot vel   y-rot vel   z-rot vel   x-rot acc   y-rot acc   z-rot acc
    22626  4.20359E-03 1.27951E-02-7.80199E-05 5.00834E-03 7.72751E-03 5.15724E-05 3.61007E-03 1.83317E-04 6.98298E-05



 n o d a l   p r i n t   o u t   f o r   t i m e  s t e p   17402                              ( at time 8.6996293E+00 )

 nodal point  x-disp     y-disp      z-disp      x-vel       y-vel       z-vel      x-accl      y-accl      z-accl      x-coor      y-coor      z-coor
    22626 -2.13363E-02 7.43434E-03-2.60700E+01 4.20904E-02 3.53669E-02-1.88558E+00 1.26644E-01 3.79975E-02 8.17981E-01 4.79428E+01-2.20224E+01-1.87315E+01



 n o d a l   p r i n t   o u t   f o r   t i m e  s t e p   17402                              ( at time 8.6996293E+00 )

 nodal point  x-rot      y-rot       z-rot       x-rot vel   y-rot vel   z-rot vel   x-rot acc   y-rot acc   z-rot acc
    22626  4.72533E-03 1.35762E-02-7.20886E-05 5.42728E-03 7.85692E-03 2.72484E-05 4.18986E-03 1.29423E-03-2.43263E-04



 n o d a l   p r i n t   o u t   f o r   t i m e  s t e p   17602                              ( at time 8.7996193E+00 )

 nodal point  x-disp     y-disp      z-disp      x-vel       y-vel       z-vel      x-accl      y-accl      z-accl      x-coor      y-coor      z-coor
    22626 -1.64259E-02 1.08240E-02-2.62547E+01 5.42648E-02 3.26736E-02-1.80409E+00 1.21757E-01-2.69355E-02 8.15046E-01 4.79478E+01-2.20190E+01-1.89162E+01



 n o d a l   p r i n t   o u t   f o r   t i m e  s t e p   17602                              ( at time 8.7996193E+00 )

 nodal point  x-rot      y-rot       z-rot       x-rot vel   y-rot vel   z-rot vel   x-rot acc   y-rot acc   z-rot acc
    22626  5.28886E-03 1.43645E-02-6.15910E-05 5.81777E-03 7.97246E-03 1.64407E-04 3.90527E-03 1.15552E-03 1.37173E-03



 n o d a l   p r i n t   o u t   f o r   t i m e  s t e p   17802                              ( at time 8.8996093E+00 )

 nodal point  x-disp     y-disp      z-disp      x-vel       y-vel       z-vel      x-accl      y-accl      z-accl      x-coor      y-coor      z-coor
    22626 -1.02641E-02 1.44257E-02-2.64312E+01 7.08296E-02 3.65617E-02-1.72849E+00 1.65665E-01 3.88849E-02 7.56099E-01 4.79539E+01-2.20154E+01-1.90927E+01



 n o d a l   p r i n t   o u t   f o r   t i m e  s t e p   17802                              ( at time 8.8996093E+00 )

 nodal point  x-rot      y-rot       z-rot       x-rot vel   y-rot vel   z-rot vel   x-rot acc   y-rot acc   z-rot acc
    22626  5.89241E-03 1.51635E-02-5.07257E-05 6.21460E-03 8.01134E-03 1.45406E-04 3.96867E-03 3.88885E-04-1.90030E-04



 n o d a l   p r i n t   o u t   f o r   t i m e  s t e p   18002                              ( at time 8.9995993E+00 )

 nodal point  x-disp     y-disp      z-disp      x-vel       y-vel       z-vel      x-accl      y-accl      z-accl      x-coor      y-coor      z-coor
    22626 -2.60735E-03 1.82448E-02-2.65995E+01 8.26791E-02 3.65186E-02-1.64169E+00 1.18506E-01-4.30799E-04 8.68003E-01 4.79616E+01-2.20115E+01-1.92610E+01



 n o d a l   p r i n t   o u t   f o r   t i m e  s t e p   18002                              ( at time 8.9995993E+00 )

 nodal point  x-rot      y-rot       z-rot       x-rot vel   y-rot vel   z-rot vel   x-rot acc   y-rot acc   z-rot acc
    22626  6.53608E-03 1.59715E-02-3.67997E-05 6.65544E-03 8.15837E-03 1.74219E-04 4.40882E-03 1.47041E-03 2.88155E-04



 n o d a l   p r i n t   o u t   f o r   t i m e  s t e p   18202                              ( at time 9.0995893E+00 )

 nodal point  x-disp     y-disp      z-disp      x-vel       y-vel       z-vel      x-accl      y-accl      z-accl      x-coor      y-coor      z-coor
    22626  6.49880E-03 2.20822E-02-2.67596E+01 9.77554E-02 4.16655E-02-1.55999E+00 1.50778E-01 5.14743E-02 8.17101E-01 4.79707E+01-2.20077E+01-1.94211E+01



 n o d a l   p r i n t   o u t   f o r   t i m e  s t e p   18202                              ( at time 9.0995893E+00 )

 nodal point  x-rot      y-rot       z-rot       x-rot vel   y-rot vel   z-rot vel   x-rot acc   y-rot acc   z-rot acc
    22626  7.22068E-03 1.67861E-02-1.67404E-05 7.03328E-03 8.17255E-03 1.70060E-04 3.77883E-03 1.41762E-04-4.15864E-05



 n o d a l   p r i n t   o u t   f o r   t i m e  s t e p   18402                              ( at time 9.1995793E+00 )

 nodal point  x-disp     y-disp      z-disp      x-vel       y-vel       z-vel      x-accl      y-accl      z-accl      x-coor      y-coor      z-coor
    22626  1.69729E-02 2.60393E-02-2.69113E+01 1.15038E-01 3.95120E-02-1.47789E+00 1.72848E-01-2.15378E-02 8.21084E-01 4.79812E+01-2.20037E+01-1.95728E+01



 n o d a l   p r i n t   o u t   f o r   t i m e  s t e p   18402                              ( at time 9.1995793E+00 )

 nodal point  x-rot      y-rot       z-rot       x-rot vel   y-rot vel   z-rot vel   x-rot acc   y-rot acc   z-rot acc
    22626  7.94520E-03 1.76082E-02 1.84001E-06 7.45549E-03 8.23831E-03 2.30211E-04 4.22255E-03 6.57692E-04 6.01562E-04



 n o d a l   p r i n t   o u t   f o r   t i m e  s t e p   18602                              ( at time 9.2995693E+00 )

 nodal point  x-disp     y-disp      z-disp      x-vel       y-vel       z-vel      x-accl      y-accl      z-accl      x-coor      y-coor      z-coor
    22626  2.89179E-02 3.01745E-02-2.70547E+01 1.23282E-01 4.27719E-02-1.38985E+00 8.24457E-02 3.26030E-02 8.80554E-01 4.79931E+01-2.19996E+01-1.97162E+01



 n o d a l   p r i n t   o u t   f o r   t i m e  s t e p   18602                              ( at time 9.2995693E+00 )

 nodal point  x-rot      y-rot       z-rot       x-rot vel   y-rot vel   z-rot vel   x-rot acc   y-rot acc   z-rot acc
    22626  8.70712E-03 1.84407E-02 2.32015E-05 7.84766E-03 8.43763E-03 2.33157E-04 3.92210E-03 1.99345E-03 2.94641E-05



 n o d a l   p r i n t   o u t   f o r   t i m e  s t e p   18802                              ( at time 9.3995593E+00 )

 nodal point  x-disp     y-disp      z-disp      x-vel       y-vel       z-vel      x-accl      y-accl      z-accl      x-coor      y-coor      z-coor
    22626  4.21689E-02 3.42630E-02-2.71900E+01 1.37681E-01 3.99719E-02-1.31178E+00 1.44006E-01-2.80036E-02 7.80754E-01 4.80063E+01-2.19955E+01-1.98515E+01



 n o d a l   p r i n t   o u t   f o r   t i m e  s t e p   18802                              ( at time 9.3995593E+00 )

 nodal point  x-rot      y-rot       z-rot       x-rot vel   y-rot vel   z-rot vel   x-rot acc   y-rot acc   z-rot acc
    22626  9.51012E-03 1.92789E-02 4.49071E-05 8.21708E-03 8.37210E-03 2.15836E-04 3.69456E-03-6.55363E-04-1.73219E-04



 n o d a l   p r i n t   o u t   f o r   t i m e  s t e p   19002                              ( at time 9.4995493E+00 )

 nodal point  x-disp     y-disp      z-disp      x-vel       y-vel       z-vel      x-accl      y-accl      z-accl      x-coor      y-coor      z-coor
    22626  5.68197E-02 3.84581E-02-2.73167E+01 1.55131E-01 4.02533E-02-1.22835E+00 1.74517E-01 2.81441E-03 8.34324E-01 4.80210E+01-2.19913E+01-1.99782E+01



 n o d a l   p r i n t   o u t   f o r   t i m e  s t e p   19002                              ( at time 9.4995493E+00 )

 nodal point  x-rot      y-rot       z-rot       x-rot vel   y-rot vel   z-rot vel   x-rot acc   y-rot acc   z-rot acc
    22626  1.03493E-02 2.01230E-02 6.72109E-05 8.59378E-03 8.44352E-03 3.01609E-04 3.76741E-03 7.14276E-04 8.57809E-04



 n o d a l   p r i n t   o u t   f o r   t i m e  s t e p   19202                              ( at time 9.5995393E+00 )

 nodal point  x-disp     y-disp      z-disp      x-vel       y-vel       z-vel      x-accl      y-accl      z-accl      x-coor      y-coor      z-coor
    22626  7.28281E-02 4.25999E-02-2.74351E+01 1.64564E-01 4.08670E-02-1.14245E+00 9.43378E-02 6.13779E-03 8.59126E-01 4.80370E+01-2.19872E+01-2.00966E+01



 n o d a l   p r i n t   o u t   f o r   t i m e  s t e p   19202                              ( at time 9.5995393E+00 )

 nodal point  x-rot      y-rot       z-rot       x-rot vel   y-rot vel   z-rot vel   x-rot acc   y-rot acc   z-rot acc
    22626  1.12297E-02 2.09766E-02 9.18501E-05 8.94793E-03 8.66829E-03 2.49895E-04 3.54175E-03 2.24786E-03-5.17186E-04



 n o d a l   p r i n t   o u t   f o r   t i m e  s t e p   19402                              ( at time 9.6995293E+00 )

 nodal point  x-disp     y-disp      z-disp      x-vel       y-vel       z-vel      x-accl      y-accl      z-accl      x-coor      y-coor      z-coor
    22626  9.01678E-02 4.65881E-02-2.75454E+01 1.78410E-01 3.99891E-02-1.05967E+00 1.38475E-01-8.78002E-03 8.27844E-01 4.80543E+01-2.19832E+01-2.02069E+01



 n o d a l   p r i n t   o u t   f o r   t i m e  s t e p   19402                              ( at time 9.6995293E+00 )

 nodal point  x-rot      y-rot       z-rot       x-rot vel   y-rot vel   z-rot vel   x-rot acc   y-rot acc   z-rot acc
    22626  1.21463E-02 2.18379E-02 1.15092E-04 9.33578E-03 8.66538E-03 2.27136E-04 3.87894E-03-2.91161E-05-2.27613E-04



 n o d a l   p r i n t   o u t   f o r   t i m e  s t e p   19602                              ( at time 9.7995193E+00 )

 nodal point  x-disp     y-disp      z-disp      x-vel       y-vel       z-vel      x-accl      y-accl      z-accl      x-coor      y-coor      z-coor
    22626  1.08735E-01 5.06178E-02-2.76473E+01 1.91927E-01 3.79151E-02-9.78012E-01 1.35178E-01-2.07420E-02 8.16703E-01 4.80729E+01-2.19792E+01-2.03088E+01



 n o d a l   p r i n t   o u t   f o r   t i m e  s t e p   19602                              ( at time 9.7995193E+00 )

 nodal point  x-rot      y-rot       z-rot       x-rot vel   y-rot vel   z-rot vel   x-rot acc   y-rot acc   z-rot acc
    22626  1.31014E-02 2.27082E-02 1.35243E-04 9.72099E-03 8.74828E-03 2.24465E-04 3.85242E-03 8.29156E-04-2.67072E-05



 n o d a l   p r i n t   o u t   f o r   t i m e  s t e p   19802                              ( at time 9.8995093E+00 )

 nodal point  x-disp     y-disp      z-disp      x-vel       y-vel       z-vel      x-accl      y-accl      z-accl      x-coor      y-coor      z-coor
    22626  1.28310E-01 5.44248E-02-2.77407E+01 2.02115E-01 3.76593E-02-8.92928E-01 1.01898E-01-2.55808E-03 8.50918E-01 4.80925E+01-2.19754E+01-2.04022E+01



 n o d a l   p r i n t   o u t   f o r   t i m e  s t e p   19802                              ( at time 9.8995093E+00 )

 nodal point  x-rot      y-rot       z-rot       x-rot vel   y-rot vel   z-rot vel   x-rot acc   y-rot acc   z-rot acc
    22626  1.40903E-02 2.35868E-02 1.53210E-04 1.00715E-02 8.85192E-03 1.34597E-04 3.50560E-03 1.03651E-03-8.98779E-04



 n o d a l   p r i n t   o u t   f o r   t i m e  s t e p   20003                              ( at time 9.9999992E+00 )

 nodal point  x-disp     y-disp      z-disp      x-vel       y-vel       z-vel      x-accl      y-accl      z-accl      x-coor      y-coor      z-coor
[...]
    22626  2.07184E-01 1.33702E-01-2.79550E-02 1.76586E-02 7.52871E-03-4.95401E-03-2.13255E-04-3.19007E-06 1.87860E-04



 n o d a l   p r i n t   o u t   f o r   t i m e  s t e p   45205                              ( at time 2.2599738E+01 )

 nodal point  x-disp     y-disp      z-disp      x-vel       y-vel       z-vel      x-accl      y-accl      z-accl      x-coor      y-coor      z-coor
    22626  4.35473E+00-1.80367E+00-2.22377E+01 2.51353E-01-2.22185E-01 5.17834E-01 4.24782E-03 1.60672E-02 3.65052E-03 5.23189E+01-2.38335E+01-1.48992E+01



 n o d a l   p r i n t   o u t   f o r   t i m e  s t e p   45205                              ( at time 2.2599738E+01 )

 nodal point  x-rot      y-rot       z-rot       x-rot vel   y-rot vel   z-rot vel   x-rot acc   y-rot acc   z-rot acc
    22626  2.08948E-01 1.34455E-01-2.84513E-02 1.76234E-02 7.55568E-03-4.95255E-03-3.52706E-04 2.69731E-04 1.45858E-05



 n o d a l   p r i n t   o u t   f o r   t i m e  s t e p   45405                              ( at time 2.2699728E+01 )

 nodal point  x-disp     y-disp      z-disp      x-vel       y-vel       z-vel      x-accl      y-accl      z-accl      x-coor      y-coor      z-coor
    22626  4.37980E+00-1.82582E+00-2.21861E+01 2.50473E-01-2.21912E-01 5.15404E-01-8.80160E-03 2.73094E-03-2.42963E-02 5.23440E+01-2.38556E+01-1.48476E+01



 n o d a l   p r i n t   o u t   f o r   t i m e  s t e p   45405                              ( at time 2.2699728E+01 )

 nodal point  x-rot      y-rot       z-rot       x-rot vel   y-rot vel   z-rot vel   x-rot acc   y-rot acc   z-rot acc
    22626  2.10708E-01 1.35209E-01-2.89466E-02 1.75929E-02 7.53622E-03-4.92757E-03-3.04558E-04-1.94626E-04 2.49841E-04



 n o d a l   p r i n t   o u t   f o r   t i m e  s t e p   45605                              ( at time 2.2799718E+01 )

 nodal point  x-disp     y-disp      z-disp      x-vel       y-vel       z-vel      x-accl      y-accl      z-accl      x-coor      y-coor      z-coor
    22626  4.40490E+00-1.84790E+00-2.21345E+01 2.51671E-01-2.20365E-01 5.14108E-01 1.19840E-02 1.54787E-02-1.29652E-02 5.23691E+01-2.38777E+01-1.47960E+01



 n o d a l   p r i n t   o u t   f o r   t i m e  s t e p   45605                              ( at time 2.2799718E+01 )

 nodal point  x-rot      y-rot       z-rot       x-rot vel   y-rot vel   z-rot vel   x-rot acc   y-rot acc   z-rot acc
    22626  2.12466E-01 1.35962E-01-2.94385E-02 1.75666E-02 7.51706E-03-4.90165E-03-2.63141E-04-1.91619E-04 2.59257E-04



 n o d a l   p r i n t   o u t   f o r   t i m e  s t e p   45805                              ( at time 2.2899708E+01 )

 nodal point  x-disp     y-disp      z-disp      x-vel       y-vel       z-vel      x-accl      y-accl      z-accl      x-coor      y-coor      z-coor
    22626  4.43006E+00-1.86993E+00-2.20830E+01 2.51793E-01-2.20095E-01 5.15367E-01 1.22441E-03 2.69547E-03 1.25947E-02 5.23942E+01-2.38997E+01-1.47445E+01



 n o d a l   p r i n t   o u t   f o r   t i m e  s t e p   45805                              ( at time 2.2899708E+01 )

 nodal point  x-rot      y-rot       z-rot       x-rot vel   y-rot vel   z-rot vel   x-rot acc   y-rot acc   z-rot acc
    22626  2.14220E-01 1.36713E-01-2.99281E-02 1.75182E-02 7.53836E-03-4.88005E-03-4.83764E-04 2.13045E-04 2.15979E-04



 n o d a l   p r i n t   o u t   f o r   t i m e  s t e p   46005                              ( at time 2.2999698E+01 )

 nodal point  x-disp     y-disp      z-disp      x-vel       y-vel       z-vel      x-accl      y-accl      z-accl      x-coor      y-coor      z-coor
    22626  4.45524E+00-1.89193E+00-2.20317E+01 2.52862E-01-2.18688E-01 5.14032E-01 1.06869E-02 1.40704E-02-1.33539E-02 5.24194E+01-2.39217E+01-1.46932E+01



 n o d a l   p r i n t   o u t   f o r   t i m e  s t e p   46005                              ( at time 2.2999698E+01 )

 nodal point  x-rot      y-rot       z-rot       x-rot vel   y-rot vel   z-rot vel   x-rot acc   y-rot acc   z-rot acc
    22626  2.15971E-01 1.37465E-01-3.04145E-02 1.75102E-02 7.49945E-03-4.85242E-03-8.02874E-05-3.89147E-04 2.76400E-04



 n o d a l   p r i n t   o u t   f o r   t i m e  s t e p   46205                              ( at time 2.3099688E+01 )

 nodal point  x-disp     y-disp      z-disp      x-vel       y-vel       z-vel      x-accl      y-accl      z-accl      x-coor      y-coor      z-coor
    22626  4.48055E+00-1.91384E+00-2.19803E+01 2.52256E-01-2.19828E-01 5.13617E-01-6.06127E-03-1.14021E-02-4.15669E-03 5.24447E+01-2.39436E+01-1.46418E+01



 n o d a l   p r i n t   o u t   f o r   t i m e  s t e p   46205                              ( at time 2.3099688E+01 )

 nodal point  x-rot      y-rot       z-rot       x-rot vel   y-rot vel   z-rot vel   x-rot acc   y-rot acc   z-rot acc
    22626  2.17719E-01 1.38216E-01-3.08972E-02 1.74692E-02 7.50902E-03-4.81126E-03-4.09995E-04 9.56528E-05 4.11611E-04



 n o d a l   p r i n t   o u t   f o r   t i m e  s t e p   46405                              ( at time 2.3199678E+01 )

 nodal point  x-disp     y-disp      z-disp      x-vel       y-vel       z-vel      x-accl      y-accl      z-accl      x-coor      y-coor      z-coor
    22626  4.50595E+00-1.93565E+00-2.19290E+01 2.54022E-01-2.18047E-01 5.12884E-01 1.76646E-02 1.78175E-02-7.32847E-03 5.24701E+01-2.39654E+01-1.45905E+01



 n o d a l   p r i n t   o u t   f o r   t i m e  s t e p   46405                              ( at time 2.3199678E+01 )

 nodal point  x-rot      y-rot       z-rot       x-rot vel   y-rot vel   z-rot vel   x-rot acc   y-rot acc   z-rot acc
    22626  2.19464E-01 1.38966E-01-3.13776E-02 1.74315E-02 7.48829E-03-4.78008E-03-3.77518E-04-2.07266E-04 3.11803E-04



 n o d a l   p r i n t   o u t   f o r   t i m e  s t e p   46605                              ( at time 2.3299668E+01 )

 nodal point  x-disp     y-disp      z-disp      x-vel       y-vel       z-vel      x-accl      y-accl      z-accl      x-coor      y-coor      z-coor
    22626  4.53142E+00-1.95748E+00-2.18777E+01 2.55763E-01-2.17677E-01 5.12996E-01 1.74059E-02 3.69605E-03 1.12188E-03 5.24956E+01-2.39873E+01-1.45392E+01



 n o d a l   p r i n t   o u t   f o r   t i m e  s t e p   46605                              ( at time 2.3299668E+01 )

 nodal point  x-rot      y-rot       z-rot       x-rot vel   y-rot vel   z-rot vel   x-rot acc   y-rot acc   z-rot acc
    22626  2.21205E-01 1.39715E-01-3.18538E-02 1.74011E-02 7.49008E-03-4.74324E-03-3.03458E-04 1.79160E-05 3.68509E-04



 n o d a l   p r i n t   o u t   f o r   t i m e  s t e p   46805                              ( at time 2.3399658E+01 )

 nodal point  x-disp     y-disp      z-disp      x-vel       y-vel       z-vel      x-accl      y-accl      z-accl      x-coor      y-coor      z-coor
    22626  4.55705E+00-1.97924E+00-2.18264E+01 2.56615E-01-2.17752E-01 5.12284E-01 8.52097E-03-7.52727E-04-7.11685E-03 5.25212E+01-2.40090E+01-1.44879E+01



 n o d a l   p r i n t   o u t   f o r   t i m e  s t e p   46805                              ( at time 2.3399658E+01 )

 nodal point  x-rot      y-rot       z-rot       x-rot vel   y-rot vel   z-rot vel   x-rot acc   y-rot acc   z-rot acc
    22626  2.22944E-01 1.40464E-01-3.23267E-02 1.73701E-02 7.48997E-03-4.70620E-03-3.10364E-04-1.08975E-06 3.70416E-04



 n o d a l   p r i n t   o u t   f o r   t i m e  s t e p   47005                              ( at time 2.3499648E+01 )

 nodal point  x-disp     y-disp      z-disp      x-vel       y-vel       z-vel      x-accl      y-accl      z-accl      x-coor      y-coor      z-coor
    22626  4.58280E+00-2.00097E+00-2.17751E+01 2.57660E-01-2.16882E-01 5.11622E-01 1.04577E-02 8.70069E-03-6.62089E-03 5.25470E+01-2.40308E+01-1.44366E+01



 n o d a l   p r i n t   o u t   f o r   t i m e  s t e p   47005                              ( at time 2.3499648E+01 )

 nodal point  x-rot      y-rot       z-rot       x-rot vel   y-rot vel   z-rot vel   x-rot acc   y-rot acc   z-rot acc
    22626  2.24680E-01 1.41213E-01-3.27960E-02 1.73534E-02 7.47798E-03-4.67500E-03-1.67318E-04-1.19961E-04 3.12022E-04



 n o d a l   p r i n t   o u t   f o r   t i m e  s t e p   47205                              ( at time 2.3599638E+01 )

 nodal point  x-disp     y-disp      z-disp      x-vel       y-vel       z-vel      x-accl      y-accl      z-accl      x-coor      y-coor      z-coor
    22626  4.60865E+00-2.02262E+00-2.17239E+01 2.59000E-01-2.16617E-01 5.13607E-01 1.33985E-02 2.65196E-03 1.98488E-02 5.25728E+01-2.40524E+01-1.43854E+01



 n o d a l   p r i n t   o u t   f o r   t i m e  s t e p   47205                              ( at time 2.3599638E+01 )

 nodal point  x-rot      y-rot       z-rot       x-rot vel   y-rot vel   z-rot vel   x-rot acc   y-rot acc   z-rot acc
    22626  2.26413E-01 1.41960E-01-3.32622E-02 1.73219E-02 7.49106E-03-4.64546E-03-3.14542E-04 1.30809E-04 2.95425E-04



 n o d a l   p r i n t   o u t   f o r   t i m e  s t e p   47405                              ( at time 2.3699628E+01 )

 nodal point  x-disp     y-disp      z-disp      x-vel       y-vel       z-vel      x-accl      y-accl      z-accl      x-coor      y-coor      z-coor
    22626  4.63461E+00-2.04429E+00-2.16728E+01 2.60243E-01-2.16279E-01 5.11119E-01 1.24317E-02 3.38720E-03-2.48836E-02 5.25988E+01-2.40741E+01-1.43343E+01



 n o d a l   p r i n t   o u t   f o r   t i m e  s t e p   47405                              ( at time 2.3699628E+01 )

 nodal point  x-rot      y-rot       z-rot       x-rot vel   y-rot vel   z-rot vel   x-rot acc   y-rot acc   z-rot acc
    22626  2.28144E-01 1.42706E-01-3.37250E-02 1.73045E-02 7.46409E-03-4.60998E-03-1.73745E-04-2.69731E-04 3.54801E-04



 n o d a l   p r i n t   o u t   f o r   t i m e  s t e p   47605                              ( at time 2.3799618E+01 )

 nodal point  x-disp     y-disp      z-disp      x-vel       y-vel       z-vel      x-accl      y-accl      z-accl      x-coor      y-coor      z-coor
    22626  4.66072E+00-2.06585E+00-2.16216E+01 2.60921E-01-2.16183E-01 5.12433E-01 6.77661E-03 9.59741E-04 1.31431E-02 5.26249E+01-2.40956E+01-1.42831E+01



 n o d a l   p r i n t   o u t   f o r   t i m e  s t e p   47605                              ( at time 2.3799618E+01 )

 nodal point  x-rot      y-rot       z-rot       x-rot vel   y-rot vel   z-rot vel   x-rot acc   y-rot acc   z-rot acc
    22626  2.29873E-01 1.43452E-01-3.41847E-02 1.72742E-02 7.45404E-03-4.57629E-03-3.03682E-04-1.00515E-04 3.36976E-04



 n o d a l   p r i n t   o u t   f o r   t i m e  s t e p   47805                              ( at time 2.3899608E+01 )

 nodal point  x-disp     y-disp      z-disp      x-vel       y-vel       z-vel      x-accl      y-accl      z-accl      x-coor      y-coor      z-coor
    22626  4.68692E+00-2.08736E+00-2.15704E+01 2.63050E-01-2.14380E-01 5.12263E-01 2.12993E-02 1.80282E-02-1.69710E-03 5.26511E+01-2.41171E+01-1.42319E+01



 n o d a l   p r i n t   o u t   f o r   t i m e  s t e p   47805                              ( at time 2.3899608E+01 )

 nodal point  x-rot      y-rot       z-rot       x-rot vel   y-rot vel   z-rot vel   x-rot acc   y-rot acc   z-rot acc
    22626  2.31600E-01 1.44198E-01-3.46417E-02 1.72523E-02 7.44870E-03-4.56551E-03-2.18732E-04-5.34349E-05 1.07759E-04



 n o d a l   p r i n t   o u t   f o r   t i m e  s t e p   48005                              ( at time 2.3999598E+01 )

 nodal point  x-disp     y-disp      z-disp      x-vel       y-vel       z-vel      x-accl      y-accl      z-accl      x-coor      y-coor      z-coor
    22626  4.71322E+00-2.10886E+00-2.15191E+01 2.63246E-01-2.14292E-01 5.12184E-01 1.95167E-03 8.83140E-04-7.88657E-04 5.26774E+01-2.41386E+01-1.41806E+01



 n o d a l   p r i n t   o u t   f o r   t i m e  s t e p   48005                              ( at time 2.3999598E+01 )

 nodal point  x-rot      y-rot       z-rot       x-rot vel   y-rot vel   z-rot vel   x-rot acc   y-rot acc   z-rot acc
    22626  2.33324E-01 1.44942E-01-3.50949E-02 1.72310E-02 7.43630E-03-4.52669E-03-2.12756E-04-1.24005E-04 3.88279E-04



 n o d a l   p r i n t   o u t   f o r   t i m e  s t e p   48205                              ( at time 2.4099588E+01 )

 nodal point  x-disp     y-disp      z-disp      x-vel       y-vel       z-vel      x-accl      y-accl      z-accl      x-coor      y-coor      z-coor
    22626  4.73963E+00-2.13018E+00-2.14679E+01 2.64634E-01-2.13074E-01 5.12035E-01 1.38814E-02 1.21766E-02-1.49443E-03 5.27038E+01-2.41600E+01-1.41294E+01



 n o d a l   p r i n t   o u t   f o r   t i m e  s t e p   48205                              ( at time 2.4099588E+01 )

 nodal point  x-rot      y-rot       z-rot       x-rot vel   y-rot vel   z-rot vel   x-rot acc   y-rot acc   z-rot acc
    22626  2.35047E-01 1.45686E-01-3.55468E-02 1.72292E-02 7.43241E-03-4.50082E-03-1.84791E-05-3.89002E-05 2.58675E-04



 n o d a l   p r i n t   o u t   f o r   t i m e  s t e p   48405                              ( at time 2.4199578E+01 )

 nodal point  x-disp     y-disp      z-disp      x-vel       y-vel       z-vel      x-accl      y-accl      z-accl      x-coor      y-coor      z-coor
    22626  4.76608E+00-2.15145E+00-2.14166E+01 2.65386E-01-2.11976E-01 5.13111E-01 7.53009E-03 1.09844E-02 1.07604E-02 5.27303E+01-2.41812E+01-1.40781E+01



 n o d a l   p r i n t   o u t   f o r   t i m e  s t e p   48405                              ( at time 2.4199578E+01 )

 nodal point  x-rot      y-rot       z-rot       x-rot vel   y-rot vel   z-rot vel   x-rot acc   y-rot acc   z-rot acc
    22626  2.36768E-01 1.46429E-01-3.59964E-02 1.72124E-02 7.43270E-03-4.48165E-03-1.67489E-04 2.89673E-06 1.91781E-04



 n o d a l   p r i n t   o u t   f o r   t i m e  s t e p   48605                              ( at time 2.4299568E+01 )

 nodal point  x-disp     y-disp      z-disp      x-vel       y-vel       z-vel      x-accl      y-accl      z-accl      x-coor      y-coor      z-coor
    22626  4.79261E+00-2.17264E+00-2.13654E+01 2.65623E-01-2.11672E-01 5.12645E-01 2.36592E-03 3.03788E-03-4.65674E-03 5.27568E+01-2.42024E+01-1.40269E+01



 n o d a l   p r i n t   o u t   f o r   t i m e  s t e p   48605                              ( at time 2.4299568E+01 )

 nodal point  x-rot      y-rot       z-rot       x-rot vel   y-rot vel   z-rot vel   x-rot acc   y-rot acc   z-rot acc
    22626  2.38488E-01 1.47171E-01-3.64435E-02 1.71961E-02 7.41529E-03-4.45791E-03-1.63369E-04-1.74048E-04 2.37393E-04



 n o d a l   p r i n t   o u t   f o r   t i m e  s t e p   48805                              ( at time 2.4399558E+01 )

 nodal point  x-disp     y-disp      z-disp      x-vel       y-vel       z-vel      x-accl      y-accl      z-accl      x-coor      y-coor      z-coor
    22626  4.81919E+00-2.19370E+00-2.13142E+01 2.65963E-01-2.09709E-01 5.11375E-01 3.39718E-03 1.96338E-02-1.27065E-02 5.27834E+01-2.42235E+01-1.39757E+01



 n o d a l   p r i n t   o u t   f o r   t i m e  s t e p   48805                              ( at time 2.4399558E+01 )

 nodal point  x-rot      y-rot       z-rot       x-rot vel   y-rot vel   z-rot vel   x-rot acc   y-rot acc   z-rot acc
    22626  2.40207E-01 1.47912E-01-3.68895E-02 1.71976E-02 7.39352E-03-4.45809E-03 1.49398E-05-2.17786E-04-1.82090E-06



 n o d a l   p r i n t   o u t   f o r   t i m e  s t e p   49006                              ( at time 2.4500048E+01 )

 nodal point  x-disp     y-disp      z-disp      x-vel       y-vel       z-vel      x-accl      y-accl      z-accl      x-coor      y-coor      z-coor
    22626  4.84592E+00-2.21472E+00-2.12627E+01 2.65548E-01-2.08718E-01 5.12543E-01-4.12890E-03 9.86183E-03 1.16269E-02 5.28101E+01-2.42445E+01-1.39242E+01



 n o d a l   p r i n t   o u t   f o r   t i m e  s t e p   49006                              ( at time 2.4500048E+01 )

 nodal point  x-rot      y-rot       z-rot       x-rot vel   y-rot vel   z-rot vel   x-rot acc   y-rot acc   z-rot acc
    22626  2.41935E-01 1.48655E-01-3.73356E-02 1.71831E-02 7.38526E-03-4.43525E-03-1.44283E-04-8.21186E-05 2.27338E-04



 n o d a l   p r i n t   o u t   f o r   t i m e  s t e p   49206                              ( at time 2.4600038E+01 )

 nodal point  x-disp     y-disp      z-disp      x-vel       y-vel       z-vel      x-accl      y-accl      z-accl      x-coor      y-coor      z-coor
    22626  4.87253E+00-2.23554E+00-2.12115E+01 2.66358E-01-2.07804E-01 5.11821E-01 8.10250E-03 9.14255E-03-7.22296E-03 5.28367E+01-2.42653E+01-1.38730E+01



 n o d a l   p r i n t   o u t   f o r   t i m e  s t e p   49206                              ( at time 2.4600038E+01 )

 nodal point  x-rot      y-rot       z-rot       x-rot vel   y-rot vel   z-rot vel   x-rot acc   y-rot acc   z-rot acc
    22626  2.43653E-01 1.49392E-01-3.77781E-02 1.71881E-02 7.36126E-03-4.41685E-03 5.00166E-05-2.40080E-04 1.83962E-04



 n o d a l   p r i n t   o u t   f o r   t i m e  s t e p   49406                              ( at time 2.4700028E+01 )

 nodal point  x-disp     y-disp      z-disp      x-vel       y-vel       z-vel      x-accl      y-accl      z-accl      x-coor      y-coor      z-coor
    22626  4.89911E+00-2.25624E+00-2.11604E+01 2.66004E-01-2.05571E-01 5.11308E-01-3.53942E-03 2.23314E-02-5.12657E-03 5.28633E+01-2.42860E+01-1.38219E+01



 n o d a l   p r i n t   o u t   f o r   t i m e  s t e p   49406                              ( at time 2.4700028E+01 )

 nodal point  x-rot      y-rot       z-rot       x-rot vel   y-rot vel   z-rot vel   x-rot acc   y-rot acc   z-rot acc
    22626  2.45371E-01 1.50126E-01-3.82194E-02 1.71782E-02 7.32058E-03-4.42134E-03-9.89360E-05-4.06837E-04-4.48714E-05



 n o d a l   p r i n t   o u t   f o r   t i m e  s t e p   49606                              ( at time 2.4800018E+01 )

 nodal point  x-disp     y-disp      z-disp      x-vel       y-vel       z-vel      x-accl      y-accl      z-accl      x-coor      y-coor      z-coor
    22626  4.92569E+00-2.27678E+00-2.11093E+01 2.64678E-01-2.05278E-01 5.11091E-01-1.32618E-02 2.93162E-03-2.17338E-03 5.28899E+01-2.43066E+01-1.37708E+01



 n o d a l   p r i n t   o u t   f o r   t i m e  s t e p   49606                              ( at time 2.4800018E+01 )

 nodal point  x-rot      y-rot       z-rot       x-rot vel   y-rot vel   z-rot vel   x-rot acc   y-rot acc   z-rot acc
    22626  2.47090E-01 1.50858E-01-3.86595E-02 1.71855E-02 7.30688E-03-4.39221E-03 7.35626E-05-1.36954E-04 2.91298E-04



 n o d a l   p r i n t   o u t   f o r   t i m e  s t e p   49806                              ( at time 2.4900008E+01 )

 nodal point  x-disp     y-disp      z-disp      x-vel       y-vel       z-vel      x-accl      y-accl      z-accl      x-coor      y-coor      z-coor
    22626  4.95223E+00-2.29716E+00-2.10582E+01 2.64844E-01-2.02870E-01 5.11275E-01 1.66464E-03 2.40777E-02 1.84258E-03 5.29164E+01-2.43270E+01-1.37197E+01



 n o d a l   p r i n t   o u t   f o r   t i m e  s t e p   49806                              ( at time 2.4900008E+01 )

 nodal point  x-rot      y-rot       z-rot       x-rot vel   y-rot vel   z-rot vel   x-rot acc   y-rot acc   z-rot acc
    22626  2.48808E-01 1.51588E-01-3.90981E-02 1.71629E-02 7.28454E-03-4.38682E-03-2.26038E-04-2.23510E-04 5.39342E-05



 n o d a l   p r i n t   o u t   f o r   t i m e  s t e p   50006                              ( at time 2.4999998E+01 )

 nodal point  x-disp     y-disp      z-disp      x-vel       y-vel       z-vel      x-accl      y-accl      z-accl      x-coor      y-coor      z-coor
    22626  4.97869E+00-2.31746E+00-2.10071E+01 2.64641E-01-2.01951E-01 5.09979E-01-2.03747E-03 9.19083E-03-1.29646E-02 5.29429E+01-2.43473E+01-1.36686E+01



 n o d a l   p r i n t   o u t   f o r   t i m e  s t e p   50006                              ( at time 2.4999998E+01 )

 nodal point  x-rot      y-rot       z-rot       x-rot vel   y-rot vel   z-rot vel   x-rot acc   y-rot acc   z-rot acc
    22626  2.50525E-01 1.52314E-01-3.95353E-02 1.71821E-02 7.24355E-03-4.38080E-03 1.92019E-04-4.09899E-04 6.02202E-05
