 LSTC 50th% Full_FE H-III Dummy (Beta Version, February 17, 2019)        
                    ls-dyna smp s R16 R16.0_619_d222963 date 03/18/2025

{BEGIN LEGEND}
 Entity #        Title
    22626                                                                                     
{END LEGEND}




 n o d a l   p r i n t   o u t   f o r   t i m e  s t e p       1                              ( at time 0.0000000E+00 )

 nodal point  x-disp     y-disp      z-disp      x-vel       y-vel       z-vel      x-accl      y-accl      z-accl      x-coor      y-coor      z-coor
    22626  0.00000E+00 0.00000E+00 0.00000E+00 0.00000E+00 0.00000E+00-3.12000E+00 0.00000E+00 0.00000E+00 0.00000E+00 4.79642E+01-2.20298E+01 7.33850E+00



 n o d a l   p r i n t   o u t   f o r   t i m e  s t e p       1                              ( at time 0.0000000E+00 )

 nodal point  x-rot      y-rot       z-rot       x-rot vel   y-rot vel   z-rot vel   x-rot acc   y-rot acc   z-rot acc
    22626  0.00000E+00 0.00000E+00 0.00000E+00 0.00000E+00 0.00000E+00 0.00000E+00 0.00000E+00 0.00000E+00 0.00000E+00



 n o d a l   p r i n t   o u t   f o r   t i m e  s t e p     201                              ( at time 9.9989993E-02 )

 nodal point  x-disp     y-disp      z-disp      x-vel       y-vel       z-vel      x-accl      y-accl      z-accl      x-coor      y-coor      z-coor
    22626  8.34119E-07-4.04503E-06-3.12016E-01 4.76594E-05-4.96469E-04-3.12074E+00 4.76642E-04-4.96519E-03-7.42748E-03 4.79642E+01-2.20298E+01 7.02648E+00



 n o d a l   p r i n t   o u t   f o r   t i m e  s t e p     201                              ( at time 9.9989993E-02 )

 nodal point  x-rot      y-rot       z-rot       x-rot vel   y-rot vel   z-rot vel   x-rot acc   y-rot acc   z-rot acc
    22626  9.59921E-09 3.03942E-08 5.26942E-08 1.30632E-06 2.72131E-06 5.21169E-06 1.30645E-05 2.72158E-05 5.21221E-05



 n o d a l   p r i n t   o u t   f o r   t i m e  s t e p     401                              ( at time 1.9997999E-01 )

 nodal point  x-disp     y-disp      z-disp      x-vel       y-vel       z-vel      x-accl      y-accl      z-accl      x-coor      y-coor      z-coor
    22626 -5.12797E-05-5.21561E-04-6.23853E-01-1.09695E-03-1.11136E-02-3.11558E+00-1.14472E-02-1.06182E-01 5.16323E-02 4.79641E+01-2.20303E+01 6.71465E+00



 n o d a l   p r i n t   o u t   f o r   t i m e  s t e p     401                              ( at time 1.9997999E-01 )

 nodal point  x-rot      y-rot       z-rot       x-rot vel   y-rot vel   z-rot vel   x-rot acc   y-rot acc   z-rot acc
    22626  4.60061E-07 1.33003E-06 2.50235E-06 2.62860E-06 1.90548E-05 3.49473E-05 1.32241E-05 1.63351E-04 2.97386E-04



 n o d a l   p r i n t   o u t   f o r   t i m e  s t e p     601                              ( at time 2.9996998E-01 )

 nodal point  x-disp     y-disp      z-disp      x-vel       y-vel       z-vel      x-accl      y-accl      z-accl      x-coor      y-coor      z-coor
    22626 -2.45571E-05-1.97630E-03-9.35238E-01 1.65991E-03-1.60455E-02-3.11415E+00 2.75714E-02-4.93239E-02 1.43185E-02 4.79642E+01-2.20318E+01 6.40326E+00



 n o d a l   p r i n t   o u t   f o r   t i m e  s t e p     601                              ( at time 2.9996998E-01 )

 nodal point  x-rot      y-rot       z-rot       x-rot vel   y-rot vel   z-rot vel   x-rot acc   y-rot acc   z-rot acc
    22626  6.74699E-07 2.41135E-06 4.82786E-06 8.30283E-06 5.31452E-06 1.47065E-05 5.67479E-05-1.37417E-04-2.02428E-04



 n o d a l   p r i n t   o u t   f o r   t i m e  s t e p     801                              ( at time 3.9995997E-01 )

 nodal point  x-disp     y-disp      z-disp      x-vel       y-vel       z-vel      x-accl      y-accl      z-accl      x-coor      y-coor      z-coor
    22626  5.94635E-05-3.57405E-03-1.24663E+00 1.93380E-04-1.73889E-02-3.11353E+00-1.46668E-02-1.34354E-02 6.17566E-03 4.79642E+01-2.20334E+01 6.09187E+00



 n o d a l   p r i n t   o u t   f o r   t i m e  s t e p     801                              ( at time 3.9995997E-01 )

 nodal point  x-rot      y-rot       z-rot       x-rot vel   y-rot vel   z-rot vel   x-rot acc   y-rot acc   z-rot acc
    22626  1.58188E-06 3.68029E-06 6.68028E-06 6.29323E-06 2.42697E-05 3.82837E-05-2.00979E-05 1.89571E-04 2.35796E-04



 n o d a l   p r i n t   o u t   f o r   t i m e  s t e p    1001                              ( at time 4.9994997E-01 )

 nodal point  x-disp     y-disp      z-disp      x-vel       y-vel       z-vel      x-accl      y-accl      z-accl      x-coor      y-coor      z-coor
    22626  7.27323E-05-5.63146E-03-1.55782E+00 8.87766E-04-2.38461E-02-3.11085E+00 6.94456E-03-6.45779E-02 2.67986E-02 4.79643E+01-2.20354E+01 5.78068E+00



 n o d a l   p r i n t   o u t   f o r   t i m e  s t e p    1001                              ( at time 4.9994997E-01 )

 nodal point  x-rot      y-rot       z-rot       x-rot vel   y-rot vel   z-rot vel   x-rot acc   y-rot acc   z-rot acc
    22626  1.49456E-06 6.64793E-06 1.18366E-05-4.89298E-06 4.37666E-05 7.19562E-05-1.11873E-04 1.94989E-04 3.36759E-04



 n o d a l   p r i n t   o u t   f o r   t i m e  s t e p    1201                              ( at time 5.9993996E-01 )

 nodal point  x-disp     y-disp      z-disp      x-vel       y-vel       z-vel      x-accl      y-accl      z-accl      x-coor      y-coor      z-coor
    22626  5.29521E-05-8.13743E-03-1.86888E+00-5.65208E-04-2.61273E-02-3.11084E+00-1.45312E-02-2.28144E-02 1.21606E-04 4.79642E+01-2.20379E+01 5.46962E+00



 n o d a l   p r i n t   o u t   f o r   t i m e  s t e p    1201                              ( at time 5.9993996E-01 )

 nodal point  x-rot      y-rot       z-rot       x-rot vel   y-rot vel   z-rot vel   x-rot acc   y-rot acc   z-rot acc
    22626  1.26528E-06 9.87426E-06 1.77367E-05-2.13936E-06 2.63519E-05 5.29322E-05 2.75390E-05-1.74165E-04-1.90259E-04



 n o d a l   p r i n t   o u t   f o r   t i m e  s t e p    1401                              ( at time 6.9992995E-01 )

 nodal point  x-disp     y-disp      z-disp      x-vel       y-vel       z-vel      x-accl      y-accl      z-accl      x-coor      y-coor      z-coor
    22626  1.96889E-05-1.10207E-02-2.17976E+00 7.14805E-04-3.22416E-02-3.10770E+00 1.28014E-02-6.11492E-02 3.14243E-02 4.79642E+01-2.20408E+01 5.15874E+00



 n o d a l   p r i n t   o u t   f o r   t i m e  s t e p    1401                              ( at time 6.9992995E-01 )

 nodal point  x-rot      y-rot       z-rot       x-rot vel   y-rot vel   z-rot vel   x-rot acc   y-rot acc   z-rot acc
    22626  1.10208E-06 1.30693E-05 2.27045E-05-2.42467E-06 3.78882E-05 5.93741E-05-2.85338E-06 1.15375E-04 6.44250E-05



 n o d a l   p r i n t   o u t   f o r   t i m e  s t e p    1601                              ( at time 7.9991994E-01 )

 nodal point  x-disp     y-disp      z-disp      x-vel       y-vel       z-vel      x-accl      y-accl      z-accl      x-coor      y-coor      z-coor
    22626  1.33039E-04-1.45709E-02-2.49038E+00 1.37170E-03-3.68139E-02-3.10600E+00 6.56964E-03-4.57279E-02 1.69389E-02 4.79643E+01-2.20444E+01 4.84812E+00



 n o d a l   p r i n t   o u t   f o r   t i m e  s t e p    1601                              ( at time 7.9991994E-01 )

 nodal point  x-rot      y-rot       z-rot       x-rot vel   y-rot vel   z-rot vel   x-rot acc   y-rot acc   z-rot acc
    22626  1.00770E-06 1.72053E-05 2.96644E-05 3.03185E-06 4.87467E-05 7.64090E-05 5.45707E-05 1.08596E-04 1.70366E-04



 n o d a l   p r i n t   o u t   f o r   t i m e  s t e p    1801                              ( at time 8.9990994E-01 )

 nodal point  x-disp     y-disp      z-disp      x-vel       y-vel       z-vel      x-accl      y-accl      z-accl      x-coor      y-coor      z-coor
    22626  2.07436E-04-1.82141E-02-2.80104E+00-5.05152E-04-3.64315E-02-3.10742E+00-1.87704E-02 3.82492E-03-1.41659E-02 4.79644E+01-2.20480E+01 4.53746E+00



 n o d a l   p r i n t   o u t   f o r   t i m e  s t e p    1801                              ( at time 8.9990994E-01 )

 nodal point  x-rot      y-rot       z-rot       x-rot vel   y-rot vel   z-rot vel   x-rot acc   y-rot acc   z-rot acc
    22626  1.02455E-06 2.13195E-05 3.66577E-05-1.89300E-06 3.79671E-05 6.82786E-05-4.92535E-05-1.07807E-04-8.13123E-05



 n o d a l   p r i n t   o u t   f o r   t i m e  s t e p    2001                              ( at time 9.9989993E-01 )

 nodal point  x-disp     y-disp      z-disp      x-vel       y-vel       z-vel      x-accl      y-accl      z-accl      x-coor      y-coor      z-coor
    22626  1.09792E-04-2.19275E-02-3.11175E+00-8.18876E-04-3.83981E-02-3.10755E+00-3.13755E-03-1.96680E-02-1.32812E-03 4.79643E+01-2.20517E+01 4.22675E+00



 n o d a l   p r i n t   o u t   f o r   t i m e  s t e p    2001                              ( at time 9.9989993E-01 )

 nodal point  x-rot      y-rot       z-rot       x-rot vel   y-rot vel   z-rot vel   x-rot acc   y-rot acc   z-rot acc
    22626  8.56534E-07 2.55333E-05 4.38501E-05-9.63262E-07 4.62091E-05 8.59378E-05 9.29830E-06 8.24281E-05 1.76610E-04



 n o d a l   p r i n t   o u t   f o r   t i m e  s t e p    2201                              ( at time 1.0998899E+00 )

 nodal point  x-disp     y-disp      z-disp      x-vel       y-vel       z-vel      x-accl      y-accl      z-accl      x-coor      y-coor      z-coor
    22626  9.18840E-05-2.58761E-02-3.42246E+00-2.16257E-04-4.02585E-02-3.10712E+00 6.02679E-03-1.86063E-02 4.33965E-03 4.79643E+01-2.20557E+01 3.91605E+00



 n o d a l   p r i n t   o u t   f o r   t i m e  s t e p    2201                              ( at time 1.0998899E+00 )

 nodal point  x-rot      y-rot       z-rot       x-rot vel   y-rot vel   z-rot vel   x-rot acc   y-rot acc   z-rot acc
    22626  9.33133E-07 3.03114E-05 5.24800E-05 5.26657E-06 4.66578E-05 7.52557E-05 6.23046E-05 4.48746E-06-1.06832E-04



 n o d a l   p r i n t   o u t   f o r   t i m e  s t e p    2401                              ( at time 1.1998799E+00 )

 nodal point  x-disp     y-disp      z-disp      x-vel       y-vel       z-vel      x-accl      y-accl      z-accl      x-coor      y-coor      z-coor
    22626  1.34371E-04-2.98902E-02-3.73320E+00 7.33590E-04-3.98047E-02-3.10850E+00 9.49942E-03 4.53909E-03-1.38082E-02 4.79643E+01-2.20597E+01 3.60531E+00



 n o d a l   p r i n t   o u t   f o r   t i m e  s t e p    2401                              ( at time 1.1998799E+00 )

 nodal point  x-rot      y-rot       z-rot       x-rot vel   y-rot vel   z-rot vel   x-rot acc   y-rot acc   z-rot acc
    22626  1.33705E-06 3.44647E-05 5.93291E-05 5.08134E-06 3.98913E-05 6.55434E-05-1.85251E-06-6.76715E-05-9.71325E-05



 n o d a l   p r i n t   o u t   f o r   t i m e  s t e p    2601                              ( at time 1.2998699E+00 )

 nodal point  x-disp     y-disp      z-disp      x-vel       y-vel       z-vel      x-accl      y-accl      z-accl      x-coor      y-coor      z-coor
    22626  1.46216E-04-3.37303E-02-4.04413E+00-4.24532E-04-3.65899E-02-3.11132E+00-1.15824E-02 3.21504E-02-2.82507E-02 4.79643E+01-2.20635E+01 3.29437E+00



 n o d a l   p r i n t   o u t   f o r   t i m e  s t e p    2601                              ( at time 1.2998699E+00 )

 nodal point  x-rot      y-rot       z-rot       x-rot vel   y-rot vel   z-rot vel   x-rot acc   y-rot acc   z-rot acc
    22626  1.63991E-06 3.85429E-05 6.61321E-05-2.54314E-06 4.53686E-05 7.98085E-05-7.62524E-05 5.47786E-05 1.42665E-04



 n o d a l   p r i n t   o u t   f o r   t i m e  s t e p    2801                              ( at time 1.3998599E+00 )

 nodal point  x-disp     y-disp      z-disp      x-vel       y-vel       z-vel      x-accl      y-accl      z-accl      x-coor      y-coor      z-coor
    22626  3.22225E-05-3.71241E-02-4.35543E+00-1.30732E-03-3.14379E-02-3.11510E+00-8.82872E-03 5.15251E-02-3.78074E-02 4.79642E+01-2.20669E+01 2.98307E+00



 n o d a l   p r i n t   o u t   f o r   t i m e  s t e p    2801                              ( at time 1.3998599E+00 )

 nodal point  x-rot      y-rot       z-rot       x-rot vel   y-rot vel   z-rot vel   x-rot acc   y-rot acc   z-rot acc
    22626  1.20559E-06 4.29476E-05 7.39885E-05-4.52638E-06 4.45617E-05 7.33463E-05-1.98344E-05-8.06973E-06-6.46284E-05



 n o d a l   p r i n t   o u t   f o r   t i m e  s t e p    3001                              ( at time 1.4998499E+00 )

 nodal point  x-disp     y-disp      z-disp      x-vel       y-vel       z-vel      x-accl      y-accl      z-accl      x-coor      y-coor      z-coor
    22626 -7.74794E-05-4.01688E-02-4.66702E+00-4.99107E-04-2.97688E-02-3.11713E+00 8.08290E-03 1.66935E-02-2.02700E-02 4.79641E+01-2.20700E+01 2.67148E+00



 n o d a l   p r i n t   o u t   f o r   t i m e  s t e p    3001                              ( at time 1.4998499E+00 )

 nodal point  x-rot      y-rot       z-rot       x-rot vel   y-rot vel   z-rot vel   x-rot acc   y-rot acc   z-rot acc
    22626  8.27447E-07 4.68510E-05 8.05200E-05-1.64420E-06 3.19258E-05 5.69483E-05 2.88247E-05-1.26372E-04-1.63997E-04



 n o d a l   p r i n t   o u t   f o r   t i m e  s t e p    3201                              ( at time 1.5998399E+00 )

 nodal point  x-disp     y-disp      z-disp      x-vel       y-vel       z-vel      x-accl      y-accl      z-accl      x-coor      y-coor      z-coor
    22626 -1.24349E-04-4.30592E-02-4.97879E+00-6.92465E-04-2.75130E-02-3.11940E+00-1.93378E-03 2.25596E-02-2.26949E-02 4.79641E+01-2.20728E+01 2.35971E+00



 n o d a l   p r i n t   o u t   f o r   t i m e  s t e p    3201                              ( at time 1.5998399E+00 )

 nodal point  x-rot      y-rot       z-rot       x-rot vel   y-rot vel   z-rot vel   x-rot acc   y-rot acc   z-rot acc
    22626  5.15801E-07 4.99106E-05 8.53932E-05-1.45805E-06 3.25588E-05 4.79545E-05 1.86167E-06 6.33046E-06-8.99471E-05



 n o d a l   p r i n t   o u t   f o r   t i m e  s t e p    3401                              ( at time 1.6998299E+00 )

 nodal point  x-disp     y-disp      z-disp      x-vel       y-vel       z-vel      x-accl      y-accl      z-accl      x-coor      y-coor      z-coor
    22626 -2.10854E-04-4.55736E-02-5.29088E+00-1.12637E-03-2.24368E-02-3.12325E+00-4.33947E-03 5.07674E-02-3.85204E-02 4.79640E+01-2.20754E+01 2.04762E+00



 n o d a l   p r i n t   o u t   f o r   t i m e  s t e p    3401                              ( at time 1.6998299E+00 )

 nodal point  x-rot      y-rot       z-rot       x-rot vel   y-rot vel   z-rot vel   x-rot acc   y-rot acc   z-rot acc
    22626  3.02088E-07 5.29933E-05 9.04305E-05-3.83004E-06 2.98739E-05 4.78471E-05-2.37223E-05-2.68514E-05-1.07327E-06



 n o d a l   p r i n t   o u t   f o r   t i m e  s t e p    3601                              ( at time 1.7998199E+00 )

 nodal point  x-disp     y-disp      z-disp      x-vel       y-vel       z-vel      x-accl      y-accl      z-accl      x-coor      y-coor      z-coor
    22626 -3.12363E-04-4.75643E-02-5.60339E+00-1.32341E-03-1.77138E-02-3.12732E+00-1.97064E-03 4.72348E-02-4.06688E-02 4.79639E+01-2.20774E+01 1.73511E+00



 n o d a l   p r i n t   o u t   f o r   t i m e  s t e p    3601                              ( at time 1.7998199E+00 )

 nodal point  x-rot      y-rot       z-rot       x-rot vel   y-rot vel   z-rot vel   x-rot acc   y-rot acc   z-rot acc
    22626  1.54767E-07 5.57830E-05 9.51892E-05-4.37968E-07 2.14214E-05 4.20625E-05 3.39242E-05-8.45338E-05-5.78525E-05



 n o d a l   p r i n t   o u t   f o r   t i m e  s t e p    3801                              ( at time 1.8998099E+00 )

 nodal point  x-disp     y-disp      z-disp      x-vel       y-vel       z-vel      x-accl      y-accl      z-accl      x-coor      y-coor      z-coor
    22626 -4.99997E-04-4.92020E-02-5.91621E+00-2.16462E-03-1.51654E-02-3.12982E+00-8.41290E-03 2.54867E-02-2.49745E-02 4.79637E+01-2.20790E+01 1.42229E+00



 n o d a l   p r i n t   o u t   f o r   t i m e  s t e p    3801                              ( at time 1.8998099E+00 )

 nodal point  x-rot      y-rot       z-rot       x-rot vel   y-rot vel   z-rot vel   x-rot acc   y-rot acc   z-rot acc
    22626 -8.99583E-08 5.76812E-05 9.86044E-05 1.52220E-06 1.55200E-05 2.74625E-05 1.96036E-05-5.90204E-05-1.46014E-04



 n o d a l   p r i n t   o u t   f o r   t i m e  s t e p    4001                              ( at time 1.9997999E+00 )

 nodal point  x-disp     y-disp      z-disp      x-vel       y-vel       z-vel      x-accl      y-accl      z-accl      x-coor      y-coor      z-coor
    22626 -6.73399E-04-5.05923E-02-6.22929E+00-1.64736E-03-1.28152E-02-3.13210E+00 5.17313E-03 2.35046E-02-2.28762E-02 4.79635E+01-2.20804E+01 1.10922E+00



 n o d a l   p r i n t   o u t   f o r   t i m e  s t e p    4001                              ( at time 1.9997999E+00 )

 nodal point  x-rot      y-rot       z-rot       x-rot vel   y-rot vel   z-rot vel   x-rot acc   y-rot acc   z-rot acc
    22626  1.14915E-07 5.90170E-05 1.00916E-04 3.40900E-06 1.32858E-05 2.02053E-05 1.88700E-05-2.23439E-05-7.25788E-05



 n o d a l   p r i n t   o u t   f o r   t i m e  s t e p    4201                              ( at time 2.0997899E+00 )

 nodal point  x-disp     y-disp      z-disp      x-vel       y-vel       z-vel      x-accl      y-accl      z-accl      x-coor      y-coor      z-coor
    22626 -8.42370E-04-5.16834E-02-6.54262E+00-1.86179E-03-9.15318E-03-3.13518E+00-2.14449E-03 3.66234E-02-3.07853E-02 4.79633E+01-2.20815E+01 7.95877E-01



 n o d a l   p r i n t   o u t   f o r   t i m e  s t e p    4201                              ( at time 2.0997899E+00 )

 nodal point  x-rot      y-rot       z-rot       x-rot vel   y-rot vel   z-rot vel   x-rot acc   y-rot acc   z-rot acc
    22626  4.00592E-07 5.96621E-05 1.02007E-04-1.32985E-06 3.25420E-06 1.45356E-06-4.73933E-05-1.00326E-04-1.87537E-04



 n o d a l   p r i n t   o u t   f o r   t i m e  s t e p    4401                              ( at time 2.1997798E+00 )

 nodal point  x-disp     y-disp      z-disp      x-vel       y-vel       z-vel      x-accl      y-accl      z-accl      x-coor      y-coor      z-coor
    22626 -1.08443E-03-5.23700E-02-6.85629E+00-2.77251E-03-4.41078E-03-3.13894E+00-9.10815E-03 4.74288E-02-3.76263E-02 4.79631E+01-2.20822E+01 4.82213E-01



 n o d a l   p r i n t   o u t   f o r   t i m e  s t e p    4401                              ( at time 2.1997798E+00 )

 nodal point  x-rot      y-rot       z-rot       x-rot vel   y-rot vel   z-rot vel   x-rot acc   y-rot acc   z-rot acc
    22626  2.21942E-07 5.96536E-05 1.01938E-04-1.26046E-06-2.08302E-06-3.06557E-06 6.94004E-07-5.33777E-05-4.51959E-05



 n o d a l   p r i n t   o u t   f o r   t i m e  s t e p    4601                              ( at time 2.2997698E+00 )

 nodal point  x-disp     y-disp      z-disp      x-vel       y-vel       z-vel      x-accl      y-accl      z-accl      x-coor      y-coor      z-coor
    22626 -1.39333E-03-5.25653E-02-7.17034E+00-3.51519E-03-8.82172E-05-3.14228E+00-7.42752E-03 4.32299E-02-3.33437E-02 4.79628E+01-2.20824E+01 1.68163E-01



 n o d a l   p r i n t   o u t   f o r   t i m e  s t e p    4601                              ( at time 2.2997698E+00 )

 nodal point  x-rot      y-rot       z-rot       x-rot vel   y-rot vel   z-rot vel   x-rot acc   y-rot acc   z-rot acc
    22626 -1.68703E-07 5.93404E-05 1.01567E-04-4.54726E-06-9.82902E-06-1.29956E-05-3.28712E-05-7.74676E-05-9.93099E-05



 n o d a l   p r i n t   o u t   f o r   t i m e  s t e p    4801                              ( at time 2.3997598E+00 )

 nodal point  x-disp     y-disp      z-disp      x-vel       y-vel       z-vel      x-accl      y-accl      z-accl      x-coor      y-coor      z-coor
    22626 -1.76192E-03-5.24782E-02-7.48464E+00-3.60877E-03 1.86740E-03-3.14440E+00-9.35920E-04 1.95582E-02-2.12452E-02 4.79624E+01-2.20823E+01-1.46134E-01



 n o d a l   p r i n t   o u t   f o r   t i m e  s t e p    4801                              ( at time 2.3997598E+00 )

 nodal point  x-rot      y-rot       z-rot       x-rot vel   y-rot vel   z-rot vel   x-rot acc   y-rot acc   z-rot acc
    22626 -7.15746E-07 5.80773E-05 9.90822E-05-6.01017E-06-1.62582E-05-3.38432E-05-1.46306E-05-6.42979E-05-2.08497E-04



 n o d a l   p r i n t   o u t   f o r   t i m e  s t e p    5001                              ( at time 2.4997498E+00 )

 nodal point  x-disp     y-disp      z-disp      x-vel       y-vel       z-vel      x-accl      y-accl      z-accl      x-coor      y-coor      z-coor
    22626 -2.15515E-03-5.21707E-02-7.79916E+00-4.23727E-03 4.96488E-03-3.14711E+00-6.28566E-03 3.09779E-02-2.70536E-02 4.79620E+01-2.20820E+01-4.60661E-01



 n o d a l   p r i n t   o u t   f o r   t i m e  s t e p    5001                              ( at time 2.4997498E+00 )

 nodal point  x-rot      y-rot       z-rot       x-rot vel   y-rot vel   z-rot vel   x-rot acc   y-rot acc   z-rot acc
    22626 -1.16509E-06 5.58438E-05 9.51154E-05-4.05345E-06-2.62977E-05-4.85430E-05 1.95690E-05-1.00405E-04-1.47012E-04



 n o d a l   p r i n t   o u t   f o r   t i m e  s t e p    5201                              ( at time 2.5997398E+00 )

 nodal point  x-disp     y-disp      z-disp      x-vel       y-vel       z-vel      x-accl      y-accl      z-accl      x-coor      y-coor      z-coor
    22626 -2.62971E-03-5.14563E-02-8.11403E+00-5.25552E-03 9.27328E-03-3.15070E+00-1.01835E-02 4.30883E-02-3.59381E-02 4.79616E+01-2.20812E+01-7.75526E-01



 n o d a l   p r i n t   o u t   f o r   t i m e  s t e p    5201                              ( at time 2.5997398E+00 )

 nodal point  x-rot      y-rot       z-rot       x-rot vel   y-rot vel   z-rot vel   x-rot acc   y-rot acc   z-rot acc
    22626 -1.53467E-06 5.27359E-05 8.96731E-05-4.76719E-06-3.59176E-05-6.24407E-05-7.13810E-06-9.62085E-05-1.38991E-04



 n o d a l   p r i n t   o u t   f o r   t i m e  s t e p    5401                              ( at time 2.6997298E+00 )

 nodal point  x-disp     y-disp      z-disp      x-vel       y-vel       z-vel      x-accl      y-accl      z-accl      x-coor      y-coor      z-coor
    22626 -3.19960E-03-5.03214E-02-8.42924E+00-6.43138E-03 1.29784E-02-3.15421E+00-1.17598E-02 3.70550E-02-3.51344E-02 4.79610E+01-2.20801E+01-1.09074E+00



 n o d a l   p r i n t   o u t   f o r   t i m e  s t e p    5401                              ( at time 2.6997298E+00 )

 nodal point  x-rot      y-rot       z-rot       x-rot vel   y-rot vel   z-rot vel   x-rot acc   y-rot acc   z-rot acc
    22626 -1.83205E-06 4.89861E-05 8.31689E-05-1.93536E-06-4.14790E-05-6.69964E-05 2.83211E-05-5.56195E-05-4.55614E-05



 n o d a l   p r i n t   o u t   f o r   t i m e  s t e p    5601                              ( at time 2.7997198E+00 )

 nodal point  x-disp     y-disp      z-disp      x-vel       y-vel       z-vel      x-accl      y-accl      z-accl      x-coor      y-coor      z-coor
    22626 -3.91355E-03-4.88969E-02-8.74475E+00-7.68419E-03 1.51513E-02-3.15635E+00-1.25294E-02 2.17306E-02-2.13740E-02 4.79603E+01-2.20787E+01-1.40625E+00



 n o d a l   p r i n t   o u t   f o r   t i m e  s t e p    5601                              ( at time 2.7997198E+00 )

 nodal point  x-rot      y-rot       z-rot       x-rot vel   y-rot vel   z-rot vel   x-rot acc   y-rot acc   z-rot acc
    22626 -1.96544E-06 4.40906E-05 7.50616E-05 3.71171E-07-5.72876E-05-9.84065E-05 2.30676E-05-1.58102E-04-3.14133E-04



 n o d a l   p r i n t   o u t   f o r   t i m e  s t e p    5801                              ( at time 2.8997098E+00 )

 nodal point  x-disp     y-disp      z-disp      x-vel       y-vel       z-vel      x-accl      y-accl      z-accl      x-coor      y-coor      z-coor
    22626 -4.68539E-03-4.73283E-02-9.06044E+00-7.82343E-03 1.61381E-02-3.15804E+00-1.39250E-03 9.86971E-03-1.69056E-02 4.79595E+01-2.20771E+01-1.72194E+00



 n o d a l   p r i n t   o u t   f o r   t i m e  s t e p    5801                              ( at time 2.8997098E+00 )

 nodal point  x-rot      y-rot       z-rot       x-rot vel   y-rot vel   z-rot vel   x-rot acc   y-rot acc   z-rot acc
    22626 -1.76545E-06 3.76498E-05 6.41533E-05 2.46337E-06-6.66016E-05-1.15442E-04 2.09241E-05-9.31500E-05-1.70370E-04



 n o d a l   p r i n t   o u t   f o r   t i m e  s t e p    6001                              ( at time 2.9996998E+00 )

 nodal point  x-disp     y-disp      z-disp      x-vel       y-vel       z-vel      x-accl      y-accl      z-accl      x-coor      y-coor      z-coor
    22626 -5.50586E-03-4.55963E-02-9.37632E+00-8.83061E-03 1.86381E-02-3.16041E+00-1.00728E-02 2.50024E-02-2.37107E-02 4.79587E+01-2.20754E+01-2.03782E+00



 n o d a l   p r i n t   o u t   f o r   t i m e  s t e p    6001                              ( at time 2.9996998E+00 )

 nodal point  x-rot      y-rot       z-rot       x-rot vel   y-rot vel   z-rot vel   x-rot acc   y-rot acc   z-rot acc
    22626 -1.53226E-06 3.07875E-05 5.25888E-05 6.09790E-07-7.09372E-05-1.21042E-04-1.85376E-05-4.33597E-05-5.60044E-05



 n o d a l   p r i n t   o u t   f o r   t i m e  s t e p    6201                              ( at time 3.0996898E+00 )

 nodal point  x-disp     y-disp      z-disp      x-vel       y-vel       z-vel      x-accl      y-accl      z-accl      x-coor      y-coor      z-coor
    22626 -6.47127E-03-4.36152E-02-9.69245E+00-1.04154E-02 2.05612E-02-3.16240E+00-1.58499E-02 1.92326E-02-1.98837E-02 4.79577E+01-2.20734E+01-2.35395E+00



 n o d a l   p r i n t   o u t   f o r   t i m e  s t e p    6201                              ( at time 3.0996898E+00 )

 nodal point  x-rot      y-rot       z-rot       x-rot vel   y-rot vel   z-rot vel   x-rot acc   y-rot acc   z-rot acc
    22626 -1.57849E-06 2.34275E-05 3.99604E-05-1.98030E-06-7.57512E-05-1.33494E-04-2.59035E-05-4.81446E-05-1.24538E-04



 n o d a l   p r i n t   o u t   f o r   t i m e  s t e p    6401                              ( at time 3.1996798E+00 )

 nodal point  x-disp     y-disp      z-disp      x-vel       y-vel       z-vel      x-accl      y-accl      z-accl      x-coor      y-coor      z-coor
    22626 -7.54248E-03-4.15845E-02-1.00087E+01-1.09325E-02 1.97571E-02-3.16298E+00-5.17095E-03-8.04193E-03-5.78937E-03 4.79566E+01-2.20714E+01-2.67020E+00



 n o d a l   p r i n t   o u t   f o r   t i m e  s t e p    6401                              ( at time 3.1996798E+00 )

 nodal point  x-rot      y-rot       z-rot       x-rot vel   y-rot vel   z-rot vel   x-rot acc   y-rot acc   z-rot acc
    22626 -1.71248E-06 1.53544E-05 2.63640E-05-1.60836E-06-8.53341E-05-1.43826E-04 3.71980E-06-9.58385E-05-1.03326E-04



 n o d a l   p r i n t   o u t   f o r   t i m e  s t e p    6601                              ( at time 3.2996698E+00 )

 nodal point  x-disp     y-disp      z-disp      x-vel       y-vel       z-vel      x-accl      y-accl      z-accl      x-coor      y-coor      z-coor
    22626 -8.64838E-03-3.97048E-02-1.03249E+01-1.11925E-02 1.78262E-02-3.16269E+00-2.60018E-03-1.93103E-02 2.84462E-03 4.79555E+01-2.20695E+01-2.98645E+00



 n o d a l   p r i n t   o u t   f o r   t i m e  s t e p    6601                              ( at time 3.2996698E+00 )

 nodal point  x-rot      y-rot       z-rot       x-rot vel   y-rot vel   z-rot vel   x-rot acc   y-rot acc   z-rot acc
    22626 -1.97903E-06 6.66124E-06 1.16035E-05-2.44190E-06-8.94923E-05-1.51618E-04-8.33623E-06-4.15867E-05-7.79327E-05



 n o d a l   p r i n t   o u t   f o r   t i m e  s t e p    6801                              ( at time 3.3996598E+00 )

 nodal point  x-disp     y-disp      z-disp      x-vel       y-vel       z-vel      x-accl      y-accl      z-accl      x-coor      y-coor      z-coor
    22626 -9.79896E-03-3.80136E-02-1.06412E+01-1.16922E-02 1.60362E-02-3.16262E+00-4.99734E-03-1.79020E-02 7.48708E-04 4.79544E+01-2.20678E+01-3.30268E+00



 n o d a l   p r i n t   o u t   f o r   t i m e  s t e p    6801                              ( at time 3.3996598E+00 )

 nodal point  x-rot      y-rot       z-rot       x-rot vel   y-rot vel   z-rot vel   x-rot acc   y-rot acc   z-rot acc
    22626 -2.02691E-06-2.23153E-06-3.69077E-06-2.61928E-06-8.79509E-05-1.53087E-04-1.77397E-06 1.54162E-05-1.46835E-05



 n o d a l   p r i n t   o u t   f o r   t i m e  s t e p    7001                              ( at time 3.4996498E+00 )

 nodal point  x-disp     y-disp      z-disp      x-vel       y-vel       z-vel      x-accl      y-accl      z-accl      x-coor      y-coor      z-coor
    22626 -1.09969E-02-3.64838E-02-1.09574E+01-1.23219E-02 1.44907E-02-3.16282E+00-6.29766E-03-1.54572E-02-1.98146E-03 4.79532E+01-2.20663E+01-3.61893E+00



 n o d a l   p r i n t   o u t   f o r   t i m e  s t e p    7001                              ( at time 3.4996498E+00 )

 nodal point  x-rot      y-rot       z-rot       x-rot vel   y-rot vel   z-rot vel   x-rot acc   y-rot acc   z-rot acc
    22626 -2.01910E-06-1.08926E-05-1.85214E-05 6.33445E-07-8.71549E-05-1.47311E-04 3.25305E-05 7.96027E-06 5.77621E-05



 n o d a l   p r i n t   o u t   f o r   t i m e  s t e p    7201                              ( at time 3.5996397E+00 )

 nodal point  x-disp     y-disp      z-disp      x-vel       y-vel       z-vel      x-accl      y-accl      z-accl      x-coor      y-coor      z-coor
    22626 -1.22513E-02-3.51408E-02-1.12737E+01-1.24078E-02 1.20922E-02-3.16261E+00-8.59418E-04-2.39871E-02 2.09114E-03 4.79519E+01-2.20649E+01-3.93517E+00



 n o d a l   p r i n t   o u t   f o r   t i m e  s t e p    7201                              ( at time 3.5996397E+00 )

 nodal point  x-rot      y-rot       z-rot       x-rot vel   y-rot vel   z-rot vel   x-rot acc   y-rot acc   z-rot acc
    22626 -2.02933E-06-1.95154E-05-3.30026E-05 2.07761E-06-8.47287E-05-1.38638E-04 1.44431E-05 2.42646E-05 8.67377E-05



 n o d a l   p r i n t   o u t   f o r   t i m e  s t e p    7401                              ( at time 3.6996297E+00 )

 nodal point  x-disp     y-disp      z-disp      x-vel       y-vel       z-vel      x-accl      y-accl      z-accl      x-coor      y-coor      z-coor
    22626 -1.34811E-02-3.40972E-02-1.15899E+01-1.21421E-02 8.70737E-03-3.16159E+00 2.65725E-03-3.38515E-02 1.01862E-02 4.79507E+01-2.20639E+01-4.25135E+00



 n o d a l   p r i n t   o u t   f o r   t i m e  s t e p    7401                              ( at time 3.6996297E+00 )

 nodal point  x-rot      y-rot       z-rot       x-rot vel   y-rot vel   z-rot vel   x-rot acc   y-rot acc   z-rot acc
    22626 -1.77406E-06-2.78038E-05-4.67958E-05 3.66235E-06-8.11471E-05-1.36331E-04 1.58490E-05 3.58190E-05 2.30745E-05



 n o d a l   p r i n t   o u t   f o r   t i m e  s t e p    7601                              ( at time 3.7996197E+00 )

 nodal point  x-disp     y-disp      z-disp      x-vel       y-vel       z-vel      x-accl      y-accl      z-accl      x-coor      y-coor      z-coor
    22626 -1.46660E-02-3.33644E-02-1.19059E+01-1.15803E-02 6.00582E-03-3.16088E+00 5.61841E-03-2.70182E-02 7.06506E-03 4.79495E+01-2.20632E+01-4.56744E+00



 n o d a l   p r i n t   o u t   f o r   t i m e  s t e p    7601                              ( at time 3.7996197E+00 )

 nodal point  x-rot      y-rot       z-rot       x-rot vel   y-rot vel   z-rot vel   x-rot acc   y-rot acc   z-rot acc
    22626 -1.31112E-06-3.56167E-05-6.00619E-05 5.28413E-06-7.24148E-05-1.22034E-04 1.62194E-05 8.73324E-05 1.42981E-04



 n o d a l   p r i n t   o u t   f o r   t i m e  s t e p    7801                              ( at time 3.8996097E+00 )

 nodal point  x-disp     y-disp      z-disp      x-vel       y-vel       z-vel      x-accl      y-accl      z-accl      x-coor      y-coor      z-coor
    22626 -1.57932E-02-3.28634E-02-1.22220E+01-1.09402E-02 4.22043E-03-3.16081E+00 6.40157E-03-1.78556E-02 7.60630E-04 4.79484E+01-2.20627E+01-4.88349E+00



 n o d a l   p r i n t   o u t   f o r   t i m e  s t e p    7801                              ( at time 3.8996097E+00 )

 nodal point  x-rot      y-rot       z-rot       x-rot vel   y-rot vel   z-rot vel   x-rot acc   y-rot acc   z-rot acc
    22626 -9.51791E-07-4.22168E-05-7.11792E-05 6.05441E-07-5.77677E-05-9.62728E-05-4.67915E-05 1.46485E-04 2.57639E-04



 n o d a l   p r i n t   o u t   f o r   t i m e  s t e p    8001                              ( at time 3.9995997E+00 )

 nodal point  x-disp     y-disp      z-disp      x-vel       y-vel       z-vel      x-accl      y-accl      z-accl      x-coor      y-coor      z-coor
    22626 -1.68606E-02-3.24928E-02-1.25381E+01-1.03884E-02 3.14231E-03-3.16114E+00 5.51857E-03-1.07823E-02-3.29289E-03 4.79473E+01-2.20623E+01-5.19956E+00



 n o d a l   p r i n t   o u t   f o r   t i m e  s t e p    8001                              ( at time 3.9995997E+00 )

 nodal point  x-rot      y-rot       z-rot       x-rot vel   y-rot vel   z-rot vel   x-rot acc   y-rot acc   z-rot acc
    22626 -8.24382E-07-4.74663E-05-7.98631E-05-2.40866E-07-4.66948E-05-7.98951E-05-8.46393E-06 1.10741E-04 1.63794E-04



 n o d a l   p r i n t   o u t   f o r   t i m e  s t e p    8201                              ( at time 4.0995897E+00 )

 nodal point  x-disp     y-disp      z-disp      x-vel       y-vel       z-vel      x-accl      y-accl      z-accl      x-coor      y-coor      z-coor
    22626 -1.78170E-02-3.22932E-02-1.28541E+01-8.60177E-03 6.35468E-04-3.16064E+00 1.78682E-02-2.50709E-02 4.99775E-03 4.79464E+01-2.20621E+01-5.51562E+00



 n o d a l   p r i n t   o u t   f o r   t i m e  s t e p    8201                              ( at time 4.0995897E+00 )

 nodal point  x-rot      y-rot       z-rot       x-rot vel   y-rot vel   z-rot vel   x-rot acc   y-rot acc   z-rot acc
    22626 -8.35551E-07-5.15928E-05-8.68360E-05-2.89166E-07-3.22372E-05-5.65637E-05-4.83052E-07 1.44590E-04 2.33337E-04



 n o d a l   p r i n t   o u t   f o r   t i m e  s t e p    8401                              ( at time 4.1995797E+00 )

 nodal point  x-disp     y-disp      z-disp      x-vel       y-vel       z-vel      x-accl      y-accl      z-accl      x-coor      y-coor      z-coor
    22626 -1.85982E-02-3.23555E-02-1.31701E+01-6.96987E-03-1.78997E-03-3.16005E+00 1.63206E-02-2.42568E-02 5.90861E-03 4.79456E+01-2.20621E+01-5.83162E+00



 n o d a l   p r i n t   o u t   f o r   t i m e  s t e p    8401                              ( at time 4.1995797E+00 )

 nodal point  x-rot      y-rot       z-rot       x-rot vel   y-rot vel   z-rot vel   x-rot acc   y-rot acc   z-rot acc
    22626 -8.21734E-07-5.39703E-05-9.07893E-05-1.85791E-07-1.40667E-05-2.29253E-05 1.03386E-06 1.81724E-04 3.36418E-04



 n o d a l   p r i n t   o u t   f o r   t i m e  s t e p    8601                              ( at time 4.2995697E+00 )

 nodal point  x-disp     y-disp      z-disp      x-vel       y-vel       z-vel      x-accl      y-accl      z-accl      x-coor      y-coor      z-coor
    22626 -1.92314E-02-3.26539E-02-1.34861E+01-5.55482E-03-3.87754E-03-3.15987E+00 1.41519E-02-2.08778E-02 1.74540E-03 4.79450E+01-2.20624E+01-6.14757E+00



 n o d a l   p r i n t   o u t   f o r   t i m e  s t e p    8601                              ( at time 4.2995697E+00 )

 nodal point  x-rot      y-rot       z-rot       x-rot vel   y-rot vel   z-rot vel   x-rot acc   y-rot acc   z-rot acc
    22626 -8.48228E-07-5.44102E-05-9.16419E-05-4.02168E-07 2.89751E-06 4.69722E-06-2.16399E-06 1.69659E-04 2.76253E-04



 n o d a l   p r i n t   o u t   f o r   t i m e  s t e p    8801                              ( at time 4.3995597E+00 )

 nodal point  x-disp     y-disp      z-disp      x-vel       y-vel       z-vel      x-accl      y-accl      z-accl      x-coor      y-coor      z-coor
    22626 -1.96977E-02-3.30826E-02-1.38021E+01-3.79712E-03-4.74025E-03-3.16048E+00 1.75788E-02-8.62795E-03-6.05406E-03 4.79445E+01-2.20629E+01-6.46355E+00



 n o d a l   p r i n t   o u t   f o r   t i m e  s t e p    8801                              ( at time 4.3995597E+00 )

 nodal point  x-rot      y-rot       z-rot       x-rot vel   y-rot vel   z-rot vel   x-rot acc   y-rot acc   z-rot acc
    22626 -8.25237E-07-5.31299E-05-8.93212E-05 6.61935E-07 2.23932E-05 4.02457E-05 1.06421E-05 1.94977E-04 3.55520E-04



 n o d a l   p r i n t   o u t   f o r   t i m e  s t e p    9001                              ( at time 4.4995497E+00 )

 nodal point  x-disp     y-disp      z-disp      x-vel       y-vel       z-vel      x-accl      y-accl      z-accl      x-coor      y-coor      z-coor
    22626 -1.99951E-02-3.36519E-02-1.41181E+01-2.04899E-03-6.99238E-03-3.16009E+00 1.74830E-02-2.25235E-02 3.84606E-03 4.79442E+01-2.20634E+01-6.77956E+00



 n o d a l   p r i n t   o u t   f o r   t i m e  s t e p    9001                              ( at time 4.4995497E+00 )

 nodal point  x-rot      y-rot       z-rot       x-rot vel   y-rot vel   z-rot vel   x-rot acc   y-rot acc   z-rot acc
    22626 -6.91317E-07-4.96665E-05-8.32166E-05 3.33675E-06 4.39097E-05 7.65072E-05 2.67507E-05 2.15185E-04 3.62650E-04



 n o d a l   p r i n t   o u t   f o r   t i m e  s t e p    9201                              ( at time 4.5995397E+00 )

 nodal point  x-disp     y-disp      z-disp      x-vel       y-vel       z-vel      x-accl      y-accl      z-accl      x-coor      y-coor      z-coor
    22626 -2.01060E-02-3.45057E-02-1.44340E+01-1.15589E-04-9.88547E-03-3.15951E+00 1.93360E-02-2.89339E-02 5.84900E-03 4.79441E+01-2.20643E+01-7.09550E+00



 n o d a l   p r i n t   o u t   f o r   t i m e  s t e p    9201                              ( at time 4.5995397E+00 )

 nodal point  x-rot      y-rot       z-rot       x-rot vel   y-rot vel   z-rot vel   x-rot acc   y-rot acc   z-rot acc
    22626 -3.89103E-07-4.44448E-05-7.41035E-05 4.25835E-06 5.99652E-05 1.02815E-04 9.21698E-06 1.60571E-04 2.63103E-04



 n o d a l   p r i n t   o u t   f o r   t i m e  s t e p    9401                              ( at time 4.6995297E+00 )

 nodal point  x-disp     y-disp      z-disp      x-vel       y-vel       z-vel      x-accl      y-accl      z-accl      x-coor      y-coor      z-coor
    22626 -2.00014E-02-3.55759E-02-1.47499E+01 2.11896E-03-1.15046E-02-3.15936E+00 2.23477E-02-1.61933E-02 1.52365E-03 4.79442E+01-2.20654E+01-7.41142E+00



 n o d a l   p r i n t   o u t   f o r   t i m e  s t e p    9401                              ( at time 4.6995297E+00 )

 nodal point  x-rot      y-rot       z-rot       x-rot vel   y-rot vel   z-rot vel   x-rot acc   y-rot acc   z-rot acc
    22626 -1.62903E-08-3.72915E-05-6.16660E-05 2.72684E-06 8.47078E-05 1.45737E-04-1.53167E-05 2.47451E-04 4.29263E-04



 n o d a l   p r i n t   o u t   f o r   t i m e  s t e p    9601                              ( at time 4.7995197E+00 )

 nodal point  x-disp     y-disp      z-disp      x-vel       y-vel       z-vel      x-accl      y-accl      z-accl      x-coor      y-coor      z-coor
    22626 -1.96899E-02-3.67977E-02-1.50658E+01 3.99221E-03-1.27568E-02-3.15961E+00 1.87345E-02-1.25230E-02-2.59426E-03 4.79445E+01-2.20666E+01-7.72733E+00



 n o d a l   p r i n t   o u t   f o r   t i m e  s t e p    9601                              ( at time 4.7995197E+00 )

 nodal point  x-rot      y-rot       z-rot       x-rot vel   y-rot vel   z-rot vel   x-rot acc   y-rot acc   z-rot acc
    22626  2.81291E-07-2.75796E-05-4.50215E-05-3.15102E-07 1.09268E-04 1.87185E-04-3.04225E-05 2.45630E-04 4.14525E-04



 n o d a l   p r i n t   o u t   f o r   t i m e  s t e p    9801                              ( at time 4.8995097E+00 )

 nodal point  x-disp     y-disp      z-disp      x-vel       y-vel       z-vel      x-accl      y-accl      z-accl      x-coor      y-coor      z-coor
    22626 -1.92005E-02-3.81238E-02-1.53818E+01 5.77522E-03-1.38623E-02-3.15986E+00 1.78318E-02-1.10560E-02-2.44642E-03 4.79450E+01-2.20679E+01-8.04328E+00



 n o d a l   p r i n t   o u t   f o r   t i m e  s t e p    9801                              ( at time 4.8995097E+00 )

 nodal point  x-rot      y-rot       z-rot       x-rot vel   y-rot vel   z-rot vel   x-rot acc   y-rot acc   z-rot acc
    22626  3.04878E-07-1.57419E-05-2.46694E-05-1.02056E-06 1.26261E-04 2.16570E-04-7.05528E-06 1.69942E-04 2.93874E-04



 n o d a l   p r i n t   o u t   f o r   t i m e  s t e p   10001                              ( at time 4.9994997E+00 )

 nodal point  x-disp     y-disp      z-disp      x-vel       y-vel       z-vel      x-accl      y-accl      z-accl      x-coor      y-coor      z-coor
    22626 -1.85075E-02-3.96022E-02-1.56977E+01 8.03220E-03-1.57796E-02-3.15969E+00 2.25721E-02-1.91749E-02 1.66432E-03 4.79457E+01-2.20694E+01-8.35922E+00



 n o d a l   p r i n t   o u t   f o r   t i m e  s t e p   10001                              ( at time 4.9994997E+00 )

 nodal point  x-rot      y-rot       z-rot       x-rot vel   y-rot vel   z-rot vel   x-rot acc   y-rot acc   z-rot acc
    22626  1.87086E-07-2.19123E-06-1.43025E-06-7.14556E-07 1.44308E-04 2.47823E-04 3.06032E-06 1.80486E-04 3.12560E-04



 n o d a l   p r i n t   o u t   f o r   t i m e  s t e p   10202                              ( at time 5.0999896E+00 )

 nodal point  x-disp     y-disp      z-disp      x-vel       y-vel       z-vel      x-accl      y-accl      z-accl      x-coor      y-coor      z-coor
    22626 -1.75816E-02-4.12786E-02-1.60152E+01 1.01742E-02-1.72998E-02-3.15881E+00 2.13156E-02-1.51278E-02 8.81409E-03 4.79466E+01-2.20711E+01-8.67671E+00



 n o d a l   p r i n t   o u t   f o r   t i m e  s t e p   10202                              ( at time 5.0999896E+00 )

 nodal point  x-rot      y-rot       z-rot       x-rot vel   y-rot vel   z-rot vel   x-rot acc   y-rot acc   z-rot acc
    22626 -2.63580E-07 1.38525E-05 2.57496E-05-6.11601E-06 1.74558E-04 2.83700E-04-5.37514E-05 3.01027E-04 3.57027E-04



 n o d a l   p r i n t   o u t   f o r   t i m e  s t e p   10402                              ( at time 5.1999796E+00 )

 nodal point  x-disp     y-disp      z-disp      x-vel       y-vel       z-vel      x-accl      y-accl      z-accl      x-coor      y-coor      z-coor
    22626 -1.64811E-02-4.29940E-02-1.63310E+01 1.17223E-02-1.66855E-02-3.15719E+00 1.54824E-02 6.14328E-03 1.61878E-02 4.79477E+01-2.20728E+01-8.99248E+00



 n o d a l   p r i n t   o u t   f o r   t i m e  s t e p   10402                              ( at time 5.1999796E+00 )

 nodal point  x-rot      y-rot       z-rot       x-rot vel   y-rot vel   z-rot vel   x-rot acc   y-rot acc   z-rot acc
    22626 -3.55760E-07 3.35141E-05 5.57078E-05 4.97779E-06 2.20365E-04 3.05799E-04 1.10949E-04 4.58114E-04 2.21010E-04



 n o d a l   p r i n t   o u t   f o r   t i m e  s t e p   10602                              ( at time 5.2999696E+00 )

 nodal point  x-disp     y-disp      z-disp      x-vel       y-vel       z-vel      x-accl      y-accl      z-accl      x-coor      y-coor      z-coor
    22626 -1.52488E-02-4.45999E-02-1.66464E+01 1.27549E-02-1.50135E-02-3.15129E+00 1.03272E-02 1.67215E-02 5.89788E-02 4.79489E+01-2.20744E+01-9.30791E+00



 n o d a l   p r i n t   o u t   f o r   t i m e  s t e p   10602                              ( at time 5.2999696E+00 )

 nodal point  x-rot      y-rot       z-rot       x-rot vel   y-rot vel   z-rot vel   x-rot acc   y-rot acc   z-rot acc
    22626  8.04214E-07 5.96757E-05 8.75529E-05 2.62180E-05 3.06209E-04 3.10280E-04 2.12423E-04 8.58531E-04 4.48142E-05



 n o d a l   p r i n t   o u t   f o r   t i m e  s t e p   10802                              ( at time 5.3999596E+00 )

 nodal point  x-disp     y-disp      z-disp      x-vel       y-vel       z-vel      x-accl      y-accl      z-accl      x-coor      y-coor      z-coor
    22626 -1.39003E-02-4.60263E-02-1.69610E+01 1.38851E-02-1.27801E-02-3.13996E+00 1.13033E-02 2.23368E-02 1.13370E-01 4.79503E+01-2.20758E+01-9.62247E+00



 n o d a l   p r i n t   o u t   f o r   t i m e  s t e p   10802                              ( at time 5.3999596E+00 )

 nodal point  x-rot      y-rot       z-rot       x-rot vel   y-rot vel   z-rot vel   x-rot acc   y-rot acc   z-rot acc
    22626  5.77060E-06 9.69776E-05 1.19755E-04 8.42672E-05 4.35733E-04 2.97793E-04 5.80551E-04 1.29537E-03-1.24885E-04



 n o d a l   p r i n t   o u t   f o r   t i m e  s t e p   11002                              ( at time 5.4999496E+00 )

 nodal point  x-disp     y-disp      z-disp      x-vel       y-vel       z-vel      x-accl      y-accl      z-accl      x-coor      y-coor      z-coor
    22626 -1.24111E-02-4.70976E-02-1.72741E+01 1.54642E-02-8.14260E-03-3.12385E+00 1.57927E-02 4.63794E-02 1.61039E-01 4.79518E+01-2.20769E+01-9.93564E+00



 n o d a l   p r i n t   o u t   f o r   t i m e  s t e p   11002                              ( at time 5.4999496E+00 )

 nodal point  x-rot      y-rot       z-rot       x-rot vel   y-rot vel   z-rot vel   x-rot acc   y-rot acc   z-rot acc
    22626  1.85471E-05 1.49128E-04 1.49449E-04 1.68102E-04 6.12444E-04 2.73994E-04 8.38436E-04 1.76728E-03-2.38006E-04



 n o d a l   p r i n t   o u t   f o r   t i m e  s t e p   11202                              ( at time 5.5999396E+00 )

 nodal point  x-disp     y-disp      z-disp      x-vel       y-vel       z-vel      x-accl      y-accl      z-accl      x-coor      y-coor      z-coor
    22626 -1.07604E-02-4.77707E-02-1.75854E+01 1.74849E-02-3.32230E-03-3.10186E+00 2.02087E-02 4.82079E-02 2.19956E-01 4.79534E+01-2.20776E+01-1.02469E+01



 n o d a l   p r i n t   o u t   f o r   t i m e  s t e p   11202                              ( at time 5.5999396E+00 )

 nodal point  x-rot      y-rot       z-rot       x-rot vel   y-rot vel   z-rot vel   x-rot acc   y-rot acc   z-rot acc
    22626  3.98973E-05 2.21618E-04 1.77171E-04 2.69608E-04 8.12796E-04 2.46399E-04 1.01516E-03 2.00372E-03-2.75981E-04



 n o d a l   p r i n t   o u t   f o r   t i m e  s t e p   11402                              ( at time 5.6999296E+00 )

 nodal point  x-disp     y-disp      z-disp      x-vel       y-vel       z-vel      x-accl      y-accl      z-accl      x-coor      y-coor      z-coor
    22626 -8.89837E-03-4.78854E-02-1.78945E+01 1.91098E-02 1.85789E-03-3.07867E+00 1.62509E-02 5.18068E-02 2.31951E-01 4.79553E+01-2.20777E+01-1.05560E+01



 n o d a l   p r i n t   o u t   f o r   t i m e  s t e p   11402                              ( at time 5.6999296E+00 )

 nodal point  x-rot      y-rot       z-rot       x-rot vel   y-rot vel   z-rot vel   x-rot acc   y-rot acc   z-rot acc
    22626  7.16940E-05 3.16284E-04 2.00586E-04 3.67739E-04 1.07741E-03 2.14568E-04 9.81400E-04 2.64644E-03-3.18341E-04



 n o d a l   p r i n t   o u t   f o r   t i m e  s t e p   11602                              ( at time 5.7999195E+00 )

 nodal point  x-disp     y-disp      z-disp      x-vel       y-vel       z-vel      x-accl      y-accl      z-accl      x-coor      y-coor      z-coor
    22626 -6.92209E-03-4.73600E-02-1.82010E+01 2.11884E-02 8.31443E-03-3.05150E+00 2.07881E-02 6.45719E-02 2.71696E-01 4.79573E+01-2.20772E+01-1.08625E+01



 n o d a l   p r i n t   o u t   f o r   t i m e  s t e p   11602                              ( at time 5.7999195E+00 )

 nodal point  x-rot      y-rot       z-rot       x-rot vel   y-rot vel   z-rot vel   x-rot acc   y-rot acc   z-rot acc
    22626  1.16058E-04 4.37255E-04 2.18616E-04 5.02158E-04 1.33818E-03 1.53003E-04 1.34433E-03 2.60793E-03-6.15711E-04



 n o d a l   p r i n t   o u t   f o r   t i m e  s t e p   11802                              ( at time 5.8999095E+00 )

 nodal point  x-disp     y-disp      z-disp      x-vel       y-vel       z-vel      x-accl      y-accl      z-accl      x-coor      y-coor      z-coor
    22626 -4.68986E-03-4.63293E-02-1.85045E+01 2.29130E-02 1.34233E-02-3.01844E+00 1.72476E-02 5.10937E-02 3.30608E-01 4.79595E+01-2.20761E+01-1.11660E+01



 n o d a l   p r i n t   o u t   f o r   t i m e  s t e p   11802                              ( at time 5.8999095E+00 )

 nodal point  x-rot      y-rot       z-rot       x-rot vel   y-rot vel   z-rot vel   x-rot acc   y-rot acc   z-rot acc
    22626  1.73887E-04 5.86757E-04 2.30729E-04 6.71735E-04 1.64915E-03 8.06201E-05 1.69594E-03 3.11001E-03-7.23906E-04



 n o d a l   p r i n t   o u t   f o r   t i m e  s t e p   12002                              ( at time 5.9998995E+00 )

 nodal point  x-disp     y-disp      z-disp      x-vel       y-vel       z-vel      x-accl      y-accl      z-accl      x-coor      y-coor      z-coor
    22626 -2.23205E-03-4.47021E-02-1.88048E+01 2.55221E-02 1.84502E-02-2.98580E+00 2.60934E-02 5.02745E-02 3.26430E-01 4.79619E+01-2.20745E+01-1.14663E+01



 n o d a l   p r i n t   o u t   f o r   t i m e  s t e p   12002                              ( at time 5.9998995E+00 )

 nodal point  x-rot      y-rot       z-rot       x-rot vel   y-rot vel   z-rot vel   x-rot acc   y-rot acc   z-rot acc
    22626  2.47874E-04 7.66664E-04 2.35220E-04 8.04915E-04 1.98481E-03 1.36072E-05 1.33193E-03 3.35698E-03-6.70197E-04



 n o d a l   p r i n t   o u t   f o r   t i m e  s t e p   12202                              ( at time 6.0998895E+00 )

 nodal point  x-disp     y-disp      z-disp      x-vel       y-vel       z-vel      x-accl      y-accl      z-accl      x-coor      y-coor      z-coor
    22626  3.98381E-04-4.24796E-02-1.91015E+01 2.79009E-02 2.54024E-02-2.95123E+00 2.37906E-02 6.95282E-02 3.45745E-01 4.79646E+01-2.20723E+01-1.17630E+01



 n o d a l   p r i n t   o u t   f o r   t i m e  s t e p   12202                              ( at time 6.0998895E+00 )

 nodal point  x-rot      y-rot       z-rot       x-rot vel   y-rot vel   z-rot vel   x-rot acc   y-rot acc   z-rot acc
    22626  3.36665E-04 9.79199E-04 2.30710E-04 9.80651E-04 2.28389E-03-7.51193E-05 1.75753E-03 2.99101E-03-8.87351E-04



 n o d a l   p r i n t   o u t   f o r   t i m e  s t e p   12402                              ( at time 6.1998795E+00 )

 nodal point  x-disp     y-disp      z-disp      x-vel       y-vel       z-vel      x-accl      y-accl      z-accl      x-coor      y-coor      z-coor
    22626  3.28454E-03-3.95400E-02-1.93946E+01 3.04451E-02 3.25010E-02-2.91215E+00 2.54440E-02 7.09939E-02 3.90867E-01 4.79675E+01-2.20693E+01-1.20561E+01



 n o d a l   p r i n t   o u t   f o r   t i m e  s t e p   12402                              ( at time 6.1998795E+00 )

 nodal point  x-rot      y-rot       z-rot       x-rot vel   y-rot vel   z-rot vel   x-rot acc   y-rot acc   z-rot acc
    22626  4.42404E-04 1.22523E-03 2.17169E-04 1.14059E-03 2.61859E-03-1.81867E-04 1.59958E-03 3.34738E-03-1.06758E-03



 n o d a l   p r i n t   o u t   f o r   t i m e  s t e p   12602                              ( at time 6.2998695E+00 )

 nodal point  x-disp     y-disp      z-disp      x-vel       y-vel       z-vel      x-accl      y-accl      z-accl      x-coor      y-coor      z-coor
    22626  6.57473E-03-3.60513E-02-1.96838E+01 3.45765E-02 3.85526E-02-2.87196E+00 4.13186E-02 6.05220E-02 4.01960E-01 4.79708E+01-2.20658E+01-1.23453E+01



 n o d a l   p r i n t   o u t   f o r   t i m e  s t e p   12602                              ( at time 6.2998695E+00 )

 nodal point  x-rot      y-rot       z-rot       x-rot vel   y-rot vel   z-rot vel   x-rot acc   y-rot acc   z-rot acc
    22626  5.64349E-04 1.50365E-03 1.93858E-04 1.31052E-03 2.96327E-03-3.05514E-04 1.69948E-03 3.44712E-03-1.23659E-03



 n o d a l   p r i n t   o u t   f o r   t i m e  s t e p   12802                              ( at time 6.3998595E+00 )

 nodal point  x-disp     y-disp      z-disp      x-vel       y-vel       z-vel      x-accl      y-accl      z-accl      x-coor      y-coor      z-coor
    22626  1.02699E-02-3.18479E-02-1.99689E+01 3.90991E-02 4.55357E-02-2.83010E+00 4.52305E-02 6.98383E-02 4.18651E-01 4.79744E+01-2.20616E+01-1.26304E+01



 n o d a l   p r i n t   o u t   f o r   t i m e  s t e p   12802                              ( at time 6.3998595E+00 )

 nodal point  x-rot      y-rot       z-rot       x-rot vel   y-rot vel   z-rot vel   x-rot acc   y-rot acc   z-rot acc
    22626  7.04964E-04 1.81686E-03 1.59192E-04 1.48452E-03 3.30105E-03-3.95415E-04 1.74014E-03 3.37818E-03-8.99105E-04



 n o d a l   p r i n t   o u t   f o r   t i m e  s t e p   13002                              ( at time 6.4998495E+00 )

 nodal point  x-disp     y-disp      z-disp      x-vel       y-vel       z-vel      x-accl      y-accl      z-accl      x-coor      y-coor      z-coor
    22626  1.44395E-02-2.69469E-02-2.02497E+01 4.53444E-02 5.26103E-02-2.78635E+00 6.24593E-02 7.07528E-02 4.37530E-01 4.79786E+01-2.20567E+01-1.29112E+01



 n o d a l   p r i n t   o u t   f o r   t i m e  s t e p   13002                              ( at time 6.4998495E+00 )

 nodal point  x-rot      y-rot       z-rot       x-rot vel   y-rot vel   z-rot vel   x-rot acc   y-rot acc   z-rot acc
    22626  8.63467E-04 2.16445E-03 1.13598E-04 1.68655E-03 3.65659E-03-5.01714E-04 2.02047E-03 3.55575E-03-1.06310E-03



 n o d a l   p r i n t   o u t   f o r   t i m e  s t e p   13202                              ( at time 6.5998395E+00 )

 nodal point  x-disp     y-disp      z-disp      x-vel       y-vel       z-vel      x-accl      y-accl      z-accl      x-coor      y-coor      z-coor
    22626  1.92255E-02-2.12938E-02-2.05261E+01 5.11112E-02 6.09583E-02-2.74000E+00 5.76736E-02 8.34880E-02 4.63476E-01 4.79834E+01-2.20511E+01-1.31876E+01



 n o d a l   p r i n t   o u t   f o r   t i m e  s t e p   13202                              ( at time 6.5998395E+00 )

 nodal point  x-rot      y-rot       z-rot       x-rot vel   y-rot vel   z-rot vel   x-rot acc   y-rot acc   z-rot acc
    22626  1.04170E-03 2.54646E-03 5.67055E-05 1.88620E-03 3.99051E-03-6.24896E-04 1.99674E-03 3.33953E-03-1.23193E-03



 n o d a l   p r i n t   o u t   f o r   t i m e  s t e p   13402                              ( at time 6.6998295E+00 )

 nodal point  x-disp     y-disp      z-disp      x-vel       y-vel       z-vel      x-accl      y-accl      z-accl      x-coor      y-coor      z-coor
    22626  2.46739E-02-1.48443E-02-2.07977E+01 5.80222E-02 6.72733E-02-2.69359E+00 6.91170E-02 6.31562E-02 4.64186E-01 4.79889E+01-2.20446E+01-1.34592E+01



 n o d a l   p r i n t   o u t   f o r   t i m e  s t e p   13402                              ( at time 6.6998295E+00 )

 nodal point  x-rot      y-rot       z-rot       x-rot vel   y-rot vel   z-rot vel   x-rot acc   y-rot acc   z-rot acc
    22626  1.24068E-03 2.96191E-03-1.27658E-05 2.09462E-03 4.30989E-03-7.53426E-04 2.08441E-03 3.19412E-03-1.28544E-03



 n o d a l   p r i n t   o u t   f o r   t i m e  s t e p   13602                              ( at time 6.7998195E+00 )

 nodal point  x-disp     y-disp      z-disp      x-vel       y-vel       z-vel      x-accl      y-accl      z-accl      x-coor      y-coor      z-coor
    22626  3.08519E-02-7.70709E-03-2.10645E+01 6.60586E-02 7.47245E-02-2.64370E+00 8.03721E-02 7.45197E-02 4.98960E-01 4.79950E+01-2.20375E+01-1.37260E+01



 n o d a l   p r i n t   o u t   f o r   t i m e  s t e p   13602                              ( at time 6.7998195E+00 )

 nodal point  x-rot      y-rot       z-rot       x-rot vel   y-rot vel   z-rot vel   x-rot acc   y-rot acc   z-rot acc
    22626  1.46042E-03 3.40990E-03-9.40916E-05 2.29500E-03 4.64300E-03-8.66233E-04 2.00399E-03 3.33142E-03-1.12818E-03



 n o d a l   p r i n t   o u t   f o r   t i m e  s t e p   13802                              ( at time 6.8998095E+00 )

 nodal point  x-disp     y-disp      z-disp      x-vel       y-vel       z-vel      x-accl      y-accl      z-accl      x-coor      y-coor      z-coor
    22626  3.78767E-02 1.46143E-04-2.13264E+01 7.46958E-02 8.25168E-02-2.59266E+00 8.63809E-02 7.79314E-02 5.10418E-01 4.80021E+01-2.20296E+01-1.39879E+01



 n o d a l   p r i n t   o u t   f o r   t i m e  s t e p   13802                              ( at time 6.8998095E+00 )

 nodal point  x-rot      y-rot       z-rot       x-rot vel   y-rot vel   z-rot vel   x-rot acc   y-rot acc   z-rot acc
    22626  1.70288E-03 3.88898E-03-1.87785E-04 2.53302E-03 4.96497E-03-1.00159E-03 2.38043E-03 3.22003E-03-1.35368E-03



 n o d a l   p r i n t   o u t   f o r   t i m e  s t e p   14002                              ( at time 6.9997995E+00 )

 nodal point  x-disp     y-disp      z-disp      x-vel       y-vel       z-vel      x-accl      y-accl      z-accl      x-coor      y-coor      z-coor
    22626  4.57492E-02 8.85027E-03-2.15830E+01 8.26319E-02 9.04430E-02-2.54140E+00 7.93688E-02 7.92697E-02 5.12680E-01 4.80099E+01-2.20209E+01-1.42445E+01



 n o d a l   p r i n t   o u t   f o r   t i m e  s t e p   14002                              ( at time 6.9997995E+00 )

 nodal point  x-rot      y-rot       z-rot       x-rot vel   y-rot vel   z-rot vel   x-rot acc   y-rot acc   z-rot acc
    22626  1.96791E-03 4.39986E-03-2.95461E-04 2.76645E-03 5.26713E-03-1.12055E-03 2.33455E-03 3.02188E-03-1.18975E-03



 n o d a l   p r i n t   o u t   f o r   t i m e  s t e p   14202                              ( at time 7.0997895E+00 )

 nodal point  x-disp     y-disp      z-disp      x-vel       y-vel       z-vel      x-accl      y-accl      z-accl      x-coor      y-coor      z-coor
    22626  5.44881E-02 1.82669E-02-2.18345E+01 9.18147E-02 9.77257E-02-2.48788E+00 9.18370E-02 7.28340E-02 5.35218E-01 4.80187E+01-2.20115E+01-1.44960E+01



 n o d a l   p r i n t   o u t   f o r   t i m e  s t e p   14202                              ( at time 7.0997895E+00 )

 nodal point  x-rot      y-rot       z-rot       x-rot vel   y-rot vel   z-rot vel   x-rot acc   y-rot acc   z-rot acc
    22626  2.25616E-03 4.94103E-03-4.14852E-04 3.00885E-03 5.56056E-03-1.26102E-03 2.42424E-03 2.93460E-03-1.40488E-03



 n o d a l   p r i n t   o u t   f o r   t i m e  s t e p   14402                              ( at time 7.1997794E+00 )

 nodal point  x-disp     y-disp      z-disp      x-vel       y-vel       z-vel      x-accl      y-accl      z-accl      x-coor      y-coor      z-coor
    22626  6.41964E-02 2.84125E-02-2.20803E+01 1.01955E-01 1.05142E-01-2.43068E+00 1.01411E-01 7.41709E-02 5.72055E-01 4.80284E+01-2.20014E+01-1.47418E+01



 n o d a l   p r i n t   o u t   f o r   t i m e  s t e p   14402                              ( at time 7.1997794E+00 )

 nodal point  x-rot      y-rot       z-rot       x-rot vel   y-rot vel   z-rot vel   x-rot acc   y-rot acc   z-rot acc
    22626  2.56832E-03 5.51319E-03-5.47308E-04 3.24453E-03 5.87370E-03-1.39706E-03 2.35698E-03 3.13173E-03-1.36049E-03



 n o d a l   p r i n t   o u t   f o r   t i m e  s t e p   14602                              ( at time 7.2997694E+00 )

 nodal point  x-disp     y-disp      z-disp      x-vel       y-vel       z-vel      x-accl      y-accl      z-accl      x-coor      y-coor      z-coor
    22626  7.49333E-02 3.92027E-02-2.23206E+01 1.12029E-01 1.10872E-01-2.37550E+00 1.00750E-01 5.73014E-02 5.51847E-01 4.80391E+01-2.19906E+01-1.49821E+01



 n o d a l   p r i n t   o u t   f o r   t i m e  s t e p   14602                              ( at time 7.2997694E+00 )

 nodal point  x-rot      y-rot       z-rot       x-rot vel   y-rot vel   z-rot vel   x-rot acc   y-rot acc   z-rot acc
    22626  2.90545E-03 6.11392E-03-6.92178E-04 3.49234E-03 6.14396E-03-1.49995E-03 2.47835E-03 2.70285E-03-1.02900E-03



 n o d a l   p r i n t   o u t   f o r   t i m e  s t e p   14802                              ( at time 7.3997594E+00 )

 nodal point  x-disp     y-disp      z-disp      x-vel       y-vel       z-vel      x-accl      y-accl      z-accl      x-coor      y-coor      z-coor
    22626  8.65982E-02 5.05985E-02-2.25552E+01 1.20594E-01 1.16801E-01-2.31728E+00 8.56617E-02 5.92969E-02 5.82353E-01 4.80508E+01-2.19792E+01-1.52167E+01



 n o d a l   p r i n t   o u t   f o r   t i m e  s t e p   14802                              ( at time 7.3997594E+00 )

 nodal point  x-rot      y-rot       z-rot       x-rot vel   y-rot vel   z-rot vel   x-rot acc   y-rot acc   z-rot acc
    22626  3.26660E-03 6.74379E-03-8.48433E-04 3.73462E-03 6.44614E-03-1.61263E-03 2.42305E-03 3.02211E-03-1.12695E-03



 n o d a l   p r i n t   o u t   f o r   t i m e  s t e p   15002                              ( at time 7.4997494E+00 )

 nodal point  x-disp     y-disp      z-disp      x-vel       y-vel       z-vel      x-accl      y-accl      z-accl      x-coor      y-coor      z-coor
    22626  9.91720E-02 6.25517E-02-2.27840E+01 1.30183E-01 1.21788E-01-2.25715E+00 9.58988E-02 4.98771E-02 6.01269E-01 4.80634E+01-2.19672E+01-1.54455E+01



 n o d a l   p r i n t   o u t   f o r   t i m e  s t e p   15002                              ( at time 7.4997494E+00 )

 nodal point  x-rot      y-rot       z-rot       x-rot vel   y-rot vel   z-rot vel   x-rot acc   y-rot acc   z-rot acc
    22626  3.65426E-03 7.40223E-03-1.01607E-03 4.01907E-03 6.73267E-03-1.72103E-03 2.84480E-03 2.86556E-03-1.08405E-03



 n o d a l   p r i n t   o u t   f o r   t i m e  s t e p   15202                              ( at time 7.5997394E+00 )

 nodal point  x-disp     y-disp      z-disp      x-vel       y-vel       z-vel      x-accl      y-accl      z-accl      x-coor      y-coor      z-coor
    22626  1.12616E-01 7.48590E-02-2.30065E+01 1.39041E-01 1.25428E-01-2.19395E+00 8.85864E-02 3.63994E-02 6.32085E-01 4.80768E+01-2.19549E+01-1.56680E+01



 n o d a l   p r i n t   o u t   f o r   t i m e  s t e p   15202                              ( at time 7.5997394E+00 )

 nodal point  x-rot      y-rot       z-rot       x-rot vel   y-rot vel   z-rot vel   x-rot acc   y-rot acc   z-rot acc
    22626  4.06914E-03 8.08806E-03-1.19442E-03 4.29337E-03 6.99468E-03-1.84078E-03 2.74333E-03 2.62035E-03-1.19761E-03



 n o d a l   p r i n t   o u t   f o r   t i m e  s t e p   15402                              ( at time 7.6997294E+00 )

 nodal point  x-disp     y-disp      z-disp      x-vel       y-vel       z-vel      x-accl      y-accl      z-accl      x-coor      y-coor      z-coor
    22626  1.26899E-01 8.75361E-02-2.32228E+01 1.46872E-01 1.28091E-01-2.13179E+00 7.83213E-02 2.66403E-02 6.21649E-01 4.80911E+01-2.19423E+01-1.58843E+01



 n o d a l   p r i n t   o u t   f o r   t i m e  s t e p   15402                              ( at time 7.6997294E+00 )

 nodal point  x-rot      y-rot       z-rot       x-rot vel   y-rot vel   z-rot vel   x-rot acc   y-rot acc   z-rot acc
    22626  4.51326E-03 8.80156E-03-1.38274E-03 4.58611E-03 7.27460E-03-1.91491E-03 2.92765E-03 2.79955E-03-7.41372E-04



 n o d a l   p r i n t   o u t   f o r   t i m e  s t e p   15602                              ( at time 7.7997194E+00 )

 nodal point  x-disp     y-disp      z-disp      x-vel       y-vel       z-vel      x-accl      y-accl      z-accl      x-coor      y-coor      z-coor
    22626  1.42004E-01 1.00506E-01-2.34327E+01 1.54637E-01 1.30491E-01-2.06662E+00 7.76599E-02 2.39964E-02 6.51850E-01 4.81062E+01-2.19293E+01-1.60942E+01



 n o d a l   p r i n t   o u t   f o r   t i m e  s t e p   15602                              ( at time 7.7997194E+00 )

 nodal point  x-rot      y-rot       z-rot       x-rot vel   y-rot vel   z-rot vel   x-rot acc   y-rot acc   z-rot acc
    22626  4.98714E-03 9.54281E-03-1.58035E-03 4.88281E-03 7.55119E-03-2.01394E-03 2.96733E-03 2.76618E-03-9.90380E-04



 n o d a l   p r i n t   o u t   f o r   t i m e  s t e p   15802                              ( at time 7.8997094E+00 )

 nodal point  x-disp     y-disp      z-disp      x-vel       y-vel       z-vel      x-accl      y-accl      z-accl      x-coor      y-coor      z-coor
    22626  1.57878E-01 1.13689E-01-2.36360E+01 1.62577E-01 1.33484E-01-2.00101E+00 7.94086E-02 2.99369E-02 6.56073E-01 4.81221E+01-2.19161E+01-1.62975E+01



 n o d a l   p r i n t   o u t   f o r   t i m e  s t e p   15802                              ( at time 7.8997094E+00 )

 nodal point  x-rot      y-rot       z-rot       x-rot vel   y-rot vel   z-rot vel   x-rot acc   y-rot acc   z-rot acc
    22626  5.49179E-03 1.03098E-02-1.78682E-03 5.20608E-03 7.78033E-03-2.10887E-03 3.23297E-03 2.29160E-03-9.49407E-04



 n o d a l   p r i n t   o u t   f o r   t i m e  s t e p   16002                              ( at time 7.9996994E+00 )

 nodal point  x-disp     y-disp      z-disp      x-vel       y-vel       z-vel      x-accl      y-accl      z-accl      x-coor      y-coor      z-coor
    22626  1.74553E-01 1.27058E-01-2.38328E+01 1.70600E-01 1.33724E-01-1.93355E+00 8.02324E-02 2.39708E-03 6.74663E-01 4.81387E+01-2.19027E+01-1.64943E+01



 n o d a l   p r i n t   o u t   f o r   t i m e  s t e p   16002                              ( at time 7.9996994E+00 )

 nodal point  x-rot      y-rot       z-rot       x-rot vel   y-rot vel   z-rot vel   x-rot acc   y-rot acc   z-rot acc
    22626  6.02720E-03 1.10993E-02-2.00161E-03 5.51465E-03 8.03180E-03-2.18595E-03 3.08600E-03 2.51493E-03-7.70930E-04



 n o d a l   p r i n t   o u t   f o r   t i m e  s t e p   16202                              ( at time 8.0996894E+00 )

 nodal point  x-disp     y-disp      z-disp      x-vel       y-vel       z-vel      x-accl      y-accl      z-accl      x-coor      y-coor      z-coor
    22626  1.91936E-01 1.40504E-01-2.40228E+01 1.77790E-01 1.35047E-01-1.86731E+00 7.19049E-02 1.32322E-02 6.62512E-01 4.81561E+01-2.18893E+01-1.66843E+01



 n o d a l   p r i n t   o u t   f o r   t i m e  s t e p   16202                              ( at time 8.0996894E+00 )

 nodal point  x-rot      y-rot       z-rot       x-rot vel   y-rot vel   z-rot vel   x-rot acc   y-rot acc   z-rot acc
    22626  6.59530E-03 1.19135E-02-2.22404E-03 5.85253E-03 8.25166E-03-2.25743E-03 3.37920E-03 2.19885E-03-7.14846E-04



 n o d a l   p r i n t   o u t   f o r   t i m e  s t e p   16402                              ( at time 8.1996794E+00 )

 nodal point  x-disp     y-disp      z-disp      x-vel       y-vel       z-vel      x-accl      y-accl      z-accl      x-coor      y-coor      z-coor
    22626  2.10092E-01 1.54029E-01-2.42060E+01 1.85581E-01 1.34776E-01-1.79753E+00 7.79211E-02-2.70573E-03 6.97876E-01 4.81743E+01-2.18758E+01-1.68675E+01



 n o d a l   p r i n t   o u t   f o r   t i m e  s t e p   16402                              ( at time 8.1996794E+00 )

 nodal point  x-rot      y-rot       z-rot       x-rot vel   y-rot vel   z-rot vel   x-rot acc   y-rot acc   z-rot acc
    22626  7.19603E-03 1.27488E-02-2.45320E-03 6.16624E-03 8.44970E-03-2.31786E-03 3.13737E-03 1.98056E-03-6.04343E-04



 n o d a l   p r i n t   o u t   f o r   t i m e  s t e p   16602                              ( at time 8.2996694E+00 )

 nodal point  x-disp     y-disp      z-disp      x-vel       y-vel       z-vel      x-accl      y-accl      z-accl      x-coor      y-coor      z-coor
    22626  2.29075E-01 1.67489E-01-2.43822E+01 1.94185E-01 1.35016E-01-1.72786E+00 8.60540E-02 2.39769E-03 6.96726E-01 4.81933E+01-2.18623E+01-1.70437E+01



 n o d a l   p r i n t   o u t   f o r   t i m e  s t e p   16602                              ( at time 8.2996694E+00 )

 nodal point  x-rot      y-rot       z-rot       x-rot vel   y-rot vel   z-rot vel   x-rot acc   y-rot acc   z-rot acc
    22626  7.82991E-03 1.36021E-02-2.68913E-03 6.51354E-03 8.62250E-03-2.39543E-03 3.47338E-03 1.72826E-03-7.75761E-04



 n o d a l   p r i n t   o u t   f o r   t i m e  s t e p   16802                              ( at time 8.3996594E+00 )

 nodal point  x-disp     y-disp      z-disp      x-vel       y-vel       z-vel      x-accl      y-accl      z-accl      x-coor      y-coor      z-coor
    22626  2.48782E-01 1.80824E-01-2.45514E+01 2.00205E-01 1.31312E-01-1.65618E+00 6.02025E-02-3.70473E-02 7.16924E-01 4.82130E+01-2.18490E+01-1.72129E+01



 n o d a l   p r i n t   o u t   f o r   t i m e  s t e p   16802                              ( at time 8.3996594E+00 )

 nodal point  x-rot      y-rot       z-rot       x-rot vel   y-rot vel   z-rot vel   x-rot acc   y-rot acc   z-rot acc
    22626  8.49914E-03 1.44729E-02-2.93200E-03 6.86579E-03 8.79334E-03-2.45730E-03 3.52285E-03 1.70856E-03-6.18759E-04



 n o d a l   p r i n t   o u t   f o r   t i m e  s t e p   17002                              ( at time 8.4996494E+00 )

 nodal point  x-disp     y-disp      z-disp      x-vel       y-vel       z-vel      x-accl      y-accl      z-accl      x-coor      y-coor      z-coor
    22626  2.69143E-01 1.93796E-01-2.47133E+01 2.07824E-01 1.28237E-01-1.58298E+00 7.61950E-02-3.07500E-02 7.32024E-01 4.82333E+01-2.18360E+01-1.73748E+01



 n o d a l   p r i n t   o u t   f o r   t i m e  s t e p   17002                              ( at time 8.4996494E+00 )

 nodal point  x-rot      y-rot       z-rot       x-rot vel   y-rot vel   z-rot vel   x-rot acc   y-rot acc   z-rot acc
    22626  9.20340E-03 1.53595E-02-3.18123E-03 7.22914E-03 8.92590E-03-2.52402E-03 3.63388E-03 1.32573E-03-6.67358E-04



 n o d a l   p r i n t   o u t   f o r   t i m e  s t e p   17202                              ( at time 8.5996394E+00 )

 nodal point  x-disp     y-disp      z-disp      x-vel       y-vel       z-vel      x-accl      y-accl      z-accl      x-coor      y-coor      z-coor
    22626  2.90278E-01 2.06313E-01-2.48679E+01 2.14784E-01 1.22673E-01-1.50658E+00 6.96044E-02-5.56408E-02 7.64085E-01 4.82545E+01-2.18235E+01-1.75294E+01



 n o d a l   p r i n t   o u t   f o r   t i m e  s t e p   17202                              ( at time 8.5996394E+00 )

 nodal point  x-rot      y-rot       z-rot       x-rot vel   y-rot vel   z-rot vel   x-rot acc   y-rot acc   z-rot acc
    22626  9.94501E-03 1.62574E-02-3.43665E-03 7.60383E-03 9.05551E-03-2.57665E-03 3.74722E-03 1.29617E-03-5.26320E-04



 n o d a l   p r i n t   o u t   f o r   t i m e  s t e p   17402                              ( at time 8.6996293E+00 )

 nodal point  x-disp     y-disp      z-disp      x-vel       y-vel       z-vel      x-accl      y-accl      z-accl      x-coor      y-coor      z-coor
    22626  3.12088E-01 2.18322E-01-2.50147E+01 2.21153E-01 1.17121E-01-1.43024E+00 6.37032E-02-5.55276E-02 7.63477E-01 4.82763E+01-2.18115E+01-1.76762E+01



 n o d a l   p r i n t   o u t   f o r   t i m e  s t e p   17402                              ( at time 8.6996293E+00 )

 nodal point  x-rot      y-rot       z-rot       x-rot vel   y-rot vel   z-rot vel   x-rot acc   y-rot acc   z-rot acc
    22626  1.07253E-02 1.71684E-02-3.69889E-03 8.00188E-03 9.16491E-03-2.64091E-03 3.98088E-03 1.09413E-03-6.42669E-04



 n o d a l   p r i n t   o u t   f o r   t i m e  s t e p   17602                              ( at time 8.7996193E+00 )

 nodal point  x-disp     y-disp      z-disp      x-vel       y-vel       z-vel      x-accl      y-accl      z-accl      x-coor      y-coor      z-coor
    22626  3.34564E-01 2.29672E-01-2.51538E+01 2.28528E-01 1.10175E-01-1.35232E+00 7.37584E-02-6.94737E-02 7.79282E-01 4.82987E+01-2.18001E+01-1.78153E+01



 n o d a l   p r i n t   o u t   f o r   t i m e  s t e p   17602                              ( at time 8.7996193E+00 )

 nodal point  x-rot      y-rot       z-rot       x-rot vel   y-rot vel   z-rot vel   x-rot acc   y-rot acc   z-rot acc
    22626  1.15452E-02 1.80883E-02-3.96726E-03 8.39413E-03 9.23968E-03-2.71904E-03 3.92296E-03 7.47797E-04-7.81317E-04



 n o d a l   p r i n t   o u t   f o r   t i m e  s t e p   17802                              ( at time 8.8996093E+00 )

 nodal point  x-disp     y-disp      z-disp      x-vel       y-vel       z-vel      x-accl      y-accl      z-accl      x-coor      y-coor      z-coor
    22626  3.57786E-01 2.40279E-01-2.52849E+01 2.35743E-01 1.02613E-01-1.27167E+00 7.21560E-02-7.56278E-02 8.06617E-01 4.83220E+01-2.17895E+01-1.79464E+01



 n o d a l   p r i n t   o u t   f o r   t i m e  s t e p   17802                              ( at time 8.8996093E+00 )

 nodal point  x-rot      y-rot       z-rot       x-rot vel   y-rot vel   z-rot vel   x-rot acc   y-rot acc   z-rot acc
    22626  1.24042E-02 1.90181E-02-4.24194E-03 8.80920E-03 9.34035E-03-2.77878E-03 4.15107E-03 1.00678E-03-5.97546E-04



 n o d a l   p r i n t   o u t   f o r   t i m e  s t e p   18002                              ( at time 8.9995993E+00 )

 nodal point  x-disp     y-disp      z-disp      x-vel       y-vel       z-vel      x-accl      y-accl      z-accl      x-coor      y-coor      z-coor
    22626  3.81699E-01 2.50280E-01-2.54081E+01 2.42810E-01 9.66735E-02-1.19373E+00 7.06743E-02-5.93961E-02 7.79487E-01 4.83459E+01-2.17795E+01-1.80696E+01



 n o d a l   p r i n t   o u t   f o r   t i m e  s t e p   18002                              ( at time 8.9995993E+00 )

 nodal point  x-rot      y-rot       z-rot       x-rot vel   y-rot vel   z-rot vel   x-rot acc   y-rot acc   z-rot acc
    22626  1.33050E-02 1.99559E-02-4.52218E-03 9.20154E-03 9.42556E-03-2.83105E-03 3.92377E-03 8.52190E-04-5.22683E-04



 n o d a l   p r i n t   o u t   f o r   t i m e  s t e p   18202                              ( at time 9.0995893E+00 )

 nodal point  x-disp     y-disp      z-disp      x-vel       y-vel       z-vel      x-accl      y-accl      z-accl      x-coor      y-coor      z-coor
    22626  4.06331E-01 2.59645E-01-2.55235E+01 2.49887E-01 9.08615E-02-1.11511E+00 7.07774E-02-5.81260E-02 7.86279E-01 4.83705E+01-2.17701E+01-1.81850E+01



 n o d a l   p r i n t   o u t   f o r   t i m e  s t e p   18202                              ( at time 9.0995893E+00 )

 nodal point  x-rot      y-rot       z-rot       x-rot vel   y-rot vel   z-rot vel   x-rot acc   y-rot acc   z-rot acc
    22626  1.42453E-02 2.09030E-02-4.80823E-03 9.59574E-03 9.52096E-03-2.89840E-03 3.94246E-03 9.54087E-04-6.73589E-04



 n o d a l   p r i n t   o u t   f o r   t i m e  s t e p   18402                              ( at time 9.1995793E+00 )

 nodal point  x-disp     y-disp      z-disp      x-vel       y-vel       z-vel      x-accl      y-accl      z-accl      x-coor      y-coor      z-coor
    22626  4.31719E-01 2.68454E-01-2.56313E+01 2.57567E-01 8.56433E-02-1.03969E+00 7.68057E-02-5.21872E-02 7.54274E-01 4.83959E+01-2.17613E+01-1.82928E+01



 n o d a l   p r i n t   o u t   f o r   t i m e  s t e p   18402                              ( at time 9.1995793E+00 )

 nodal point  x-rot      y-rot       z-rot       x-rot vel   y-rot vel   z-rot vel   x-rot acc   y-rot acc   z-rot acc
    22626  1.52261E-02 2.18587E-02-5.09977E-03 9.99243E-03 9.60979E-03-2.93670E-03 3.96729E-03 8.88404E-04-3.82999E-04



 n o d a l   p r i n t   o u t   f o r   t i m e  s t e p   18602                              ( at time 9.2995693E+00 )

 nodal point  x-disp     y-disp      z-disp      x-vel       y-vel       z-vel      x-accl      y-accl      z-accl      x-coor      y-coor      z-coor
    22626  4.57701E-01 2.76683E-01-2.57315E+01 2.62588E-01 7.93692E-02-9.65545E-01 5.02142E-02-6.27477E-02 7.41508E-01 4.84219E+01-2.17531E+01-1.83930E+01



 n o d a l   p r i n t   o u t   f o r   t i m e  s t e p   18602                              ( at time 9.2995693E+00 )

 nodal point  x-rot      y-rot       z-rot       x-rot vel   y-rot vel   z-rot vel   x-rot acc   y-rot acc   z-rot acc
    22626  1.62450E-02 2.28244E-02-5.39522E-03 1.03954E-02 9.69787E-03-2.98803E-03 4.02990E-03 8.80897E-04-5.13383E-04



 n o d a l   p r i n t   o u t   f o r   t i m e  s t e p   18802                              ( at time 9.3995593E+00 )

 nodal point  x-disp     y-disp      z-disp      x-vel       y-vel       z-vel      x-accl      y-accl      z-accl      x-coor      y-coor      z-coor
    22626  4.84291E-01 2.84405E-01-2.58243E+01 2.68984E-01 7.53303E-02-8.93289E-01 6.39682E-02-4.03924E-02 7.22626E-01 4.84485E+01-2.17454E+01-1.84858E+01



 n o d a l   p r i n t   o u t   f o r   t i m e  s t e p   18802                              ( at time 9.3995593E+00 )

 nodal point  x-rot      y-rot       z-rot       x-rot vel   y-rot vel   z-rot vel   x-rot acc   y-rot acc   z-rot acc
    22626  1.73044E-02 2.38000E-02-5.69568E-03 1.07887E-02 9.80213E-03-3.03323E-03 3.93313E-03 1.04272E-03-4.52033E-04



 n o d a l   p r i n t   o u t   f o r   t i m e  s t e p   19002                              ( at time 9.4995493E+00 )

 nodal point  x-disp     y-disp      z-disp      x-vel       y-vel       z-vel      x-accl      y-accl      z-accl      x-coor      y-coor      z-coor
    22626  5.11565E-01 2.91701E-01-2.59100E+01 2.75522E-01 7.02978E-02-8.20325E-01 6.53881E-02-5.03307E-02 7.29717E-01 4.84757E+01-2.17381E+01-1.85715E+01



 n o d a l   p r i n t   o u t   f o r   t i m e  s t e p   19002                              ( at time 9.4995493E+00 )

 nodal point  x-rot      y-rot       z-rot       x-rot vel   y-rot vel   z-rot vel   x-rot acc   y-rot acc   z-rot acc
    22626  1.84016E-02 2.47832E-02-6.00104E-03 1.11611E-02 9.88071E-03-3.07062E-03 3.72528E-03 7.85836E-04-3.73978E-04



 n o d a l   p r i n t   o u t   f o r   t i m e  s t e p   19202                              ( at time 9.5995393E+00 )

 nodal point  x-disp     y-disp      z-disp      x-vel       y-vel       z-vel      x-accl      y-accl      z-accl      x-coor      y-coor      z-coor
    22626  5.39569E-01 2.98576E-01-2.59885E+01 2.83720E-01 6.63971E-02-7.49499E-01 8.19898E-02-3.90103E-02 7.08325E-01 4.85037E+01-2.17312E+01-1.86500E+01



 n o d a l   p r i n t   o u t   f o r   t i m e  s t e p   19202                              ( at time 9.5995393E+00 )

 nodal point  x-rot      y-rot       z-rot       x-rot vel   y-rot vel   z-rot vel   x-rot acc   y-rot acc   z-rot acc
    22626  1.95404E-02 2.57732E-02-6.31083E-03 1.15876E-02 9.94187E-03-3.09521E-03 4.26520E-03 6.11637E-04-2.45908E-04



 n o d a l   p r i n t   o u t   f o r   t i m e  s t e p   19402                              ( at time 9.6995293E+00 )

 nodal point  x-disp     y-disp      z-disp      x-vel       y-vel       z-vel      x-accl      y-accl      z-accl      x-coor      y-coor      z-coor
    22626  5.68259E-01 3.05177E-01-2.60598E+01 2.90109E-01 6.38927E-02-6.79735E-01 6.38955E-02-2.50468E-02 6.97712E-01 4.85324E+01-2.17246E+01-1.87213E+01



 n o d a l   p r i n t   o u t   f o r   t i m e  s t e p   19402                              ( at time 9.6995293E+00 )

 nodal point  x-rot      y-rot       z-rot       x-rot vel   y-rot vel   z-rot vel   x-rot acc   y-rot acc   z-rot acc
    22626  2.07185E-02 2.67702E-02-6.62573E-03 1.19660E-02 1.00197E-02-3.15941E-03 3.78453E-03 7.78711E-04-6.42067E-04



 n o d a l   p r i n t   o u t   f o r   t i m e  s t e p   19602                              ( at time 9.7995193E+00 )

 nodal point  x-disp     y-disp      z-disp      x-vel       y-vel       z-vel      x-accl      y-accl      z-accl      x-coor      y-coor      z-coor
    22626  5.97556E-01 3.11431E-01-2.61243E+01 2.95958E-01 6.30123E-02-6.11308E-01 5.84933E-02-8.80509E-03 6.84339E-01 4.85617E+01-2.17184E+01-1.87858E+01



 n o d a l   p r i n t   o u t   f o r   t i m e  s t e p   19602                              ( at time 9.7995193E+00 )

 nodal point  x-rot      y-rot       z-rot       x-rot vel   y-rot vel   z-rot vel   x-rot acc   y-rot acc   z-rot acc
    22626  2.19350E-02 2.77765E-02-6.94551E-03 1.23833E-02 1.00777E-02-3.23334E-03 4.17319E-03 5.79947E-04-7.39342E-04



 n o d a l   p r i n t   o u t   f o r   t i m e  s t e p   19802                              ( at time 9.8995093E+00 )

 nodal point  x-disp     y-disp      z-disp      x-vel       y-vel       z-vel      x-accl      y-accl      z-accl      x-coor      y-coor      z-coor
    22626  6.27660E-01 3.17581E-01-2.61821E+01 3.04594E-01 6.25661E-02-5.43252E-01 8.63660E-02-4.46178E-03 6.80630E-01 4.85918E+01-2.17122E+01-1.88436E+01



 n o d a l   p r i n t   o u t   f o r   t i m e  s t e p   19802                              ( at time 9.8995093E+00 )

 nodal point  x-rot      y-rot       z-rot       x-rot vel   y-rot vel   z-rot vel   x-rot acc   y-rot acc   z-rot acc
    22626  2.31914E-02 2.87865E-02-7.26940E-03 1.27563E-02 1.01386E-02-3.28043E-03 3.73026E-03 6.08709E-04-4.71010E-04



 n o d a l   p r i n t   o u t   f o r   t i m e  s t e p   20003                              ( at time 9.9999992E+00 )

 nodal point  x-disp     y-disp      z-disp      x-vel       y-vel       z-vel      x-accl      y-accl      z-accl      x-coor      y-coor      z-coor
[...]
    22626  2.53235E-01 1.51771E-01-7.05344E-02 1.78456E-02 7.92630E-03-6.08279E-03-1.06106E-04 1.41164E-04 3.70877E-04



 n o d a l   p r i n t   o u t   f o r   t i m e  s t e p   45205                              ( at time 2.2599738E+01 )

 nodal point  x-disp     y-disp      z-disp      x-vel       y-vel       z-vel      x-accl      y-accl      z-accl      x-coor      y-coor      z-coor
    22626  4.68639E+00 6.72058E-01-2.07364E+01 2.78935E-01-8.61806E-02 4.48210E-01 1.73605E-02-2.33695E-02-3.48987E-03 5.26506E+01-2.13577E+01-1.33979E+01



 n o d a l   p r i n t   o u t   f o r   t i m e  s t e p   45205                              ( at time 2.2599738E+01 )

 nodal point  x-rot      y-rot       z-rot       x-rot vel   y-rot vel   z-rot vel   x-rot acc   y-rot acc   z-rot acc
    22626  2.55019E-01 1.52564E-01-7.11404E-02 1.78339E-02 7.93882E-03-6.03842E-03-1.17376E-04 1.25265E-04 4.43685E-04



 n o d a l   p r i n t   o u t   f o r   t i m e  s t e p   45405                              ( at time 2.2699728E+01 )

 nodal point  x-disp     y-disp      z-disp      x-vel       y-vel       z-vel      x-accl      y-accl      z-accl      x-coor      y-coor      z-coor
    22626  4.71430E+00 6.63370E-01-2.06916E+01 2.79955E-01-8.77237E-02 4.48041E-01 1.02066E-02-1.54325E-02-1.68730E-03 5.26785E+01-2.13664E+01-1.33531E+01



 n o d a l   p r i n t   o u t   f o r   t i m e  s t e p   45405                              ( at time 2.2699728E+01 )

 nodal point  x-rot      y-rot       z-rot       x-rot vel   y-rot vel   z-rot vel   x-rot acc   y-rot acc   z-rot acc
    22626  2.56802E-01 1.53358E-01-7.17427E-02 1.78360E-02 7.95028E-03-6.00659E-03 2.11434E-05 1.14575E-04 3.18375E-04



 n o d a l   p r i n t   o u t   f o r   t i m e  s t e p   45605                              ( at time 2.2799718E+01 )

 nodal point  x-disp     y-disp      z-disp      x-vel       y-vel       z-vel      x-accl      y-accl      z-accl      x-coor      y-coor      z-coor
    22626  4.74237E+00 6.54512E-01-2.06469E+01 2.81139E-01-8.96771E-02 4.47229E-01 1.18398E-02-1.95362E-02-8.12396E-03 5.27066E+01-2.13753E+01-1.33084E+01



 n o d a l   p r i n t   o u t   f o r   t i m e  s t e p   45605                              ( at time 2.2799718E+01 )

 nodal point  x-rot      y-rot       z-rot       x-rot vel   y-rot vel   z-rot vel   x-rot acc   y-rot acc   z-rot acc
    22626  2.58585E-01 1.54153E-01-7.23419E-02 1.78297E-02 7.94979E-03-5.97105E-03-6.31495E-05-4.88989E-06 3.55416E-04



 n o d a l   p r i n t   o u t   f o r   t i m e  s t e p   45805                              ( at time 2.2899708E+01 )

 nodal point  x-disp     y-disp      z-disp      x-vel       y-vel       z-vel      x-accl      y-accl      z-accl      x-coor      y-coor      z-coor
    22626  4.77056E+00 6.45436E-01-2.06022E+01 2.82703E-01-9.20071E-02 4.46695E-01 1.56435E-02-2.33022E-02-5.33819E-03 5.27347E+01-2.13844E+01-1.32637E+01



 n o d a l   p r i n t   o u t   f o r   t i m e  s t e p   45805                              ( at time 2.2899708E+01 )

 nodal point  x-rot      y-rot       z-rot       x-rot vel   y-rot vel   z-rot vel   x-rot acc   y-rot acc   z-rot acc
    22626  2.60368E-01 1.54949E-01-7.29372E-02 1.78304E-02 7.96609E-03-5.92951E-03 7.30238E-06 1.63083E-04 4.15393E-04



 n o d a l   p r i n t   o u t   f o r   t i m e  s t e p   46005                              ( at time 2.2999698E+01 )

 nodal point  x-disp     y-disp      z-disp      x-vel       y-vel       z-vel      x-accl      y-accl      z-accl      x-coor      y-coor      z-coor
    22626  4.79893E+00 6.36119E-01-2.05576E+01 2.84391E-01-9.43694E-02 4.45504E-01 1.68786E-02-2.36256E-02-1.19092E-02 5.27631E+01-2.13937E+01-1.32191E+01



 n o d a l   p r i n t   o u t   f o r   t i m e  s t e p   46005                              ( at time 2.2999698E+01 )

 nodal point  x-rot      y-rot       z-rot       x-rot vel   y-rot vel   z-rot vel   x-rot acc   y-rot acc   z-rot acc
    22626  2.62151E-01 1.55746E-01-7.35283E-02 1.78381E-02 7.97270E-03-5.89442E-03 7.73255E-05 6.60461E-05 3.50978E-04



 n o d a l   p r i n t   o u t   f o r   t i m e  s t e p   46205                              ( at time 2.3099688E+01 )

 nodal point  x-disp     y-disp      z-disp      x-vel       y-vel       z-vel      x-accl      y-accl      z-accl      x-coor      y-coor      z-coor
    22626  4.82740E+00 6.26573E-01-2.05131E+01 2.85559E-01-9.63315E-02 4.44933E-01 1.16769E-02-1.96228E-02-5.70837E-03 5.27916E+01-2.14032E+01-1.31746E+01



 n o d a l   p r i n t   o u t   f o r   t i m e  s t e p   46205                              ( at time 2.3099688E+01 )

 nodal point  x-rot      y-rot       z-rot       x-rot vel   y-rot vel   z-rot vel   x-rot acc   y-rot acc   z-rot acc
    22626  2.63935E-01 1.56543E-01-7.41164E-02 1.78491E-02 7.97679E-03-5.86252E-03 1.10039E-04 4.08989E-05 3.19023E-04



 n o d a l   p r i n t   o u t   f o r   t i m e  s t e p   46405                              ( at time 2.3199678E+01 )

 nodal point  x-disp     y-disp      z-disp      x-vel       y-vel       z-vel      x-accl      y-accl      z-accl      x-coor      y-coor      z-coor
    22626  4.85604E+00 6.16840E-01-2.04686E+01 2.86709E-01-9.83811E-02 4.44297E-01 1.15030E-02-2.04980E-02-6.36308E-03 5.28202E+01-2.14130E+01-1.31301E+01



 n o d a l   p r i n t   o u t   f o r   t i m e  s t e p   46405                              ( at time 2.3199678E+01 )

 nodal point  x-rot      y-rot       z-rot       x-rot vel   y-rot vel   z-rot vel   x-rot acc   y-rot acc   z-rot acc
    22626  2.65720E-01 1.57341E-01-7.47003E-02 1.78483E-02 7.98702E-03-5.82045E-03-8.45718E-06 1.02324E-04 4.20722E-04



 n o d a l   p r i n t   o u t   f o r   t i m e  s t e p   46605                              ( at time 2.3299668E+01 )

 nodal point  x-disp     y-disp      z-disp      x-vel       y-vel       z-vel      x-accl      y-accl      z-accl      x-coor      y-coor      z-coor
    22626  4.88479E+00 6.06892E-01-2.04243E+01 2.88085E-01-1.00479E-01 4.42696E-01 1.37601E-02-2.09808E-02-1.60131E-02 5.28490E+01-2.14229E+01-1.30858E+01



 n o d a l   p r i n t   o u t   f o r   t i m e  s t e p   46605                              ( at time 2.3299668E+01 )

 nodal point  x-rot      y-rot       z-rot       x-rot vel   y-rot vel   z-rot vel   x-rot acc   y-rot acc   z-rot acc
    22626  2.67505E-01 1.58140E-01-7.52805E-02 1.78588E-02 7.99616E-03-5.78834E-03 1.05456E-04 9.13822E-05 3.21174E-04



 n o d a l   p r i n t   o u t   f o r   t i m e  s t e p   46805                              ( at time 2.3399658E+01 )

 nodal point  x-disp     y-disp      z-disp      x-vel       y-vel       z-vel      x-accl      y-accl      z-accl      x-coor      y-coor      z-coor
    22626  4.91367E+00 5.96768E-01-2.03800E+01 2.89552E-01-1.01896E-01 4.42416E-01 1.46763E-02-1.41736E-02-2.79631E-03 5.28778E+01-2.14330E+01-1.30415E+01



 n o d a l   p r i n t   o u t   f o r   t i m e  s t e p   46805                              ( at time 2.3399658E+01 )

 nodal point  x-rot      y-rot       z-rot       x-rot vel   y-rot vel   z-rot vel   x-rot acc   y-rot acc   z-rot acc
    22626  2.69292E-01 1.58940E-01-7.58575E-02 1.78856E-02 8.00202E-03-5.75432E-03 2.67351E-04 5.86321E-05 3.40257E-04



 n o d a l   p r i n t   o u t   f o r   t i m e  s t e p   47005                              ( at time 2.3499648E+01 )

 nodal point  x-disp     y-disp      z-disp      x-vel       y-vel       z-vel      x-accl      y-accl      z-accl      x-coor      y-coor      z-coor
    22626  4.94268E+00 5.86483E-01-2.03358E+01 2.90995E-01-1.03849E-01 4.40608E-01 1.44259E-02-1.95307E-02-1.80881E-02 5.29069E+01-2.14433E+01-1.29973E+01



 n o d a l   p r i n t   o u t   f o r   t i m e  s t e p   47005                              ( at time 2.3499648E+01 )

 nodal point  x-rot      y-rot       z-rot       x-rot vel   y-rot vel   z-rot vel   x-rot acc   y-rot acc   z-rot acc
    22626  2.71081E-01 1.59740E-01-7.64306E-02 1.79015E-02 8.00059E-03-5.71131E-03 1.58917E-04-1.42599E-05 4.30078E-04



 n o d a l   p r i n t   o u t   f o r   t i m e  s t e p   47205                              ( at time 2.3599638E+01 )

 nodal point  x-disp     y-disp      z-disp      x-vel       y-vel       z-vel      x-accl      y-accl      z-accl      x-coor      y-coor      z-coor
    22626  4.97181E+00 5.76034E-01-2.02919E+01 2.91927E-01-1.05105E-01 4.39284E-01 9.32201E-03-1.25643E-02-1.32361E-02 5.29360E+01-2.14538E+01-1.29534E+01



 n o d a l   p r i n t   o u t   f o r   t i m e  s t e p   47205                              ( at time 2.3599638E+01 )

 nodal point  x-rot      y-rot       z-rot       x-rot vel   y-rot vel   z-rot vel   x-rot acc   y-rot acc   z-rot acc
    22626  2.72871E-01 1.60541E-01-7.70001E-02 1.78999E-02 8.01340E-03-5.67641E-03-1.51636E-05 1.28118E-04 3.49033E-04



 n o d a l   p r i n t   o u t   f o r   t i m e  s t e p   47405                              ( at time 2.3699628E+01 )

 nodal point  x-disp     y-disp      z-disp      x-vel       y-vel       z-vel      x-accl      y-accl      z-accl      x-coor      y-coor      z-coor
    22626  5.00106E+00 5.65479E-01-2.02480E+01 2.93105E-01-1.05956E-01 4.37784E-01 1.17810E-02-8.50979E-03-1.49994E-02 5.29652E+01-2.14643E+01-1.29095E+01



 n o d a l   p r i n t   o u t   f o r   t i m e  s t e p   47405                              ( at time 2.3699628E+01 )

 nodal point  x-rot      y-rot       z-rot       x-rot vel   y-rot vel   z-rot vel   x-rot acc   y-rot acc   z-rot acc
    22626  2.74663E-01 1.61342E-01-7.75662E-02 1.79347E-02 8.01038E-03-5.64554E-03 3.47210E-04-3.02242E-05 3.08710E-04



 n o d a l   p r i n t   o u t   f o r   t i m e  s t e p   47605                              ( at time 2.3799618E+01 )

 nodal point  x-disp     y-disp      z-disp      x-vel       y-vel       z-vel      x-accl      y-accl      z-accl      x-coor      y-coor      z-coor
    22626  5.03039E+00 5.54849E-01-2.02043E+01 2.94024E-01-1.06593E-01 4.36872E-01 9.19086E-03-6.36417E-03-9.12380E-03 5.29946E+01-2.14749E+01-1.28658E+01



 n o d a l   p r i n t   o u t   f o r   t i m e  s t e p   47605                              ( at time 2.3799618E+01 )

 nodal point  x-rot      y-rot       z-rot       x-rot vel   y-rot vel   z-rot vel   x-rot acc   y-rot acc   z-rot acc
    22626  2.76457E-01 1.62143E-01-7.81293E-02 1.79491E-02 8.01753E-03-5.61137E-03 1.44390E-04 7.14776E-05 3.41777E-04



 n o d a l   p r i n t   o u t   f o r   t i m e  s t e p   47805                              ( at time 2.3899608E+01 )

 nodal point  x-disp     y-disp      z-disp      x-vel       y-vel       z-vel      x-accl      y-accl      z-accl      x-coor      y-coor      z-coor
    22626  5.05984E+00 5.44155E-01-2.01607E+01 2.94838E-01-1.07696E-01 4.34326E-01 8.14244E-03-1.10388E-02-2.54619E-02 5.30240E+01-2.14856E+01-1.28222E+01



 n o d a l   p r i n t   o u t   f o r   t i m e  s t e p   47805                              ( at time 2.3899608E+01 )

 nodal point  x-rot      y-rot       z-rot       x-rot vel   y-rot vel   z-rot vel   x-rot acc   y-rot acc   z-rot acc
    22626  2.78252E-01 1.62945E-01-7.86889E-02 1.79695E-02 8.01784E-03-5.57911E-03 2.03699E-04 3.12953E-06 3.22630E-04



 n o d a l   p r i n t   o u t   f o r   t i m e  s t e p   48005                              ( at time 2.3999598E+01 )

 nodal point  x-disp     y-disp      z-disp      x-vel       y-vel       z-vel      x-accl      y-accl      z-accl      x-coor      y-coor      z-coor
    22626  5.08936E+00 5.33359E-01-2.01174E+01 2.95435E-01-1.07679E-01 4.32589E-01 5.97573E-03 1.76002E-04-1.73719E-02 5.30535E+01-2.14964E+01-1.27789E+01



 n o d a l   p r i n t   o u t   f o r   t i m e  s t e p   48005                              ( at time 2.3999598E+01 )

 nodal point  x-rot      y-rot       z-rot       x-rot vel   y-rot vel   z-rot vel   x-rot acc   y-rot acc   z-rot acc
    22626  2.80051E-01 1.63746E-01-7.92456E-02 1.79982E-02 8.01827E-03-5.55291E-03 2.87755E-04 4.28456E-06 2.62071E-04



 n o d a l   p r i n t   o u t   f o r   t i m e  s t e p   48205                              ( at time 2.4099588E+01 )

 nodal point  x-disp     y-disp      z-disp      x-vel       y-vel       z-vel      x-accl      y-accl      z-accl      x-coor      y-coor      z-coor
    22626  5.11894E+00 5.22647E-01-2.00742E+01 2.95832E-01-1.07016E-01 4.30788E-01 3.96973E-03 6.62924E-03-1.80142E-02 5.30831E+01-2.15071E+01-1.27357E+01



 n o d a l   p r i n t   o u t   f o r   t i m e  s t e p   48205                              ( at time 2.4099588E+01 )

 nodal point  x-rot      y-rot       z-rot       x-rot vel   y-rot vel   z-rot vel   x-rot acc   y-rot acc   z-rot acc
    22626  2.81852E-01 1.64548E-01-7.97999E-02 1.80259E-02 8.02032E-03-5.52716E-03 2.76684E-04 2.04537E-05 2.57506E-04



 n o d a l   p r i n t   o u t   f o r   t i m e  s t e p   48405                              ( at time 2.4199578E+01 )

 nodal point  x-disp     y-disp      z-disp      x-vel       y-vel       z-vel      x-accl      y-accl      z-accl      x-coor      y-coor      z-coor
    22626  5.14858E+00 5.11950E-01-2.00313E+01 2.96952E-01-1.06777E-01 4.28238E-01 1.11980E-02 2.38885E-03-2.55053E-02 5.31128E+01-2.15178E+01-1.26928E+01



 n o d a l   p r i n t   o u t   f o r   t i m e  s t e p   48405                              ( at time 2.4199578E+01 )

 nodal point  x-rot      y-rot       z-rot       x-rot vel   y-rot vel   z-rot vel   x-rot acc   y-rot acc   z-rot acc
    22626  2.83655E-01 1.65350E-01-8.03511E-02 1.80445E-02 8.01059E-03-5.50137E-03 1.86136E-04-9.73060E-05 2.57898E-04



 n o d a l   p r i n t   o u t   f o r   t i m e  s t e p   48605                              ( at time 2.4299568E+01 )

 nodal point  x-disp     y-disp      z-disp      x-vel       y-vel       z-vel      x-accl      y-accl      z-accl      x-coor      y-coor      z-coor
    22626  5.17825E+00 5.01316E-01-1.99886E+01 2.96854E-01-1.05888E-01 4.25819E-01-9.77606E-04 8.88667E-03-2.41874E-02 5.31424E+01-2.15285E+01-1.26501E+01



 n o d a l   p r i n t   o u t   f o r   t i m e  s t e p   48605                              ( at time 2.4299568E+01 )

 nodal point  x-rot      y-rot       z-rot       x-rot vel   y-rot vel   z-rot vel   x-rot acc   y-rot acc   z-rot acc
    22626  2.85461E-01 1.66151E-01-8.08999E-02 1.80697E-02 8.01107E-03-5.48234E-03 2.52132E-04 4.83401E-06 1.90291E-04



 n o d a l   p r i n t   o u t   f o r   t i m e  s t e p   48805                              ( at time 2.4399558E+01 )

 nodal point  x-disp     y-disp      z-disp      x-vel       y-vel       z-vel      x-accl      y-accl      z-accl      x-coor      y-coor      z-coor
    22626  5.20795E+00 4.90777E-01-1.99461E+01 2.97362E-01-1.04537E-01 4.23894E-01 5.08236E-03 1.35126E-02-1.92529E-02 5.31721E+01-2.15390E+01-1.26076E+01



 n o d a l   p r i n t   o u t   f o r   t i m e  s t e p   48805                              ( at time 2.4399558E+01 )

 nodal point  x-rot      y-rot       z-rot       x-rot vel   y-rot vel   z-rot vel   x-rot acc   y-rot acc   z-rot acc
    22626  2.87269E-01 1.66952E-01-8.14465E-02 1.81040E-02 8.00820E-03-5.45738E-03 3.43056E-04-2.86780E-05 2.49617E-04



 n o d a l   p r i n t   o u t   f o r   t i m e  s t e p   49006                              ( at time 2.4500048E+01 )

 nodal point  x-disp     y-disp      z-disp      x-vel       y-vel       z-vel      x-accl      y-accl      z-accl      x-coor      y-coor      z-coor
    22626  5.23784E+00 4.80348E-01-1.99036E+01 2.97086E-01-1.03096E-01 4.21436E-01-2.75577E-03 1.43467E-02-2.44555E-02 5.32020E+01-2.15494E+01-1.25651E+01



 n o d a l   p r i n t   o u t   f o r   t i m e  s t e p   49006                              ( at time 2.4500048E+01 )

 nodal point  x-rot      y-rot       z-rot       x-rot vel   y-rot vel   z-rot vel   x-rot acc   y-rot acc   z-rot acc
    22626  2.89090E-01 1.67756E-01-8.19933E-02 1.81231E-02 8.00185E-03-5.43196E-03 1.90178E-04-6.32259E-05 2.53033E-04



 n o d a l   p r i n t   o u t   f o r   t i m e  s t e p   49206                              ( at time 2.4600038E+01 )

 nodal point  x-disp     y-disp      z-disp      x-vel       y-vel       z-vel      x-accl      y-accl      z-accl      x-coor      y-coor      z-coor
    22626  5.26756E+00 4.70112E-01-1.98616E+01 2.97264E-01-1.01724E-01 4.19246E-01 1.78741E-03 1.37216E-02-2.19049E-02 5.32317E+01-2.15597E+01-1.25231E+01



 n o d a l   p r i n t   o u t   f o r   t i m e  s t e p   49206                              ( at time 2.4600038E+01 )

 nodal point  x-rot      y-rot       z-rot       x-rot vel   y-rot vel   z-rot vel   x-rot acc   y-rot acc   z-rot acc
    22626  2.90902E-01 1.68556E-01-8.25359E-02 1.81313E-02 7.99523E-03-5.41543E-03 8.12001E-05-6.62138E-05 1.65316E-04



 n o d a l   p r i n t   o u t   f o r   t i m e  s t e p   49406                              ( at time 2.4700028E+01 )

 nodal point  x-disp     y-disp      z-disp      x-vel       y-vel       z-vel      x-accl      y-accl      z-accl      x-coor      y-coor      z-coor
    22626  5.29726E+00 4.60038E-01-1.98198E+01 2.97161E-01-9.97636E-02 4.17172E-01-1.03634E-03 1.96024E-02-2.07459E-02 5.32614E+01-2.15698E+01-1.24813E+01



 n o d a l   p r i n t   o u t   f o r   t i m e  s t e p   49406                              ( at time 2.4700028E+01 )

 nodal point  x-rot      y-rot       z-rot       x-rot vel   y-rot vel   z-rot vel   x-rot acc   y-rot acc   z-rot acc
    22626  2.92717E-01 1.69355E-01-8.30767E-02 1.81712E-02 7.98979E-03-5.39998E-03 3.99246E-04-5.43953E-05 1.54444E-04



 n o d a l   p r i n t   o u t   f o r   t i m e  s t e p   49606                              ( at time 2.4800018E+01 )

 nodal point  x-disp     y-disp      z-disp      x-vel       y-vel       z-vel      x-accl      y-accl      z-accl      x-coor      y-coor      z-coor
    22626  5.32692E+00 4.50157E-01-1.97782E+01 2.96423E-01-9.78343E-02 4.15165E-01-7.37735E-03 1.92950E-02-2.00737E-02 5.32911E+01-2.15796E+01-1.24397E+01



 n o d a l   p r i n t   o u t   f o r   t i m e  s t e p   49606                              ( at time 2.4800018E+01 )

 nodal point  x-rot      y-rot       z-rot       x-rot vel   y-rot vel   z-rot vel   x-rot acc   y-rot acc   z-rot acc
    22626  2.94535E-01 1.70153E-01-8.36162E-02 1.81841E-02 7.97870E-03-5.38883E-03 1.29689E-04-1.10893E-04 1.11583E-04



 n o d a l   p r i n t   o u t   f o r   t i m e  s t e p   49806                              ( at time 2.4900008E+01 )

 nodal point  x-disp     y-disp      z-disp      x-vel       y-vel       z-vel      x-accl      y-accl      z-accl      x-coor      y-coor      z-coor
    22626  5.35654E+00 4.40430E-01-1.97368E+01 2.95818E-01-9.64164E-02 4.12503E-01-6.04696E-03 1.41803E-02-2.66176E-02 5.33207E+01-2.15894E+01-1.23983E+01



 n o d a l   p r i n t   o u t   f o r   t i m e  s t e p   49806                              ( at time 2.4900008E+01 )

 nodal point  x-rot      y-rot       z-rot       x-rot vel   y-rot vel   z-rot vel   x-rot acc   y-rot acc   z-rot acc
    22626  2.96354E-01 1.70951E-01-8.41543E-02 1.82144E-02 7.96996E-03-5.37753E-03 3.02508E-04-8.74515E-05 1.12977E-04



 n o d a l   p r i n t   o u t   f o r   t i m e  s t e p   50006                              ( at time 2.4999998E+01 )

 nodal point  x-disp     y-disp      z-disp      x-vel       y-vel       z-vel      x-accl      y-accl      z-accl      x-coor      y-coor      z-coor
    22626  5.38611E+00 4.30896E-01-1.96956E+01 2.95317E-01-9.43607E-02 4.10744E-01-5.01112E-03 2.05589E-02-1.75933E-02 5.33503E+01-2.15989E+01-1.23571E+01



 n o d a l   p r i n t   o u t   f o r   t i m e  s t e p   50006                              ( at time 2.4999998E+01 )

 nodal point  x-rot      y-rot       z-rot       x-rot vel   y-rot vel   z-rot vel   x-rot acc   y-rot acc   z-rot acc
    22626  2.98176E-01 1.71747E-01-8.46916E-02 1.82324E-02 7.96001E-03-5.37094E-03 1.79929E-04-9.94278E-05 6.59157E-05
