 LSTC 50th% Full_FE H-III Dummy (Beta Version, February 17, 2019)        
                    ls-dyna smp s R16 R16.0_619_d222963 date 03/18/2025

{BEGIN LEGEND}
 Entity #        Title
    22626                                                                                     
{END LEGEND}




 n o d a l   p r i n t   o u t   f o r   t i m e  s t e p       1                              ( at time 0.0000000E+00 )

 nodal point  x-disp     y-disp      z-disp      x-vel       y-vel       z-vel      x-accl      y-accl      z-accl      x-coor      y-coor      z-coor
    22626  0.00000E+00 0.00000E+00 0.00000E+00 0.00000E+00 0.00000E+00-3.12000E+00 0.00000E+00 0.00000E+00 0.00000E+00 4.79642E+01-2.20298E+01 7.33850E+00



 n o d a l   p r i n t   o u t   f o r   t i m e  s t e p       1                              ( at time 0.0000000E+00 )

 nodal point  x-rot      y-rot       z-rot       x-rot vel   y-rot vel   z-rot vel   x-rot acc   y-rot acc   z-rot acc
    22626  0.00000E+00 0.00000E+00 0.00000E+00 0.00000E+00 0.00000E+00 0.00000E+00 0.00000E+00 0.00000E+00 0.00000E+00



 n o d a l   p r i n t   o u t   f o r   t i m e  s t e p     201                              ( at time 9.9989993E-02 )

 nodal point  x-disp     y-disp      z-disp      x-vel       y-vel       z-vel      x-accl      y-accl      z-accl      x-coor      y-coor      z-coor
    22626  8.34338E-07-4.04395E-06-3.12016E-01 4.76694E-05-4.96400E-04-3.12074E+00 4.76741E-04-4.96450E-03-7.42748E-03 4.79642E+01-2.20298E+01 7.02648E+00



 n o d a l   p r i n t   o u t   f o r   t i m e  s t e p     201                              ( at time 9.9989993E-02 )

 nodal point  x-rot      y-rot       z-rot       x-rot vel   y-rot vel   z-rot vel   x-rot acc   y-rot acc   z-rot acc
    22626  9.59363E-09 3.04082E-08 5.27113E-08 1.30583E-06 2.72302E-06 5.21314E-06 1.30596E-05 2.72329E-05 5.21366E-05



 n o d a l   p r i n t   o u t   f o r   t i m e  s t e p     401                              ( at time 1.9997999E-01 )

 nodal point  x-disp     y-disp      z-disp      x-vel       y-vel       z-vel      x-accl      y-accl      z-accl      x-coor      y-coor      z-coor
    22626 -5.12779E-05-5.21523E-04-6.23853E-01-1.09655E-03-1.11119E-02-3.11558E+00-1.14433E-02-1.06166E-01 5.16180E-02 4.79641E+01-2.20303E+01 6.71465E+00



 n o d a l   p r i n t   o u t   f o r   t i m e  s t e p     401                              ( at time 1.9997999E-01 )

 nodal point  x-rot      y-rot       z-rot       x-rot vel   y-rot vel   z-rot vel   x-rot acc   y-rot acc   z-rot acc
    22626  4.60111E-07 1.33020E-06 2.50272E-06 2.61792E-06 1.90508E-05 3.49498E-05 1.31222E-05 1.63294E-04 2.97396E-04



 n o d a l   p r i n t   o u t   f o r   t i m e  s t e p     601                              ( at time 2.9996998E-01 )

 nodal point  x-disp     y-disp      z-disp      x-vel       y-vel       z-vel      x-accl      y-accl      z-accl      x-coor      y-coor      z-coor
    22626 -2.45897E-05-1.97595E-03-9.35238E-01 1.66052E-03-1.60425E-02-3.11415E+00 2.75734E-02-4.93105E-02 1.43065E-02 4.79642E+01-2.20318E+01 6.40326E+00



 n o d a l   p r i n t   o u t   f o r   t i m e  s t e p     601                              ( at time 2.9996998E-01 )

 nodal point  x-rot      y-rot       z-rot       x-rot vel   y-rot vel   z-rot vel   x-rot acc   y-rot acc   z-rot acc
    22626  6.74912E-07 2.41368E-06 4.83139E-06 8.30626E-06 5.43995E-06 1.47759E-05 5.68891E-05-1.36122E-04-2.01759E-04



 n o d a l   p r i n t   o u t   f o r   t i m e  s t e p     801                              ( at time 3.9995997E-01 )

 nodal point  x-disp     y-disp      z-disp      x-vel       y-vel       z-vel      x-accl      y-accl      z-accl      x-coor      y-coor      z-coor
    22626  5.96587E-05-3.57292E-03-1.24663E+00 1.97222E-04-1.73820E-02-3.11354E+00-1.46344E-02-1.33973E-02 6.09936E-03 4.79642E+01-2.20334E+01 6.09187E+00



 n o d a l   p r i n t   o u t   f o r   t i m e  s t e p     801                              ( at time 3.9995997E-01 )

 nodal point  x-rot      y-rot       z-rot       x-rot vel   y-rot vel   z-rot vel   x-rot acc   y-rot acc   z-rot acc
    22626  1.58373E-06 3.68073E-06 6.68233E-06 6.30742E-06 2.41684E-05 3.81557E-05-1.99903E-05 1.87303E-04 2.33822E-04



 n o d a l   p r i n t   o u t   f o r   t i m e  s t e p    1001                              ( at time 4.9994997E-01 )

 nodal point  x-disp     y-disp      z-disp      x-vel       y-vel       z-vel      x-accl      y-accl      z-accl      x-coor      y-coor      z-coor
    22626  7.39204E-05-5.62863E-03-1.55782E+00 9.00742E-04-2.38226E-02-3.11086E+00 7.03591E-03-6.44122E-02 2.67676E-02 4.79643E+01-2.20354E+01 5.78068E+00



 n o d a l   p r i n t   o u t   f o r   t i m e  s t e p    1001                              ( at time 4.9994997E-01 )

 nodal point  x-rot      y-rot       z-rot       x-rot vel   y-rot vel   z-rot vel   x-rot acc   y-rot acc   z-rot acc
    22626  1.49500E-06 6.64738E-06 1.18365E-05-4.87967E-06 4.38440E-05 7.20134E-05-1.11882E-04 1.96775E-04 3.38611E-04



 n o d a l   p r i n t   o u t   f o r   t i m e  s t e p    1201                              ( at time 5.9993996E-01 )

 nodal point  x-disp     y-disp      z-disp      x-vel       y-vel       z-vel      x-accl      y-accl      z-accl      x-coor      y-coor      z-coor
    22626  5.61619E-05-8.13079E-03-1.86888E+00-5.24785E-04-2.60711E-02-3.11086E+00-1.42567E-02-2.24870E-02 7.63016E-05 4.79642E+01-2.20379E+01 5.46962E+00



 n o d a l   p r i n t   o u t   f o r   t i m e  s t e p    1201                              ( at time 5.9993996E-01 )

 nodal point  x-rot      y-rot       z-rot       x-rot vel   y-rot vel   z-rot vel   x-rot acc   y-rot acc   z-rot acc
    22626  1.25739E-06 9.87771E-06 1.77474E-05-2.25610E-06 2.62643E-05 5.29669E-05 2.62383E-05-1.75814E-04-1.90484E-04



 n o d a l   p r i n t   o u t   f o r   t i m e  s t e p    1401                              ( at time 6.9992995E-01 )

 nodal point  x-disp     y-disp      z-disp      x-vel       y-vel       z-vel      x-accl      y-accl      z-accl      x-coor      y-coor      z-coor
    22626  2.69871E-05-1.10097E-02-2.17977E+00 7.50582E-04-3.22018E-02-3.10773E+00 1.27549E-02-6.13132E-02 3.13123E-02 4.79642E+01-2.20408E+01 5.15873E+00



 n o d a l   p r i n t   o u t   f o r   t i m e  s t e p    1401                              ( at time 6.9992995E-01 )

 nodal point  x-rot      y-rot       z-rot       x-rot vel   y-rot vel   z-rot vel   x-rot acc   y-rot acc   z-rot acc
    22626  1.10284E-06 1.30620E-05 2.27062E-05-2.26416E-06 3.75917E-05 5.89656E-05-8.05529E-08 1.13285E-04 5.99925E-05



 n o d a l   p r i n t   o u t   f o r   t i m e  s t e p    1601                              ( at time 7.9991994E-01 )

 nodal point  x-disp     y-disp      z-disp      x-vel       y-vel       z-vel      x-accl      y-accl      z-accl      x-coor      y-coor      z-coor
    22626  1.44601E-04-1.45542E-02-2.49039E+00 1.42165E-03-3.67369E-02-3.10605E+00 6.71132E-03-4.53556E-02 1.67243E-02 4.79643E+01-2.20443E+01 4.84811E+00



 n o d a l   p r i n t   o u t   f o r   t i m e  s t e p    1601                              ( at time 7.9991994E-01 )

 nodal point  x-rot      y-rot       z-rot       x-rot vel   y-rot vel   z-rot vel   x-rot acc   y-rot acc   z-rot acc
    22626  1.02426E-06 1.71881E-05 2.96462E-05 3.11215E-06 4.86886E-05 7.61585E-05 5.37685E-05 1.10980E-04 1.71947E-04



 n o d a l   p r i n t   o u t   f o r   t i m e  s t e p    1801                              ( at time 8.9990994E-01 )

 nodal point  x-disp     y-disp      z-disp      x-vel       y-vel       z-vel      x-accl      y-accl      z-accl      x-coor      y-coor      z-coor
    22626  2.26057E-04-1.81888E-02-2.80105E+00-4.17205E-04-3.63394E-02-3.10747E+00-1.83904E-02 3.97558E-03-1.41468E-02 4.79644E+01-2.20480E+01 4.53745E+00



 n o d a l   p r i n t   o u t   f o r   t i m e  s t e p    1801                              ( at time 8.9990994E-01 )

 nodal point  x-rot      y-rot       z-rot       x-rot vel   y-rot vel   z-rot vel   x-rot acc   y-rot acc   z-rot acc
    22626  1.05113E-06 2.12789E-05 3.66020E-05-1.73844E-06 3.76158E-05 6.78391E-05-4.85108E-05-1.10740E-04-8.32029E-05



 n o d a l   p r i n t   o u t   f o r   t i m e  s t e p    2001                              ( at time 9.9989993E-01 )

 nodal point  x-disp     y-disp      z-disp      x-vel       y-vel       z-vel      x-accl      y-accl      z-accl      x-coor      y-coor      z-coor
    22626  1.38914E-04-2.18901E-02-3.11177E+00-7.02471E-04-3.82527E-02-3.10764E+00-2.85294E-03-1.91354E-02-1.74301E-03 4.79643E+01-2.20517E+01 4.22673E+00



 n o d a l   p r i n t   o u t   f o r   t i m e  s t e p    2001                              ( at time 9.9989993E-01 )

 nodal point  x-rot      y-rot       z-rot       x-rot vel   y-rot vel   z-rot vel   x-rot acc   y-rot acc   z-rot acc
    22626  9.07039E-07 2.54543E-05 4.37525E-05-4.98192E-07 4.57869E-05 8.53932E-05 1.24037E-05 8.17199E-05 1.75559E-04



 n o d a l   p r i n t   o u t   f o r   t i m e  s t e p    2201                              ( at time 1.0998899E+00 )

 nodal point  x-disp     y-disp      z-disp      x-vel       y-vel       z-vel      x-accl      y-accl      z-accl      x-coor      y-coor      z-coor
    22626  1.34450E-04-2.58236E-02-3.42249E+00-6.09772E-05-4.01106E-02-3.10721E+00 6.41558E-03-1.85802E-02 4.30627E-03 4.79643E+01-2.20556E+01 3.91601E+00



 n o d a l   p r i n t   o u t   f o r   t i m e  s t e p    2201                              ( at time 1.0998899E+00 )

 nodal point  x-rot      y-rot       z-rot       x-rot vel   y-rot vel   z-rot vel   x-rot acc   y-rot acc   z-rot acc
    22626  1.02037E-06 3.01998E-05 5.23184E-05 5.63613E-06 4.58839E-05 7.39993E-05 6.13494E-05 9.69582E-07-1.13951E-04



 n o d a l   p r i n t   o u t   f o r   t i m e  s t e p    2401                              ( at time 1.1998799E+00 )

 nodal point  x-disp     y-disp      z-disp      x-vel       y-vel       z-vel      x-accl      y-accl      z-accl      x-coor      y-coor      z-coor
    22626  1.94452E-04-2.98217E-02-3.73324E+00 9.31365E-04-3.96036E-02-3.10862E+00 9.92441E-03 5.07040E-03-1.40848E-02 4.79644E+01-2.20596E+01 3.60526E+00



 n o d a l   p r i n t   o u t   f o r   t i m e  s t e p    2401                              ( at time 1.1998799E+00 )

 nodal point  x-rot      y-rot       z-rot       x-rot vel   y-rot vel   z-rot vel   x-rot acc   y-rot acc   z-rot acc
    22626  1.46447E-06 3.42869E-05 5.90580E-05 5.37653E-06 3.92404E-05 6.45656E-05-2.59626E-06-6.64414E-05-9.43467E-05



 n o d a l   p r i n t   o u t   f o r   t i m e  s t e p    2601                              ( at time 1.2998699E+00 )

 nodal point  x-disp     y-disp      z-disp      x-vel       y-vel       z-vel      x-accl      y-accl      z-accl      x-coor      y-coor      z-coor
    22626  2.28831E-04-3.36401E-02-4.04418E+00-1.77044E-04-3.63698E-02-3.11145E+00-1.10852E-02 3.23405E-02-2.82960E-02 4.79644E+01-2.20634E+01 3.29432E+00



 n o d a l   p r i n t   o u t   f o r   t i m e  s t e p    2601                              ( at time 1.2998699E+00 )

 nodal point  x-rot      y-rot       z-rot       x-rot vel   y-rot vel   z-rot vel   x-rot acc   y-rot acc   z-rot acc
    22626  1.81642E-06 3.82831E-05 6.57429E-05-2.07553E-06 4.45541E-05 7.84255E-05-7.45281E-05 5.31426E-05 1.38614E-04



 n o d a l   p r i n t   o u t   f o r   t i m e  s t e p    2801                              ( at time 1.3998599E+00 )

 nodal point  x-disp     y-disp      z-disp      x-vel       y-vel       z-vel      x-accl      y-accl      z-accl      x-coor      y-coor      z-coor
    22626  1.40275E-04-3.70098E-02-4.35550E+00-1.02526E-03-3.11620E-02-3.11528E+00-8.48302E-03 5.20832E-02-3.83058E-02 4.79643E+01-2.20668E+01 2.98300E+00



 n o d a l   p r i n t   o u t   f o r   t i m e  s t e p    2801                              ( at time 1.3998599E+00 )

 nodal point  x-rot      y-rot       z-rot       x-rot vel   y-rot vel   z-rot vel   x-rot acc   y-rot acc   z-rot acc
    22626  1.43778E-06 4.25758E-05 7.34123E-05-3.92775E-06 4.33333E-05 7.14158E-05-1.85241E-05-1.22097E-05-7.01043E-05



 n o d a l   p r i n t   o u t   f o r   t i m e  s t e p    3001                              ( at time 1.4998499E+00 )

 nodal point  x-disp     y-disp      z-disp      x-vel       y-vel       z-vel      x-accl      y-accl      z-accl      x-coor      y-coor      z-coor
    22626  6.19659E-05-4.00241E-02-4.66711E+00-1.33052E-04-2.94620E-02-3.11729E+00 8.92298E-03 1.70018E-02-2.01412E-02 4.79642E+01-2.20698E+01 2.67139E+00



 n o d a l   p r i n t   o u t   f o r   t i m e  s t e p    3001                              ( at time 1.4998499E+00 )

 nodal point  x-rot      y-rot       z-rot       x-rot vel   y-rot vel   z-rot vel   x-rot acc   y-rot acc   z-rot acc
    22626  1.11869E-06 4.63597E-05 7.97407E-05-9.74234E-07 3.07049E-05 5.50185E-05 2.95381E-05-1.26296E-04-1.63989E-04



 n o d a l   p r i n t   o u t   f o r   t i m e  s t e p    3201                              ( at time 1.5998399E+00 )

 nodal point  x-disp     y-disp      z-disp      x-vel       y-vel       z-vel      x-accl      y-accl      z-accl      x-coor      y-coor      z-coor
    22626  5.28094E-05-4.28848E-02-4.97889E+00-3.11584E-04-2.71962E-02-3.11961E+00-1.78550E-03 2.26602E-02-2.31218E-02 4.79642E+01-2.20727E+01 2.35961E+00



 n o d a l   p r i n t   o u t   f o r   t i m e  s t e p    3201                              ( at time 1.5998399E+00 )

 nodal point  x-rot      y-rot       z-rot       x-rot vel   y-rot vel   z-rot vel   x-rot acc   y-rot acc   z-rot acc
    22626  8.97361E-07 4.92687E-05 8.43683E-05-4.68362E-07 3.09847E-05 4.52015E-05 5.05922E-06 2.79825E-06-9.81805E-05



 n o d a l   p r i n t   o u t   f o r   t i m e  s t e p    3401                              ( at time 1.6998299E+00 )

 nodal point  x-disp     y-disp      z-disp      x-vel       y-vel       z-vel      x-accl      y-accl      z-accl      x-coor      y-coor      z-coor
    22626  8.26160E-06-4.53660E-02-5.29101E+00-6.76121E-04-2.20964E-02-3.12347E+00-3.64574E-03 5.10034E-02-3.86181E-02 4.79642E+01-2.20752E+01 2.04749E+00



 n o d a l   p r i n t   o u t   f o r   t i m e  s t e p    3401                              ( at time 1.6998299E+00 )

 nodal point  x-rot      y-rot       z-rot       x-rot vel   y-rot vel   z-rot vel   x-rot acc   y-rot acc   z-rot acc
    22626  7.85273E-07 5.21586E-05 8.90983E-05-2.95949E-06 2.79514E-05 4.45807E-05-2.49138E-05-3.03366E-05-6.20836E-06



 n o d a l   p r i n t   o u t   f o r   t i m e  s t e p    3601                              ( at time 1.7998199E+00 )

 nodal point  x-disp     y-disp      z-disp      x-vel       y-vel       z-vel      x-accl      y-accl      z-accl      x-coor      y-coor      z-coor
    22626 -4.63523E-05-4.73201E-02-5.60354E+00-8.46359E-04-1.73426E-02-3.12753E+00-1.70255E-03 4.75431E-02-4.06521E-02 4.79641E+01-2.20771E+01 1.73496E+00



 n o d a l   p r i n t   o u t   f o r   t i m e  s t e p    3601                              ( at time 1.7998199E+00 )

 nodal point  x-rot      y-rot       z-rot       x-rot vel   y-rot vel   z-rot vel   x-rot acc   y-rot acc   z-rot acc
    22626  7.23240E-07 5.47331E-05 9.34948E-05 4.72235E-07 1.91709E-05 3.84316E-05 3.43208E-05-8.78137E-05-6.14972E-05



 n o d a l   p r i n t   o u t   f o r   t i m e  s t e p    3801                              ( at time 1.8998099E+00 )

 nodal point  x-disp     y-disp      z-disp      x-vel       y-vel       z-vel      x-accl      y-accl      z-accl      x-coor      y-coor      z-coor
    22626 -1.82092E-04-4.89168E-02-5.91638E+00-1.61568E-03-1.47291E-02-3.13007E+00-7.69399E-03 2.61376E-02-2.53536E-02 4.79640E+01-2.20787E+01 1.42212E+00



 n o d a l   p r i n t   o u t   f o r   t i m e  s t e p    3801                              ( at time 1.8998099E+00 )

 nodal point  x-rot      y-rot       z-rot       x-rot vel   y-rot vel   z-rot vel   x-rot acc   y-rot acc   z-rot acc
    22626  5.71893E-07 5.64033E-05 9.65444E-05 2.70980E-06 1.31096E-05 2.36095E-05 2.23779E-05-6.06194E-05-1.48236E-04



 n o d a l   p r i n t   o u t   f o r   t i m e  s t e p    4001                              ( at time 1.9997999E+00 )

 nodal point  x-disp     y-disp      z-disp      x-vel       y-vel       z-vel      x-accl      y-accl      z-accl      x-coor      y-coor      z-coor
    22626 -2.98126E-04-5.02645E-02-6.22948E+00-1.05260E-03-1.23878E-02-3.13236E+00 5.63134E-03 2.34151E-02-2.29167E-02 4.79639E+01-2.20801E+01 1.10902E+00



 n o d a l   p r i n t   o u t   f o r   t i m e  s t e p    4001                              ( at time 1.9997999E+00 )

 nodal point  x-rot      y-rot       z-rot       x-rot vel   y-rot vel   z-rot vel   x-rot acc   y-rot acc   z-rot acc
    22626  8.79120E-07 5.74871E-05 9.84506E-05 4.47366E-06 1.04163E-05 1.54391E-05 1.76403E-05-2.69354E-05-8.17119E-05



 n o d a l   p r i n t   o u t   f o r   t i m e  s t e p    4201                              ( at time 2.0997899E+00 )

 nodal point  x-disp     y-disp      z-disp      x-vel       y-vel       z-vel      x-accl      y-accl      z-accl      x-coor      y-coor      z-coor
    22626 -4.06236E-04-5.13150E-02-6.54284E+00-1.22908E-03-8.74203E-03-3.13544E+00-1.76497E-03 3.64613E-02-3.07901E-02 4.79638E+01-2.20811E+01 7.95656E-01



 n o d a l   p r i n t   o u t   f o r   t i m e  s t e p    4201                              ( at time 2.0997899E+00 )

 nodal point  x-rot      y-rot       z-rot       x-rot vel   y-rot vel   z-rot vel   x-rot acc   y-rot acc   z-rot acc
    22626  1.26400E-06 5.78492E-05 9.90634E-05-3.31878E-07 4.96864E-07-3.26948E-06-4.80602E-05-9.92043E-05-1.87105E-04



 n o d a l   p r i n t   o u t   f o r   t i m e  s t e p    4401                              ( at time 2.1997798E+00 )

 nodal point  x-disp     y-disp      z-disp      x-vel       y-vel       z-vel      x-accl      y-accl      z-accl      x-coor      y-coor      z-coor
    22626 -5.82291E-04-5.19587E-02-6.85653E+00-2.09146E-03-3.96804E-03-3.13918E+00-8.62468E-03 4.77448E-02-3.74355E-02 4.79636E+01-2.20817E+01 4.81967E-01



 n o d a l   p r i n t   o u t   f o r   t i m e  s t e p    4401                              ( at time 2.1997798E+00 )

 nodal point  x-rot      y-rot       z-rot       x-rot vel   y-rot vel   z-rot vel   x-rot acc   y-rot acc   z-rot acc
    22626  1.19042E-06 5.75430E-05 9.85254E-05-1.62828E-07-5.01391E-06-7.54194E-06 1.69067E-06-5.51133E-05-4.27289E-05



 n o d a l   p r i n t   o u t   f o r   t i m e  s t e p    4601                              ( at time 2.2997698E+00 )

 nodal point  x-disp     y-disp      z-disp      x-vel       y-vel       z-vel      x-accl      y-accl      z-accl      x-coor      y-coor      z-coor
    22626 -8.22564E-04-5.21078E-02-7.17061E+00-2.81154E-03 3.56254E-04-3.14254E+00-7.20142E-03 4.32472E-02-3.35893E-02 4.79634E+01-2.20819E+01 1.67893E-01



 n o d a l   p r i n t   o u t   f o r   t i m e  s t e p    4601                              ( at time 2.2997698E+00 )

 nodal point  x-rot      y-rot       z-rot       x-rot vel   y-rot vel   z-rot vel   x-rot acc   y-rot acc   z-rot acc
    22626  9.00793E-07 5.69167E-05 9.76448E-05-3.64146E-06-1.29874E-05-1.79903E-05-3.47897E-05-7.97428E-05-1.04494E-04



 n o d a l   p r i n t   o u t   f o r   t i m e  s t e p    4801                              ( at time 2.3997598E+00 )

 nodal point  x-disp     y-disp      z-disp      x-vel       y-vel       z-vel      x-accl      y-accl      z-accl      x-coor      y-coor      z-coor
    22626 -1.12107E-03-5.19757E-02-7.48493E+00-2.87048E-03 2.29486E-03-3.14465E+00-5.89477E-04 1.93880E-02-2.11213E-02 4.79631E+01-2.20818E+01-1.46431E-01



 n o d a l   p r i n t   o u t   f o r   t i m e  s t e p    4801                              ( at time 2.3997598E+00 )

 nodal point  x-rot      y-rot       z-rot       x-rot vel   y-rot vel   z-rot vel   x-rot acc   y-rot acc   z-rot acc
    22626  4.47721E-07 5.53460E-05 9.46530E-05-4.73049E-06-1.93086E-05-3.87156E-05-1.08914E-05-6.32185E-05-2.07273E-04



 n o d a l   p r i n t   o u t   f o r   t i m e  s t e p    5001                              ( at time 2.4997498E+00 )

 nodal point  x-disp     y-disp      z-disp      x-vel       y-vel       z-vel      x-accl      y-accl      z-accl      x-coor      y-coor      z-coor
    22626 -1.43933E-03-5.16285E-02-7.79948E+00-3.50152E-03 5.35009E-03-3.14735E+00-6.31105E-03 3.05552E-02-2.69607E-02 4.79627E+01-2.20814E+01-4.60982E-01



 n o d a l   p r i n t   o u t   f o r   t i m e  s t e p    5001                              ( at time 2.4997498E+00 )

 nodal point  x-rot      y-rot       z-rot       x-rot vel   y-rot vel   z-rot vel   x-rot acc   y-rot acc   z-rot acc
    22626  1.34329E-07 5.27908E-05 9.01779E-05-2.68164E-06-2.97313E-05-5.43907E-05 2.04904E-05-1.04237E-04-1.56767E-04



 n o d a l   p r i n t   o u t   f o r   t i m e  s t e p    5201                              ( at time 2.5997398E+00 )

 nodal point  x-disp     y-disp      z-disp      x-vel       y-vel       z-vel      x-accl      y-accl      z-accl      x-coor      y-coor      z-coor
    22626 -1.83702E-03-5.08747E-02-8.11437E+00-4.49022E-03 9.68390E-03-3.15096E+00-9.88803E-03 4.33425E-02-3.61574E-02 4.79623E+01-2.20807E+01-7.75871E-01



 n o d a l   p r i n t   o u t   f o r   t i m e  s t e p    5201                              ( at time 2.5997398E+00 )

 nodal point  x-rot      y-rot       z-rot       x-rot vel   y-rot vel   z-rot vel   x-rot acc   y-rot acc   z-rot acc
    22626 -1.18515E-07 4.93683E-05 8.42138E-05-3.65291E-06-3.91723E-05-6.74008E-05-9.71366E-06-9.44196E-05-1.30114E-04



 n o d a l   p r i n t   o u t   f o r   t i m e  s t e p    5401                              ( at time 2.6997298E+00 )

 nodal point  x-disp     y-disp      z-disp      x-vel       y-vel       z-vel      x-accl      y-accl      z-accl      x-coor      y-coor      z-coor
    22626 -2.33119E-03-4.96994E-02-8.42961E+00-5.66832E-03 1.33513E-02-3.15438E+00-1.17821E-02 3.66780E-02-3.42141E-02 4.79618E+01-2.20795E+01-1.09111E+00



 n o d a l   p r i n t   o u t   f o r   t i m e  s t e p    5401                              ( at time 2.6997298E+00 )

 nodal point  x-rot      y-rot       z-rot       x-rot vel   y-rot vel   z-rot vel   x-rot acc   y-rot acc   z-rot acc
    22626 -3.32802E-07 4.52974E-05 7.72059E-05-1.27657E-06-4.45327E-05-7.19413E-05 2.37658E-05-5.36091E-05-4.54088E-05



 n o d a l   p r i n t   o u t   f o r   t i m e  s t e p    5601                              ( at time 2.7997198E+00 )

 nodal point  x-disp     y-disp      z-disp      x-vel       y-vel       z-vel      x-accl      y-accl      z-accl      x-coor      y-coor      z-coor
    22626 -2.96865E-03-4.82373E-02-8.74514E+00-6.91251E-03 1.55674E-02-3.15656E+00-1.24432E-02 2.21632E-02-2.18199E-02 4.79612E+01-2.20780E+01-1.40664E+00



 n o d a l   p r i n t   o u t   f o r   t i m e  s t e p    5601                              ( at time 2.7997198E+00 )

 nodal point  x-rot      y-rot       z-rot       x-rot vel   y-rot vel   z-rot vel   x-rot acc   y-rot acc   z-rot acc
    22626 -4.00481E-07 4.00924E-05 6.85802E-05 1.02955E-06-6.05913E-05-1.04199E-04 2.30635E-05-1.60602E-04-3.22612E-04



 n o d a l   p r i n t   o u t   f o r   t i m e  s t e p    5801                              ( at time 2.8997098E+00 )

 nodal point  x-disp     y-disp      z-disp      x-vel       y-vel       z-vel      x-accl      y-accl      z-accl      x-coor      y-coor      z-coor
    22626 -3.66240E-03-4.66308E-02-9.06085E+00-7.04777E-03 1.64887E-02-3.15826E+00-1.35268E-03 9.21346E-03-1.69104E-02 4.79605E+01-2.20764E+01-1.72235E+00



 n o d a l   p r i n t   o u t   f o r   t i m e  s t e p    5801                              ( at time 2.8997098E+00 )

 nodal point  x-rot      y-rot       z-rot       x-rot vel   y-rot vel   z-rot vel   x-rot acc   y-rot acc   z-rot acc
    22626 -1.21717E-07 3.33522E-05 5.71686E-05 3.18659E-06-6.99402E-05-1.20663E-04 2.15726E-05-9.34991E-05-1.64657E-04



 n o d a l   p r i n t   o u t   f o r   t i m e  s t e p    6001                              ( at time 2.9996998E+00 )

 nodal point  x-disp     y-disp      z-disp      x-vel       y-vel       z-vel      x-accl      y-accl      z-accl      x-coor      y-coor      z-coor
    22626 -4.40440E-03-4.48664E-02-9.37675E+00-8.03531E-03 1.89475E-02-3.16057E+00-9.87643E-03 2.45904E-02-2.31885E-02 4.79598E+01-2.20747E+01-2.03825E+00



 n o d a l   p r i n t   o u t   f o r   t i m e  s t e p    6001                              ( at time 2.9996998E+00 )

 nodal point  x-rot      y-rot       z-rot       x-rot vel   y-rot vel   z-rot vel   x-rot acc   y-rot acc   z-rot acc
    22626  1.77334E-07 2.61564E-05 4.50671E-05 1.36944E-06-7.40392E-05-1.25998E-04-1.81734E-05-4.09932E-05-5.33519E-05



 n o d a l   p r i n t   o u t   f o r   t i m e  s t e p    6201                              ( at time 3.0996898E+00 )

 nodal point  x-disp     y-disp      z-disp      x-vel       y-vel       z-vel      x-accl      y-accl      z-accl      x-coor      y-coor      z-coor
    22626 -5.29123E-03-4.28520E-02-9.69289E+00-9.61816E-03 2.09098E-02-3.16257E+00-1.58301E-02 1.96256E-02-1.99982E-02 4.79589E+01-2.20726E+01-2.35439E+00



 n o d a l   p r i n t   o u t   f o r   t i m e  s t e p    6201                              ( at time 3.0996898E+00 )

 nodal point  x-rot      y-rot       z-rot       x-rot vel   y-rot vel   z-rot vel   x-rot acc   y-rot acc   z-rot acc
    22626  1.91306E-07 1.84775E-05 3.19433E-05-1.36838E-06-7.87561E-05-1.38382E-04-2.73810E-05-4.71742E-05-1.23849E-04



 n o d a l   p r i n t   o u t   f o r   t i m e  s t e p    6401                              ( at time 3.1996798E+00 )

 nodal point  x-disp     y-disp      z-disp      x-vel       y-vel       z-vel      x-accl      y-accl      z-accl      x-coor      y-coor      z-coor
    22626 -6.28366E-03-4.07875E-02-1.00092E+01-1.01665E-02 2.00792E-02-3.16314E+00-5.48356E-03-8.30723E-03-5.65346E-03 4.79579E+01-2.20706E+01-2.67066E+00



 n o d a l   p r i n t   o u t   f o r   t i m e  s t e p    6401                              ( at time 3.1996798E+00 )

 nodal point  x-rot      y-rot       z-rot       x-rot vel   y-rot vel   z-rot vel   x-rot acc   y-rot acc   z-rot acc
    22626  1.14811E-07 1.00899E-05 1.78342E-05-1.15676E-06-8.86886E-05-1.49298E-04 2.11642E-06-9.93343E-05-1.09176E-04



 n o d a l   p r i n t   o u t   f o r   t i m e  s t e p    6601                              ( at time 3.2996698E+00 )

 nodal point  x-disp     y-disp      z-disp      x-vel       y-vel       z-vel      x-accl      y-accl      z-accl      x-coor      y-coor      z-coor
    22626 -7.31299E-03-3.88754E-02-1.03254E+01-1.03968E-02 1.81582E-02-3.16290E+00-2.30337E-03-1.92116E-02 2.37250E-03 4.79569E+01-2.20687E+01-2.98692E+00



 n o d a l   p r i n t   o u t   f o r   t i m e  s t e p    6601                              ( at time 3.2996698E+00 )

 nodal point  x-rot      y-rot       z-rot       x-rot vel   y-rot vel   z-rot vel   x-rot acc   y-rot acc   z-rot acc
    22626 -8.35618E-08 1.07349E-06 2.56382E-06-1.78402E-06-9.23832E-05-1.56185E-04-6.27321E-06-3.69504E-05-6.88799E-05



 n o d a l   p r i n t   o u t   f o r   t i m e  s t e p    6801                              ( at time 3.3996598E+00 )

 nodal point  x-disp     y-disp      z-disp      x-vel       y-vel       z-vel      x-accl      y-accl      z-accl      x-coor      y-coor      z-coor
    22626 -8.38245E-03-3.71521E-02-1.06417E+01-1.08829E-02 1.63514E-02-3.16276E+00-4.86134E-03-1.80699E-02 1.41873E-03 4.79558E+01-2.20669E+01-3.30318E+00



 n o d a l   p r i n t   o u t   f o r   t i m e  s t e p    6801                              ( at time 3.3996598E+00 )

 nodal point  x-rot      y-rot       z-rot       x-rot vel   y-rot vel   z-rot vel   x-rot acc   y-rot acc   z-rot acc
    22626 -8.39274E-08-8.13017E-06-1.32099E-05-2.03248E-06-9.12689E-05-1.58193E-04-2.48485E-06 1.11441E-05-2.00806E-05



 n o d a l   p r i n t   o u t   f o r   t i m e  s t e p    7001                              ( at time 3.4996498E+00 )

 nodal point  x-disp     y-disp      z-disp      x-vel       y-vel       z-vel      x-accl      y-accl      z-accl      x-coor      y-coor      z-coor
    22626 -9.49914E-03-3.55918E-02-1.09579E+01-1.15159E-02 1.48252E-02-3.16299E+00-6.33083E-03-1.52640E-02-2.33435E-03 4.79547E+01-2.20654E+01-3.61944E+00



 n o d a l   p r i n t   o u t   f o r   t i m e  s t e p    7001                              ( at time 3.4996498E+00 )

 nodal point  x-rot      y-rot       z-rot       x-rot vel   y-rot vel   z-rot vel   x-rot acc   y-rot acc   z-rot acc
    22626 -2.89872E-09-1.71142E-05-2.85271E-05 1.38977E-06-9.05636E-05-1.52272E-04 3.42259E-05 7.05424E-06 5.92234E-05



 n o d a l   p r i n t   o u t   f o r   t i m e  s t e p    7201                              ( at time 3.5996397E+00 )

 nodal point  x-disp     y-disp      z-disp      x-vel       y-vel       z-vel      x-accl      y-accl      z-accl      x-coor      y-coor      z-coor
    22626 -1.06735E-02-3.42138E-02-1.12742E+01-1.16127E-02 1.24202E-02-3.16276E+00-9.68403E-04-2.40524E-02 2.35104E-03 4.79535E+01-2.20640E+01-3.93570E+00



 n o d a l   p r i n t   o u t   f o r   t i m e  s t e p    7201                              ( at time 3.5996397E+00 )

 nodal point  x-rot      y-rot       z-rot       x-rot vel   y-rot vel   z-rot vel   x-rot acc   y-rot acc   z-rot acc
    22626  4.26435E-08-2.60541E-05-4.34682E-05 2.28058E-06-8.75910E-05-1.43466E-04 8.90900E-06 2.97289E-05 8.80692E-05



 n o d a l   p r i n t   o u t   f o r   t i m e  s t e p    7401                              ( at time 3.6996297E+00 )

 nodal point  x-disp     y-disp      z-disp      x-vel       y-vel       z-vel      x-accl      y-accl      z-accl      x-coor      y-coor      z-coor
    22626 -1.18227E-02-3.31378E-02-1.15904E+01-1.13186E-02 9.06495E-03-3.16179E+00 2.94122E-03-3.35557E-02 9.73321E-03 4.79524E+01-2.20629E+01-4.25189E+00



 n o d a l   p r i n t   o u t   f o r   t i m e  s t e p    7401                              ( at time 3.6996297E+00 )

 nodal point  x-rot      y-rot       z-rot       x-rot vel   y-rot vel   z-rot vel   x-rot acc   y-rot acc   z-rot acc
    22626  3.46043E-07-3.46225E-05-5.77050E-05 4.49003E-06-8.42392E-05-1.41026E-04 2.20967E-05 3.35209E-05 2.43942E-05



 n o d a l   p r i n t   o u t   f o r   t i m e  s t e p    7601                              ( at time 3.7996197E+00 )

 nodal point  x-disp     y-disp      z-disp      x-vel       y-vel       z-vel      x-accl      y-accl      z-accl      x-coor      y-coor      z-coor
    22626 -1.29251E-02-3.23689E-02-1.19065E+01-1.07802E-02 6.34885E-03-3.16107E+00 5.38437E-03-2.71637E-02 7.17951E-03 4.79513E+01-2.20622E+01-4.56800E+00



 n o d a l   p r i n t   o u t   f o r   t i m e  s t e p    7601                              ( at time 3.7996197E+00 )

 nodal point  x-rot      y-rot       z-rot       x-rot vel   y-rot vel   z-rot vel   x-rot acc   y-rot acc   z-rot acc
    22626  8.69334E-07-4.27415E-05-7.14184E-05 6.15797E-06-7.55607E-05-1.26552E-04 1.66812E-05 8.67935E-05 1.44761E-04



 n o d a l   p r i n t   o u t   f o r   t i m e  s t e p    7801                              ( at time 3.8996097E+00 )

 nodal point  x-disp     y-disp      z-disp      x-vel       y-vel       z-vel      x-accl      y-accl      z-accl      x-coor      y-coor      z-coor
    22626 -1.39721E-02-3.18356E-02-1.22226E+01-1.01443E-02 4.53567E-03-3.16098E+00 6.36045E-03-1.81336E-02 9.01311E-04 4.79502E+01-2.20616E+01-4.88407E+00



 n o d a l   p r i n t   o u t   f o r   t i m e  s t e p    7801                              ( at time 3.8996097E+00 )

 nodal point  x-rot      y-rot       z-rot       x-rot vel   y-rot vel   z-rot vel   x-rot acc   y-rot acc   z-rot acc
    22626  1.32635E-06-4.96489E-05-8.30416E-05 1.48582E-06-6.04333E-05-1.00891E-04-4.67261E-05 1.51290E-04 2.56634E-04



 n o d a l   p r i n t   o u t   f o r   t i m e  s t e p    8001                              ( at time 3.9995997E+00 )

 nodal point  x-disp     y-disp      z-disp      x-vel       y-vel       z-vel      x-accl      y-accl      z-accl      x-coor      y-coor      z-coor
    22626 -1.49587E-02-3.14305E-02-1.25387E+01-9.56947E-03 3.51071E-03-3.16136E+00 5.74846E-03-1.02507E-02-3.80316E-03 4.79492E+01-2.20612E+01-5.20016E+00



 n o d a l   p r i n t   o u t   f o r   t i m e  s t e p    8001                              ( at time 3.9995997E+00 )

 nodal point  x-rot      y-rot       z-rot       x-rot vel   y-rot vel   z-rot vel   x-rot acc   y-rot acc   z-rot acc
    22626  1.54664E-06-5.51785E-05-9.21513E-05 4.96490E-07-4.94078E-05-8.38890E-05-9.89435E-06 1.10266E-04 1.70035E-04



 n o d a l   p r i n t   o u t   f o r   t i m e  s t e p    8201                              ( at time 4.0995897E+00 )

 nodal point  x-disp     y-disp      z-disp      x-vel       y-vel       z-vel      x-accl      y-accl      z-accl      x-coor      y-coor      z-coor
    22626 -1.58339E-02-3.11945E-02-1.28547E+01-7.80348E-03 9.87980E-04-3.16083E+00 1.76616E-02-2.52298E-02 5.25526E-03 4.79483E+01-2.20610E+01-5.51624E+00



 n o d a l   p r i n t   o u t   f o r   t i m e  s t e p    8201                              ( at time 4.0995897E+00 )

 nodal point  x-rot      y-rot       z-rot       x-rot vel   y-rot vel   z-rot vel   x-rot acc   y-rot acc   z-rot acc
    22626  1.62385E-06-5.95934E-05-9.95715E-05 5.77411E-07-3.51753E-05-6.09017E-05 8.09294E-07 1.42339E-04 2.29896E-04



 n o d a l   p r i n t   o u t   f o r   t i m e  s t e p    8401                              ( at time 4.1995797E+00 )

 nodal point  x-disp     y-disp      z-disp      x-vel       y-vel       z-vel      x-accl      y-accl      z-accl      x-coor      y-coor      z-coor
    22626 -1.65334E-02-3.12212E-02-1.31708E+01-6.15963E-03-1.43292E-03-3.16025E+00 1.64402E-02-2.42115E-02 5.82515E-03 4.79476E+01-2.20610E+01-5.83226E+00



 n o d a l   p r i n t   o u t   f o r   t i m e  s t e p    8401                              ( at time 4.1995797E+00 )

 nodal point  x-rot      y-rot       z-rot       x-rot vel   y-rot vel   z-rot vel   x-rot acc   y-rot acc   z-rot acc
    22626  1.71762E-06-6.22611E-05-1.03990E-04 5.73182E-07-1.68878E-05-2.75284E-05-4.22963E-08 1.82893E-04 3.33767E-04



 n o d a l   p r i n t   o u t   f o r   t i m e  s t e p    8601                              ( at time 4.2995697E+00 )

 nodal point  x-disp     y-disp      z-disp      x-vel       y-vel       z-vel      x-accl      y-accl      z-accl      x-coor      y-coor      z-coor
    22626 -1.70856E-02-3.14838E-02-1.34867E+01-4.74751E-03-3.52903E-03-3.16006E+00 1.41226E-02-2.09632E-02 1.91469E-03 4.79471E+01-2.20613E+01-6.14823E+00



 n o d a l   p r i n t   o u t   f o r   t i m e  s t e p    8601                              ( at time 4.2995697E+00 )

 nodal point  x-rot      y-rot       z-rot       x-rot vel   y-rot vel   z-rot vel   x-rot acc   y-rot acc   z-rot acc
    22626  1.76580E-06-6.29975E-05-1.05331E-04 2.49548E-07-7.11330E-08-2.34124E-07-3.23667E-06 1.68184E-04 2.72971E-04



 n o d a l   p r i n t   o u t   f o r   t i m e  s t e p    8801                              ( at time 4.3995597E+00 )

 nodal point  x-disp     y-disp      z-disp      x-vel       y-vel       z-vel      x-accl      y-accl      z-accl      x-coor      y-coor      z-coor
    22626 -1.74718E-02-3.18763E-02-1.38027E+01-2.99305E-03-4.35424E-03-3.16071E+00 1.75463E-02-8.25292E-03-6.50710E-03 4.79467E+01-2.20617E+01-6.46423E+00



 n o d a l   p r i n t   o u t   f o r   t i m e  s t e p    8801                              ( at time 4.3995597E+00 )

 nodal point  x-rot      y-rot       z-rot       x-rot vel   y-rot vel   z-rot vel   x-rot acc   y-rot acc   z-rot acc
    22626  1.86670E-06-6.20021E-05-1.03471E-04 1.28616E-06 1.95037E-05 3.58410E-05 1.03672E-05 1.95768E-04 3.60787E-04



 n o d a l   p r i n t   o u t   f o r   t i m e  s t e p    9001                              ( at time 4.4995497E+00 )

 nodal point  x-disp     y-disp      z-disp      x-vel       y-vel       z-vel      x-accl      y-accl      z-accl      x-coor      y-coor      z-coor
    22626 -1.76888E-02-3.24070E-02-1.41188E+01-1.23785E-03-6.60151E-03-3.16030E+00 1.75537E-02-2.24748E-02 4.11789E-03 4.79465E+01-2.20622E+01-6.78026E+00



 n o d a l   p r i n t   o u t   f o r   t i m e  s t e p    9001                              ( at time 4.4995497E+00 )

 nodal point  x-rot      y-rot       z-rot       x-rot vel   y-rot vel   z-rot vel   x-rot acc   y-rot acc   z-rot acc
    22626  2.03153E-06-5.88145E-05-9.77996E-05 3.87598E-06 4.12047E-05 7.22370E-05 2.59007E-05 2.17031E-04 3.63995E-04



 n o d a l   p r i n t   o u t   f o r   t i m e  s t e p    9201                              ( at time 4.5995397E+00 )

 nodal point  x-disp     y-disp      z-disp      x-vel       y-vel       z-vel      x-accl      y-accl      z-accl      x-coor      y-coor      z-coor
    22626 -1.77192E-02-3.32216E-02-1.44347E+01 6.89063E-04-9.51548E-03-3.15969E+00 1.92711E-02-2.91426E-02 6.03498E-03 4.79465E+01-2.20630E+01-7.09623E+00



 n o d a l   p r i n t   o u t   f o r   t i m e  s t e p    9201                              ( at time 4.5995397E+00 )

 nodal point  x-rot      y-rot       z-rot       x-rot vel   y-rot vel   z-rot vel   x-rot acc   y-rot acc   z-rot acc
    22626  2.37465E-06-5.39085E-05-8.91884E-05 4.48633E-06 5.71834E-05 9.82175E-05 6.10409E-06 1.59803E-04 2.59831E-04



 n o d a l   p r i n t   o u t   f o r   t i m e  s t e p    9401                              ( at time 4.6995297E+00 )

 nodal point  x-disp     y-disp      z-disp      x-vel       y-vel       z-vel      x-accl      y-accl      z-accl      x-coor      y-coor      z-coor
    22626 -1.75343E-02-3.42541E-02-1.47507E+01 2.91188E-03-1.11278E-02-3.15957E+00 2.22304E-02-1.61253E-02 1.20414E-03 4.79466E+01-2.20640E+01-7.41216E+00



 n o d a l   p r i n t   o u t   f o r   t i m e  s t e p    9401                              ( at time 4.6995297E+00 )

 nodal point  x-rot      y-rot       z-rot       x-rot vel   y-rot vel   z-rot vel   x-rot acc   y-rot acc   z-rot acc
    22626  2.80205E-06-4.70477E-05-7.72356E-05 3.51465E-06 8.20055E-05 1.40651E-04-9.71776E-06 2.48247E-04 4.24377E-04



 n o d a l   p r i n t   o u t   f o r   t i m e  s t e p    9601                              ( at time 4.7995197E+00 )

 nodal point  x-disp     y-disp      z-disp      x-vel       y-vel       z-vel      x-accl      y-accl      z-accl      x-coor      y-coor      z-coor
    22626 -1.71444E-02-3.54380E-02-1.50666E+01 4.77234E-03-1.23782E-02-3.15982E+00 1.86065E-02-1.25050E-02-2.44404E-03 4.79470E+01-2.20652E+01-7.72809E+00



 n o d a l   p r i n t   o u t   f o r   t i m e  s t e p    9601                              ( at time 4.7995197E+00 )

 nodal point  x-rot      y-rot       z-rot       x-rot vel   y-rot vel   z-rot vel   x-rot acc   y-rot acc   z-rot acc
    22626  3.14737E-06-3.76445E-05-6.11047E-05 3.71472E-07 1.06121E-04 1.82170E-04-3.14349E-05 2.41180E-04 4.15233E-04



 n o d a l   p r i n t   o u t   f o r   t i m e  s t e p    9801                              ( at time 4.8995097E+00 )

 nodal point  x-disp     y-disp      z-disp      x-vel       y-vel       z-vel      x-accl      y-accl      z-accl      x-coor      y-coor      z-coor
    22626 -1.65764E-02-3.67244E-02-1.53826E+01 6.57147E-03-1.34460E-02-3.16009E+00 1.79931E-02-1.06789E-02-2.73017E-03 4.79476E+01-2.20665E+01-8.04406E+00



 n o d a l   p r i n t   o u t   f o r   t i m e  s t e p    9801                              ( at time 4.8995097E+00 )

 nodal point  x-rot      y-rot       z-rot       x-rot vel   y-rot vel   z-rot vel   x-rot acc   y-rot acc   z-rot acc
    22626  3.20746E-06-2.61274E-05-4.12265E-05-5.39533E-07 1.23096E-04 2.11859E-04-9.11097E-06 1.69766E-04 2.96921E-04



 n o d a l   p r i n t   o u t   f o r   t i m e  s t e p   10001                              ( at time 4.9994997E+00 )

 nodal point  x-disp     y-disp      z-disp      x-vel       y-vel       z-vel      x-accl      y-accl      z-accl      x-coor      y-coor      z-coor
    22626 -1.57937E-02-3.81656E-02-1.56985E+01 9.04790E-03-1.54322E-02-3.15962E+00 2.47667E-02-1.98643E-02 4.74499E-03 4.79484E+01-2.20680E+01-8.36002E+00



 n o d a l   p r i n t   o u t   f o r   t i m e  s t e p   10001                              ( at time 4.9994997E+00 )

 nodal point  x-rot      y-rot       z-rot       x-rot vel   y-rot vel   z-rot vel   x-rot acc   y-rot acc   z-rot acc
    22626  3.08578E-06-1.28800E-05-1.84070E-05-1.44002E-06 1.42645E-04 2.43524E-04-9.00569E-06 1.95509E-04 3.16685E-04



 n o d a l   p r i n t   o u t   f o r   t i m e  s t e p   10202                              ( at time 5.0999896E+00 )

 nodal point  x-disp     y-disp      z-disp      x-vel       y-vel       z-vel      x-accl      y-accl      z-accl      x-coor      y-coor      z-coor
    22626 -1.47571E-02-3.97913E-02-1.60160E+01 1.15791E-02-1.67883E-02-3.15779E+00 2.51883E-02-1.34948E-02 1.81739E-02 4.79494E+01-2.20696E+01-8.67745E+00



 n o d a l   p r i n t   o u t   f o r   t i m e  s t e p   10202                              ( at time 5.0999896E+00 )

 nodal point  x-rot      y-rot       z-rot       x-rot vel   y-rot vel   z-rot vel   x-rot acc   y-rot acc   z-rot acc
    22626  2.79731E-06 3.52173E-06 7.89982E-06-4.76648E-06 1.86986E-04 2.79557E-04-3.31025E-05 4.41250E-04 3.58569E-04



 n o d a l   p r i n t   o u t   f o r   t i m e  s t e p   10402                              ( at time 5.1999796E+00 )

 nodal point  x-disp     y-disp      z-disp      x-vel       y-vel       z-vel      x-accl      y-accl      z-accl      x-coor      y-coor      z-coor
    22626 -1.35017E-02-4.14370E-02-1.63315E+01 1.35183E-02-1.57882E-02-3.15397E+00 1.93946E-02 1.00019E-02 3.81673E-02 4.79507E+01-2.20712E+01-8.99302E+00



 n o d a l   p r i n t   o u t   f o r   t i m e  s t e p   10402                              ( at time 5.1999796E+00 )

 nodal point  x-rot      y-rot       z-rot       x-rot vel   y-rot vel   z-rot vel   x-rot acc   y-rot acc   z-rot acc
    22626  3.23526E-06 2.55956E-05 3.64606E-05 1.55586E-05 2.58583E-04 2.91993E-04 2.03270E-04 7.16038E-04 1.24368E-04



 n o d a l   p r i n t   o u t   f o r   t i m e  s t e p   10602                              ( at time 5.2999696E+00 )

 nodal point  x-disp     y-disp      z-disp      x-vel       y-vel       z-vel      x-accl      y-accl      z-accl      x-coor      y-coor      z-coor
    22626 -1.20603E-02-4.29162E-02-1.66465E+01 1.51706E-02-1.37610E-02-3.14586E+00 1.65240E-02 2.02742E-02 8.11683E-02 4.79521E+01-2.20727E+01-9.30803E+00



 n o d a l   p r i n t   o u t   f o r   t i m e  s t e p   10602                              ( at time 5.2999696E+00 )

 nodal point  x-rot      y-rot       z-rot       x-rot vel   y-rot vel   z-rot vel   x-rot acc   y-rot acc   z-rot acc
    22626  6.42925E-06 5.73270E-05 6.56253E-05 5.17582E-05 3.82230E-04 2.82876E-04 3.62033E-04 1.23660E-03-9.11764E-05



 n o d a l   p r i n t   o u t   f o r   t i m e  s t e p   10802                              ( at time 5.3999596E+00 )

 nodal point  x-disp     y-disp      z-disp      x-vel       y-vel       z-vel      x-accl      y-accl      z-accl      x-coor      y-coor      z-coor
    22626 -1.04371E-02-4.41638E-02-1.69605E+01 1.73328E-02-1.07974E-02-3.13250E+00 2.16240E-02 2.96392E-02 1.33597E-01 4.79537E+01-2.20740E+01-9.62195E+00



 n o d a l   p r i n t   o u t   f o r   t i m e  s t e p   10802                              ( at time 5.3999596E+00 )

 nodal point  x-rot      y-rot       z-rot       x-rot vel   y-rot vel   z-rot vel   x-rot acc   y-rot acc   z-rot acc
    22626  1.51524E-05 1.03937E-04 9.35220E-05 1.30935E-04 5.55794E-04 2.58729E-04 7.91853E-04 1.73582E-03-2.41490E-04



 n o d a l   p r i n t   o u t   f o r   t i m e  s t e p   11002                              ( at time 5.4999496E+00 )

 nodal point  x-disp     y-disp      z-disp      x-vel       y-vel       z-vel      x-accl      y-accl      z-accl      x-coor      y-coor      z-coor
    22626 -8.58414E-03-4.50566E-02-1.72727E+01 1.97219E-02-6.70925E-03-3.11129E+00 2.38943E-02 4.08856E-02 2.12121E-01 4.79556E+01-2.20748E+01-9.93418E+00



 n o d a l   p r i n t   o u t   f o r   t i m e  s t e p   11002                              ( at time 5.4999496E+00 )

 nodal point  x-rot      y-rot       z-rot       x-rot vel   y-rot vel   z-rot vel   x-rot acc   y-rot acc   z-rot acc
    22626  3.29089E-05 1.71479E-04 1.18975E-04 2.27760E-04 8.07618E-04 2.31062E-04 9.68344E-04 2.51849E-03-2.76706E-04



 n o d a l   p r i n t   o u t   f o r   t i m e  s t e p   11202                              ( at time 5.5999396E+00 )

 nodal point  x-disp     y-disp      z-disp      x-vel       y-vel       z-vel      x-accl      y-accl      z-accl      x-coor      y-coor      z-coor
    22626 -6.58348E-03-4.53163E-02-1.75826E+01 2.07681E-02-6.07082E-05-3.08623E+00 1.04629E-02 6.64922E-02 2.50594E-01 4.79576E+01-2.20751E+01-1.02441E+01



 n o d a l   p r i n t   o u t   f o r   t i m e  s t e p   11202                              ( at time 5.5999396E+00 )

 nodal point  x-rot      y-rot       z-rot       x-rot vel   y-rot vel   z-rot vel   x-rot acc   y-rot acc   z-rot acc
    22626  6.40675E-05 2.66403E-04 1.38658E-04 3.64377E-04 1.11277E-03 1.69690E-04 1.36630E-03 3.05187E-03-6.13772E-04



 n o d a l   p r i n t   o u t   f o r   t i m e  s t e p   11402                              ( at time 5.6999296E+00 )

 nodal point  x-disp     y-disp      z-disp      x-vel       y-vel       z-vel      x-accl      y-accl      z-accl      x-coor      y-coor      z-coor
    22626 -4.58392E-03-4.49967E-02-1.78893E+01 1.96884E-02 6.07041E-03-3.04781E+00-1.07984E-02 6.13171E-02 3.84253E-01 4.79596E+01-2.20748E+01-1.05508E+01



 n o d a l   p r i n t   o u t   f o r   t i m e  s t e p   11402                              ( at time 5.6999296E+00 )

 nodal point  x-rot      y-rot       z-rot       x-rot vel   y-rot vel   z-rot vel   x-rot acc   y-rot acc   z-rot acc
    22626  1.10489E-04 3.94860E-04 1.53127E-04 5.75222E-04 1.43842E-03 1.27833E-04 2.10866E-03 3.25681E-03-4.18616E-04



 n o d a l   p r i n t   o u t   f o r   t i m e  s t e p   11602                              ( at time 5.7999195E+00 )

 nodal point  x-disp     y-disp      z-disp      x-vel       y-vel       z-vel      x-accl      y-accl      z-accl      x-coor      y-coor      z-coor
    22626 -2.64090E-03-4.37704E-02-1.81917E+01 1.87208E-02 1.73115E-02-3.00150E+00-9.67716E-03 1.12422E-01 4.63170E-01 4.79615E+01-2.20736E+01-1.08532E+01



 n o d a l   p r i n t   o u t   f o r   t i m e  s t e p   11602                              ( at time 5.7999195E+00 )

 nodal point  x-rot      y-rot       z-rot       x-rot vel   y-rot vel   z-rot vel   x-rot acc   y-rot acc   z-rot acc
    22626  1.86306E-04 5.56315E-04 1.62255E-04 9.08524E-04 1.80731E-03 4.68288E-05 3.33336E-03 3.68928E-03-8.10124E-04



 n o d a l   p r i n t   o u t   f o r   t i m e  s t e p   11802                              ( at time 5.8999095E+00 )

 nodal point  x-disp     y-disp      z-disp      x-vel       y-vel       z-vel      x-accl      y-accl      z-accl      x-coor      y-coor      z-coor
    22626 -7.94845E-04-4.19062E-02-1.84896E+01 1.80461E-02 1.88947E-02-2.95676E+00-6.74759E-03 1.58338E-02 4.47409E-01 4.79634E+01-2.20717E+01-1.11511E+01



 n o d a l   p r i n t   o u t   f o r   t i m e  s t e p   11802                              ( at time 5.8999095E+00 )

 nodal point  x-rot      y-rot       z-rot       x-rot vel   y-rot vel   z-rot vel   x-rot acc   y-rot acc   z-rot acc
    22626  2.85301E-04 7.56843E-04 1.61246E-04 1.04803E-03 2.20461E-03-7.54548E-05 1.39521E-03 3.97341E-03-1.22296E-03



 n o d a l   p r i n t   o u t   f o r   t i m e  s t e p   12002                              ( at time 5.9998995E+00 )

 nodal point  x-disp     y-disp      z-disp      x-vel       y-vel       z-vel      x-accl      y-accl      z-accl      x-coor      y-coor      z-coor
    22626  1.05041E-03-3.99628E-02-1.87828E+01 1.84513E-02 2.27741E-02-2.90852E+00 4.05299E-03 3.87973E-02 4.82498E-01 4.79652E+01-2.20698E+01-1.14443E+01



 n o d a l   p r i n t   o u t   f o r   t i m e  s t e p   12002                              ( at time 5.9998995E+00 )

 nodal point  x-rot      y-rot       z-rot       x-rot vel   y-rot vel   z-rot vel   x-rot acc   y-rot acc   z-rot acc
    22626  4.02343E-04 9.96869E-04 1.49167E-04 1.32845E-03 2.56718E-03-1.92531E-04 2.80449E-03 3.62600E-03-1.17088E-03



 n o d a l   p r i n t   o u t   f o r   t i m e  s t e p   12202                              ( at time 6.0998895E+00 )

 nodal point  x-disp     y-disp      z-disp      x-vel       y-vel       z-vel      x-accl      y-accl      z-accl      x-coor      y-coor      z-coor
    22626  2.88541E-03-3.72487E-02-1.90711E+01 1.74028E-02 3.08049E-02-2.85839E+00-1.04869E-02 8.03158E-02 5.01352E-01 4.79671E+01-2.20670E+01-1.17326E+01



 n o d a l   p r i n t   o u t   f o r   t i m e  s t e p   12202                              ( at time 6.0998895E+00 )

 nodal point  x-rot      y-rot       z-rot       x-rot vel   y-rot vel   z-rot vel   x-rot acc   y-rot acc   z-rot acc
    22626  5.48288E-04 1.27550E-03 1.24038E-04 1.57932E-03 3.01769E-03-3.45823E-04 2.50890E-03 4.50553E-03-1.53307E-03



 n o d a l   p r i n t   o u t   f o r   t i m e  s t e p   12402                              ( at time 6.1998795E+00 )

 nodal point  x-disp     y-disp      z-disp      x-vel       y-vel       z-vel      x-accl      y-accl      z-accl      x-coor      y-coor      z-coor
    22626  4.55252E-03-3.40902E-02-1.93544E+01 1.58045E-02 3.36973E-02-2.80890E+00-1.59840E-02 2.89269E-02 4.94919E-01 4.79687E+01-2.20639E+01-1.20159E+01



 n o d a l   p r i n t   o u t   f o r   t i m e  s t e p   12402                              ( at time 6.1998795E+00 )

 nodal point  x-rot      y-rot       z-rot       x-rot vel   y-rot vel   z-rot vel   x-rot acc   y-rot acc   z-rot acc
    22626  7.19097E-04 1.59893E-03 8.46496E-05 1.85583E-03 3.41483E-03-4.72834E-04 2.76541E-03 3.97182E-03-1.27024E-03



 n o d a l   p r i n t   o u t   f o r   t i m e  s t e p   12602                              ( at time 6.2998695E+00 )

 nodal point  x-disp     y-disp      z-disp      x-vel       y-vel       z-vel      x-accl      y-accl      z-accl      x-coor      y-coor      z-coor
    22626  6.26256E-03-3.04851E-02-1.96328E+01 1.75585E-02 3.86210E-02-2.75982E+00 1.75417E-02 4.92418E-02 4.90839E-01 4.79704E+01-2.20603E+01-1.22943E+01



 n o d a l   p r i n t   o u t   f o r   t i m e  s t e p   12602                              ( at time 6.2998695E+00 )

 nodal point  x-rot      y-rot       z-rot       x-rot vel   y-rot vel   z-rot vel   x-rot acc   y-rot acc   z-rot acc
    22626  9.16726E-04 1.95988E-03 3.07512E-05 2.09762E-03 3.81421E-03-6.17093E-04 2.41813E-03 3.99419E-03-1.44273E-03



 n o d a l   p r i n t   o u t   f o r   t i m e  s t e p   12802                              ( at time 6.3998595E+00 )

 nodal point  x-disp     y-disp      z-disp      x-vel       y-vel       z-vel      x-accl      y-accl      z-accl      x-coor      y-coor      z-coor
    22626  8.08316E-03-2.63170E-02-1.99064E+01 2.00096E-02 4.55382E-02-2.71195E+00 2.45138E-02 6.91795E-02 4.78757E-01 4.79723E+01-2.20561E+01-1.25679E+01



 n o d a l   p r i n t   o u t   f o r   t i m e  s t e p   12802                              ( at time 6.3998595E+00 )

 nodal point  x-rot      y-rot       z-rot       x-rot vel   y-rot vel   z-rot vel   x-rot acc   y-rot acc   z-rot acc
    22626  1.14033E-03 2.35982E-03-3.96036E-05 2.40214E-03 4.18655E-03-7.58113E-04 3.04553E-03 3.72376E-03-1.41034E-03



 n o d a l   p r i n t   o u t   f o r   t i m e  s t e p   13002                              ( at time 6.4998495E+00 )

 nodal point  x-disp     y-disp      z-disp      x-vel       y-vel       z-vel      x-accl      y-accl      z-accl      x-coor      y-coor      z-coor
    22626  1.02286E-02-2.13655E-02-2.01752E+01 2.38047E-02 5.13666E-02-2.66633E+00 3.79550E-02 5.82900E-02 4.56291E-01 4.79744E+01-2.20512E+01-1.28367E+01



 n o d a l   p r i n t   o u t   f o r   t i m e  s t e p   13002                              ( at time 6.4998495E+00 )

 nodal point  x-rot      y-rot       z-rot       x-rot vel   y-rot vel   z-rot vel   x-rot acc   y-rot acc   z-rot acc
    22626  1.39229E-03 2.79363E-03-1.20873E-04 2.61286E-03 4.47219E-03-8.68260E-04 2.10742E-03 2.85674E-03-1.10158E-03



 n o d a l   p r i n t   o u t   f o r   t i m e  s t e p   13202                              ( at time 6.5998395E+00 )

 nodal point  x-disp     y-disp      z-disp      x-vel       y-vel       z-vel      x-accl      y-accl      z-accl      x-coor      y-coor      z-coor
    22626  1.28343E-02-1.61262E-02-2.04394E+01 2.87037E-02 5.50687E-02-2.61982E+00 4.89944E-02 3.70241E-02 4.65073E-01 4.79770E+01-2.20459E+01-1.31009E+01



 n o d a l   p r i n t   o u t   f o r   t i m e  s t e p   13202                              ( at time 6.5998395E+00 )

 nodal point  x-rot      y-rot       z-rot       x-rot vel   y-rot vel   z-rot vel   x-rot acc   y-rot acc   z-rot acc
    22626  1.66179E-03 3.25738E-03-2.13893E-04 2.81382E-03 4.78082E-03-1.00706E-03 2.00979E-03 3.08656E-03-1.38816E-03



 n o d a l   p r i n t   o u t   f o r   t i m e  s t e p   13402                              ( at time 6.6998295E+00 )

 nodal point  x-disp     y-disp      z-disp      x-vel       y-vel       z-vel      x-accl      y-accl      z-accl      x-coor      y-coor      z-coor
    22626  1.60386E-02-1.02364E-02-2.06991E+01 3.35142E-02 6.38557E-02-2.57252E+00 4.81095E-02 8.78796E-02 4.73056E-01 4.79802E+01-2.20400E+01-1.33606E+01



 n o d a l   p r i n t   o u t   f o r   t i m e  s t e p   13402                              ( at time 6.6998295E+00 )

 nodal point  x-rot      y-rot       z-rot       x-rot vel   y-rot vel   z-rot vel   x-rot acc   y-rot acc   z-rot acc
    22626  1.95762E-03 3.74629E-03-3.18608E-04 3.08736E-03 5.01710E-03-1.11316E-03 2.73562E-03 2.36306E-03-1.06107E-03



 n o d a l   p r i n t   o u t   f o r   t i m e  s t e p   13602                              ( at time 6.7998195E+00 )

 nodal point  x-disp     y-disp      z-disp      x-vel       y-vel       z-vel      x-accl      y-accl      z-accl      x-coor      y-coor      z-coor
    22626  1.97996E-02-3.69766E-03-2.09538E+01 4.02838E-02 6.63428E-02-2.52167E+00 6.77034E-02 2.48729E-02 5.08584E-01 4.79840E+01-2.20335E+01-1.36153E+01



 n o d a l   p r i n t   o u t   f o r   t i m e  s t e p   13602                              ( at time 6.7998195E+00 )

 nodal point  x-rot      y-rot       z-rot       x-rot vel   y-rot vel   z-rot vel   x-rot acc   y-rot acc   z-rot acc
    22626  2.27672E-03 4.26074E-03-4.35177E-04 3.28279E-03 5.28620E-03-1.21059E-03 1.95458E-03 2.69131E-03-9.74360E-04



 n o d a l   p r i n t   o u t   f o r   t i m e  s t e p   13802                              ( at time 6.8998095E+00 )

 nodal point  x-disp     y-disp      z-disp      x-vel       y-vel       z-vel      x-accl      y-accl      z-accl      x-coor      y-coor      z-coor
    22626  2.42103E-02 3.34867E-03-2.12034E+01 4.77744E-02 7.46858E-02-2.47029E+00 7.49133E-02 8.34387E-02 5.13877E-01 4.79884E+01-2.20264E+01-1.38649E+01



 n o d a l   p r i n t   o u t   f o r   t i m e  s t e p   13802                              ( at time 6.8998095E+00 )

 nodal point  x-rot      y-rot       z-rot       x-rot vel   y-rot vel   z-rot vel   x-rot acc   y-rot acc   z-rot acc
    22626  2.62108E-03 4.79762E-03-5.61900E-04 3.59726E-03 5.44234E-03-1.32964E-03 3.14501E-03 1.56156E-03-1.19061E-03



 n o d a l   p r i n t   o u t   f o r   t i m e  s t e p   14002                              ( at time 6.9997995E+00 )

 nodal point  x-disp     y-disp      z-disp      x-vel       y-vel       z-vel      x-accl      y-accl      z-accl      x-coor      y-coor      z-coor
    22626  2.93278E-02 1.11078E-02-2.14475E+01 5.51151E-02 8.08930E-02-2.41286E+00 7.34149E-02 6.20781E-02 5.74335E-01 4.79935E+01-2.20187E+01-1.41090E+01



 n o d a l   p r i n t   o u t   f o r   t i m e  s t e p   14002                              ( at time 6.9997995E+00 )

 nodal point  x-rot      y-rot       z-rot       x-rot vel   y-rot vel   z-rot vel   x-rot acc   y-rot acc   z-rot acc
    22626  2.99673E-03 5.35287E-03-6.99932E-04 3.90584E-03 5.64785E-03-1.44678E-03 3.08606E-03 2.05526E-03-1.17154E-03



 n o d a l   p r i n t   o u t   f o r   t i m e  s t e p   14202                              ( at time 7.0997895E+00 )

 nodal point  x-disp     y-disp      z-disp      x-vel       y-vel       z-vel      x-accl      y-accl      z-accl      x-coor      y-coor      z-coor
    22626  3.52370E-02 1.95664E-02-2.16858E+01 6.21022E-02 8.90977E-02-2.35363E+00 6.98773E-02 8.20547E-02 5.92358E-01 4.79994E+01-2.20102E+01-1.43473E+01



 n o d a l   p r i n t   o u t   f o r   t i m e  s t e p   14202                              ( at time 7.0997895E+00 )

 nodal point  x-rot      y-rot       z-rot       x-rot vel   y-rot vel   z-rot vel   x-rot acc   y-rot acc   z-rot acc
    22626  3.40189E-03 5.92937E-03-8.48538E-04 4.22562E-03 5.83794E-03-1.53480E-03 3.19816E-03 1.90110E-03-8.80272E-04



 n o d a l   p r i n t   o u t   f o r   t i m e  s t e p   14402                              ( at time 7.1997794E+00 )

 nodal point  x-disp     y-disp      z-disp      x-vel       y-vel       z-vel      x-accl      y-accl      z-accl      x-coor      y-coor      z-coor
    22626  4.18919E-02 2.87712E-02-2.19180E+01 7.06106E-02 9.52546E-02-2.29010E+00 8.50926E-02 6.15751E-02 6.35393E-01 4.80061E+01-2.20010E+01-1.45795E+01



 n o d a l   p r i n t   o u t   f o r   t i m e  s t e p   14402                              ( at time 7.1997794E+00 )

 nodal point  x-rot      y-rot       z-rot       x-rot vel   y-rot vel   z-rot vel   x-rot acc   y-rot acc   z-rot acc
    22626  3.84141E-03 6.52235E-03-1.00612E-03 4.56955E-03 6.04308E-03-1.62094E-03 3.43960E-03 2.05159E-03-8.61530E-04



 n o d a l   p r i n t   o u t   f o r   t i m e  s t e p   14602                              ( at time 7.2997694E+00 )

 nodal point  x-disp     y-disp      z-disp      x-vel       y-vel       z-vel      x-accl      y-accl      z-accl      x-coor      y-coor      z-coor
    22626  4.93533E-02 3.87414E-02-2.21437E+01 8.01362E-02 1.03563E-01-2.22356E+00 9.52654E-02 8.30917E-02 6.65403E-01 4.80135E+01-2.19910E+01-1.48052E+01



 n o d a l   p r i n t   o u t   f o r   t i m e  s t e p   14602                              ( at time 7.2997694E+00 )

 nodal point  x-rot      y-rot       z-rot       x-rot vel   y-rot vel   z-rot vel   x-rot acc   y-rot acc   z-rot acc
    22626  4.31859E-03 7.13421E-03-1.17473E-03 4.97543E-03 6.21109E-03-1.72213E-03 4.05927E-03 1.68026E-03-1.01205E-03



 n o d a l   p r i n t   o u t   f o r   t i m e  s t e p   14802                              ( at time 7.3997594E+00 )

 nodal point  x-disp     y-disp      z-disp      x-vel       y-vel       z-vel      x-accl      y-accl      z-accl      x-coor      y-coor      z-coor
    22626  5.76361E-02 4.95114E-02-2.23625E+01 8.72891E-02 1.10470E-01-2.15318E+00 7.15368E-02 6.90820E-02 7.03876E-01 4.80218E+01-2.19803E+01-1.50240E+01



 n o d a l   p r i n t   o u t   f o r   t i m e  s t e p   14802                              ( at time 7.3997594E+00 )

 nodal point  x-rot      y-rot       z-rot       x-rot vel   y-rot vel   z-rot vel   x-rot acc   y-rot acc   z-rot acc
    22626  4.83436E-03 7.76275E-03-1.35345E-03 5.32602E-03 6.35249E-03-1.84265E-03 3.50617E-03 1.41420E-03-1.20527E-03



 n o d a l   p r i n t   o u t   f o r   t i m e  s t e p   15002                              ( at time 7.4997494E+00 )

 nodal point  x-disp     y-disp      z-disp      x-vel       y-vel       z-vel      x-accl      y-accl      z-accl      x-coor      y-coor      z-coor
    22626  6.68183E-02 6.07478E-02-2.25742E+01 9.48158E-02 1.16031E-01-2.08151E+00 7.52740E-02 5.56159E-02 7.16781E-01 4.80310E+01-2.19690E+01-1.52357E+01



 n o d a l   p r i n t   o u t   f o r   t i m e  s t e p   15002                              ( at time 7.4997494E+00 )

 nodal point  x-rot      y-rot       z-rot       x-rot vel   y-rot vel   z-rot vel   x-rot acc   y-rot acc   z-rot acc
    22626  5.38521E-03 8.40623E-03-1.54060E-03 5.71526E-03 6.51226E-03-1.92287E-03 3.89278E-03 1.59782E-03-8.02289E-04



 n o d a l   p r i n t   o u t   f o r   t i m e  s t e p   15202                              ( at time 7.5997394E+00 )

 nodal point  x-disp     y-disp      z-disp      x-vel       y-vel       z-vel      x-accl      y-accl      z-accl      x-coor      y-coor      z-coor
    22626  7.67398E-02 7.27058E-02-2.27786E+01 1.02680E-01 1.23035E-01-2.00563E+00 7.86493E-02 7.00416E-02 7.58856E-01 4.80409E+01-2.19571E+01-1.54401E+01



 n o d a l   p r i n t   o u t   f o r   t i m e  s t e p   15202                              ( at time 7.5997394E+00 )

 nodal point  x-rot      y-rot       z-rot       x-rot vel   y-rot vel   z-rot vel   x-rot acc   y-rot acc   z-rot acc
    22626  5.97710E-03 9.06527E-03-1.73753E-03 6.11871E-03 6.64936E-03-2.01720E-03 4.03490E-03 1.37111E-03-9.43404E-04



 n o d a l   p r i n t   o u t   f o r   t i m e  s t e p   15402                              ( at time 7.6997294E+00 )

 nodal point  x-disp     y-disp      z-disp      x-vel       y-vel       z-vel      x-accl      y-accl      z-accl      x-coor      y-coor      z-coor
    22626  8.74760E-02 8.50379E-02-2.29753E+01 1.11866E-01 1.24073E-01-1.92936E+00 9.18679E-02 1.03791E-02 7.62757E-01 4.80517E+01-2.19448E+01-1.56368E+01



 n o d a l   p r i n t   o u t   f o r   t i m e  s t e p   15402                              ( at time 7.6997294E+00 )

 nodal point  x-rot      y-rot       z-rot       x-rot vel   y-rot vel   z-rot vel   x-rot acc   y-rot acc   z-rot acc
    22626  6.60801E-03 9.73816E-03-1.94429E-03 6.50456E-03 6.80846E-03-2.10211E-03 3.85895E-03 1.59114E-03-8.49201E-04



 n o d a l   p r i n t   o u t   f o r   t i m e  s t e p   15602                              ( at time 7.7997194E+00 )

 nodal point  x-disp     y-disp      z-disp      x-vel       y-vel       z-vel      x-accl      y-accl      z-accl      x-coor      y-coor      z-coor
    22626  9.89425E-02 9.76845E-02-2.31643E+01 1.18317E-01 1.27548E-01-1.85259E+00 6.45148E-02 3.47547E-02 7.67784E-01 4.80631E+01-2.19321E+01-1.58258E+01



 n o d a l   p r i n t   o u t   f o r   t i m e  s t e p   15602                              ( at time 7.7997194E+00 )

 nodal point  x-rot      y-rot       z-rot       x-rot vel   y-rot vel   z-rot vel   x-rot acc   y-rot acc   z-rot acc
    22626  7.27620E-03 1.04258E-02-2.15970E-03 6.86491E-03 6.93915E-03-2.18110E-03 3.60382E-03 1.30705E-03-7.89895E-04



 n o d a l   p r i n t   o u t   f o r   t i m e  s t e p   15802                              ( at time 7.8997094E+00 )

 nodal point  x-disp     y-disp      z-disp      x-vel       y-vel       z-vel      x-accl      y-accl      z-accl      x-coor      y-coor      z-coor
    22626  1.11091E-01 1.10526E-01-2.33457E+01 1.24843E-01 1.29229E-01-1.77397E+00 6.52691E-02 1.68180E-02 7.86346E-01 4.80753E+01-2.19193E+01-1.60072E+01



 n o d a l   p r i n t   o u t   f o r   t i m e  s t e p   15802                              ( at time 7.8997094E+00 )

 nodal point  x-rot      y-rot       z-rot       x-rot vel   y-rot vel   z-rot vel   x-rot acc   y-rot acc   z-rot acc
    22626  7.98523E-03 1.11248E-02-2.38379E-03 7.31926E-03 7.04947E-03-2.30220E-03 4.54395E-03 1.10331E-03-1.21120E-03



 n o d a l   p r i n t   o u t   f o r   t i m e  s t e p   16002                              ( at time 7.9996994E+00 )

 nodal point  x-disp     y-disp      z-disp      x-vel       y-vel       z-vel      x-accl      y-accl      z-accl      x-coor      y-coor      z-coor
    22626  1.24036E-01 1.23507E-01-2.35191E+01 1.33104E-01 1.29692E-01-1.69577E+00 8.26148E-02 4.62219E-03 7.82075E-01 4.80882E+01-2.19063E+01-1.61806E+01



 n o d a l   p r i n t   o u t   f o r   t i m e  s t e p   16002                              ( at time 7.9996994E+00 )

 nodal point  x-rot      y-rot       z-rot       x-rot vel   y-rot vel   z-rot vel   x-rot acc   y-rot acc   z-rot acc
    22626  8.73647E-03 1.18365E-02-2.61691E-03 7.67618E-03 7.18072E-03-2.37774E-03 3.56955E-03 1.31269E-03-7.55403E-04



 n o d a l   p r i n t   o u t   f o r   t i m e  s t e p   16202                              ( at time 8.0996894E+00 )

 nodal point  x-disp     y-disp      z-disp      x-vel       y-vel       z-vel      x-accl      y-accl      z-accl      x-coor      y-coor      z-coor
    22626  1.37815E-01 1.36252E-01-2.36849E+01 1.41558E-01 1.26074E-01-1.62046E+00 8.45519E-02-3.61779E-02 7.53140E-01 4.81020E+01-2.18935E+01-1.63464E+01



 n o d a l   p r i n t   o u t   f o r   t i m e  s t e p   16202                              ( at time 8.0996894E+00 )

 nodal point  x-rot      y-rot       z-rot       x-rot vel   y-rot vel   z-rot vel   x-rot acc   y-rot acc   z-rot acc
    22626  9.52214E-03 1.25599E-02-2.85865E-03 8.04826E-03 7.29244E-03-2.46364E-03 3.72120E-03 1.11728E-03-8.59111E-04



 n o d a l   p r i n t   o u t   f o r   t i m e  s t e p   16402                              ( at time 8.1996794E+00 )

 nodal point  x-disp     y-disp      z-disp      x-vel       y-vel       z-vel      x-accl      y-accl      z-accl      x-coor      y-coor      z-coor
    22626  1.52310E-01 1.48893E-01-2.38429E+01 1.49908E-01 1.26402E-01-1.54120E+00 8.35134E-02 3.28127E-03 7.92703E-01 4.81165E+01-2.18809E+01-1.65044E+01



 n o d a l   p r i n t   o u t   f o r   t i m e  s t e p   16402                              ( at time 8.1996794E+00 )

 nodal point  x-rot      y-rot       z-rot       x-rot vel   y-rot vel   z-rot vel   x-rot acc   y-rot acc   z-rot acc
    22626  1.03472E-02 1.32955E-02-3.10888E-03 8.45930E-03 7.41613E-03-2.53314E-03 4.11086E-03 1.23703E-03-6.95116E-04



 n o d a l   p r i n t   o u t   f o r   t i m e  s t e p   16602                              ( at time 8.2996694E+00 )

 nodal point  x-disp     y-disp      z-disp      x-vel       y-vel       z-vel      x-accl      y-accl      z-accl      x-coor      y-coor      z-coor
    22626  1.67702E-01 1.61323E-01-2.39931E+01 1.58203E-01 1.22584E-01-1.46319E+00 8.29573E-02-3.81857E-02 7.80162E-01 4.81319E+01-2.18685E+01-1.66546E+01



 n o d a l   p r i n t   o u t   f o r   t i m e  s t e p   16602                              ( at time 8.2996694E+00 )

 nodal point  x-rot      y-rot       z-rot       x-rot vel   y-rot vel   z-rot vel   x-rot acc   y-rot acc   z-rot acc
    22626  1.12133E-02 1.40426E-02-3.36704E-03 8.85402E-03 7.52448E-03-2.63667E-03 3.94755E-03 1.08357E-03-1.03537E-03



 n o d a l   p r i n t   o u t   f o r   t i m e  s t e p   16802                              ( at time 8.3996594E+00 )

 nodal point  x-disp     y-disp      z-disp      x-vel       y-vel       z-vel      x-accl      y-accl      z-accl      x-coor      y-coor      z-coor
    22626  1.83969E-01 1.73413E-01-2.41355E+01 1.65681E-01 1.19209E-01-1.38473E+00 7.47828E-02-3.37539E-02 7.84680E-01 4.81481E+01-2.18564E+01-1.67970E+01



 n o d a l   p r i n t   o u t   f o r   t i m e  s t e p   16802                              ( at time 8.3996594E+00 )

 nodal point  x-rot      y-rot       z-rot       x-rot vel   y-rot vel   z-rot vel   x-rot acc   y-rot acc   z-rot acc
    22626  1.21159E-02 1.47993E-02-3.63446E-03 9.18944E-03 7.63701E-03-2.70229E-03 3.35451E-03 1.12540E-03-6.56253E-04



 n o d a l   p r i n t   o u t   f o r   t i m e  s t e p   17002                              ( at time 8.4996494E+00 )

 nodal point  x-disp     y-disp      z-disp      x-vel       y-vel       z-vel      x-accl      y-accl      z-accl      x-coor      y-coor      z-coor
    22626  2.01045E-01 1.85087E-01-2.42701E+01 1.75070E-01 1.13977E-01-1.30769E+00 9.39016E-02-5.23259E-02 7.70469E-01 4.81652E+01-2.18447E+01-1.69316E+01



 n o d a l   p r i n t   o u t   f o r   t i m e  s t e p   17002                              ( at time 8.4996494E+00 )

 nodal point  x-rot      y-rot       z-rot       x-rot vel   y-rot vel   z-rot vel   x-rot acc   y-rot acc   z-rot acc
    22626  1.30584E-02 1.55674E-02-3.90789E-03 9.64411E-03 7.72789E-03-2.76109E-03 4.54720E-03 9.08928E-04-5.88031E-04



 n o d a l   p r i n t   o u t   f o r   t i m e  s t e p   17202                              ( at time 8.5996394E+00 )

 nodal point  x-disp     y-disp      z-disp      x-vel       y-vel       z-vel      x-accl      y-accl      z-accl      x-coor      y-coor      z-coor
    22626  2.19005E-01 1.96292E-01-2.43967E+01 1.83953E-01 1.08113E-01-1.22628E+00 8.88355E-02-5.86442E-02 8.14196E-01 4.81832E+01-2.18335E+01-1.70582E+01



 n o d a l   p r i n t   o u t   f o r   t i m e  s t e p   17202                              ( at time 8.5996394E+00 )

 nodal point  x-rot      y-rot       z-rot       x-rot vel   y-rot vel   z-rot vel   x-rot acc   y-rot acc   z-rot acc
    22626  1.40418E-02 1.63468E-02-4.18975E-03 1.00054E-02 7.85966E-03-2.84335E-03 3.61316E-03 1.31789E-03-8.22774E-04



 n o d a l   p r i n t   o u t   f o r   t i m e  s t e p   17402                              ( at time 8.6996293E+00 )

 nodal point  x-disp     y-disp      z-disp      x-vel       y-vel       z-vel      x-accl      y-accl      z-accl      x-coor      y-coor      z-coor
    22626  2.37750E-01 2.06661E-01-2.45152E+01 1.90706E-01 1.00085E-01-1.14511E+00 6.75393E-02-8.02928E-02 8.11772E-01 4.82019E+01-2.18231E+01-1.71767E+01



 n o d a l   p r i n t   o u t   f o r   t i m e  s t e p   17402                              ( at time 8.6996293E+00 )

 nodal point  x-rot      y-rot       z-rot       x-rot vel   y-rot vel   z-rot vel   x-rot acc   y-rot acc   z-rot acc
    22626  1.50598E-02 1.71357E-02-4.47901E-03 1.03795E-02 7.95132E-03-2.93714E-03 3.74101E-03 9.16636E-04-9.37909E-04



 n o d a l   p r i n t   o u t   f o r   t i m e  s t e p   17602                              ( at time 8.7996193E+00 )

 nodal point  x-disp     y-disp      z-disp      x-vel       y-vel       z-vel      x-accl      y-accl      z-accl      x-coor      y-coor      z-coor
    22626  2.57177E-01 2.16177E-01-2.46258E+01 1.97043E-01 8.98776E-02-1.06670E+00 6.33751E-02-1.02081E-01 7.84134E-01 4.82214E+01-2.18136E+01-1.72873E+01



 n o d a l   p r i n t   o u t   f o r   t i m e  s t e p   17602                              ( at time 8.7996193E+00 )

 nodal point  x-rot      y-rot       z-rot       x-rot vel   y-rot vel   z-rot vel   x-rot acc   y-rot acc   z-rot acc
    22626  1.61169E-02 1.79349E-02-4.77530E-03 1.07371E-02 8.06103E-03-2.99822E-03 3.57633E-03 1.09716E-03-6.10900E-04



 n o d a l   p r i n t   o u t   f o r   t i m e  s t e p   17802                              ( at time 8.8996093E+00 )

 nodal point  x-disp     y-disp      z-disp      x-vel       y-vel       z-vel      x-accl      y-accl      z-accl      x-coor      y-coor      z-coor
    22626  2.77210E-01 2.24540E-01-2.47283E+01 2.03258E-01 7.81305E-02-9.83975E-01 6.21604E-02-1.17482E-01 8.27376E-01 4.82414E+01-2.18053E+01-1.73898E+01



 n o d a l   p r i n t   o u t   f o r   t i m e  s t e p   17802                              ( at time 8.8996093E+00 )

 nodal point  x-rot      y-rot       z-rot       x-rot vel   y-rot vel   z-rot vel   x-rot acc   y-rot acc   z-rot acc
    22626  1.72084E-02 1.87478E-02-5.07889E-03 1.11107E-02 8.17450E-03-3.08761E-03 3.73643E-03 1.13488E-03-8.93948E-04



 n o d a l   p r i n t   o u t   f o r   t i m e  s t e p   18002                              ( at time 8.9995993E+00 )

 nodal point  x-disp     y-disp      z-disp      x-vel       y-vel       z-vel      x-accl      y-accl      z-accl      x-coor      y-coor      z-coor
    22626  2.97951E-01 2.31718E-01-2.48226E+01 2.10108E-01 6.58817E-02-9.01340E-01 6.85015E-02-1.22501E-01 8.26435E-01 4.82621E+01-2.17981E+01-1.74841E+01



 n o d a l   p r i n t   o u t   f o r   t i m e  s t e p   18002                              ( at time 8.9995993E+00 )

 nodal point  x-rot      y-rot       z-rot       x-rot vel   y-rot vel   z-rot vel   x-rot acc   y-rot acc   z-rot acc
    22626  1.83404E-02 1.95690E-02-5.39088E-03 1.15145E-02 8.27433E-03-3.15434E-03 4.03846E-03 9.98348E-04-6.67414E-04



 n o d a l   p r i n t   o u t   f o r   t i m e  s t e p   18202                              ( at time 9.0995893E+00 )

 nodal point  x-disp     y-disp      z-disp      x-vel       y-vel       z-vel      x-accl      y-accl      z-accl      x-coor      y-coor      z-coor
    22626  3.19363E-01 2.37693E-01-2.49086E+01 2.17973E-01 5.37814E-02-8.20652E-01 7.86560E-02-1.21015E-01 8.06956E-01 4.82835E+01-2.17921E+01-1.75701E+01



 n o d a l   p r i n t   o u t   f o r   t i m e  s t e p   18202                              ( at time 9.0995893E+00 )

 nodal point  x-rot      y-rot       z-rot       x-rot vel   y-rot vel   z-rot vel   x-rot acc   y-rot acc   z-rot acc
    22626  1.95079E-02 2.04027E-02-5.70887E-03 1.18575E-02 8.36275E-03-3.20134E-03 3.43120E-03 8.84287E-04-4.70032E-04



 n o d a l   p r i n t   o u t   f o r   t i m e  s t e p   18402                              ( at time 9.1995793E+00 )

 nodal point  x-disp     y-disp      z-disp      x-vel       y-vel       z-vel      x-accl      y-accl      z-accl      x-coor      y-coor      z-coor
    22626  3.41568E-01 2.42624E-01-2.49862E+01 2.24936E-01 4.47629E-02-7.32731E-01 6.96409E-02-9.01939E-02 8.79307E-01 4.83057E+01-2.17872E+01-1.76477E+01



 n o d a l   p r i n t   o u t   f o r   t i m e  s t e p   18402                              ( at time 9.1995793E+00 )

 nodal point  x-rot      y-rot       z-rot       x-rot vel   y-rot vel   z-rot vel   x-rot acc   y-rot acc   z-rot acc
    22626  2.07128E-02 2.12484E-02-6.03210E-03 1.22753E-02 8.53216E-03-3.27128E-03 4.17824E-03 1.69435E-03-6.99468E-04



 n o d a l   p r i n t   o u t   f o r   t i m e  s t e p   18602                              ( at time 9.2995693E+00 )

 nodal point  x-disp     y-disp      z-disp      x-vel       y-vel       z-vel      x-accl      y-accl      z-accl      x-coor      y-coor      z-coor
    22626  3.64411E-01 2.46863E-01-2.50553E+01 2.33382E-01 3.94993E-02-6.49004E-01 8.44719E-02-5.26412E-02 8.37352E-01 4.83286E+01-2.17829E+01-1.77168E+01



 n o d a l   p r i n t   o u t   f o r   t i m e  s t e p   18602                              ( at time 9.2995693E+00 )

 nodal point  x-rot      y-rot       z-rot       x-rot vel   y-rot vel   z-rot vel   x-rot acc   y-rot acc   z-rot acc
    22626  2.19625E-02 2.21056E-02-6.36047E-03 1.26509E-02 8.64910E-03-3.28359E-03 3.75568E-03 1.16944E-03-1.23115E-04



 n o d a l   p r i n t   o u t   f o r   t i m e  s t e p   18802                              ( at time 9.3995593E+00 )

 nodal point  x-disp     y-disp      z-disp      x-vel       y-vel       z-vel      x-accl      y-accl      z-accl      x-coor      y-coor      z-coor
    22626  3.88171E-01 2.50345E-01-2.51160E+01 2.42655E-01 2.92054E-02-5.66689E-01 9.27336E-02-1.02949E-01 8.23228E-01 4.83524E+01-2.17794E+01-1.77775E+01



 n o d a l   p r i n t   o u t   f o r   t i m e  s t e p   18802                              ( at time 9.3995593E+00 )

 nodal point  x-rot      y-rot       z-rot       x-rot vel   y-rot vel   z-rot vel   x-rot acc   y-rot acc   z-rot acc
    22626  2.32454E-02 2.29739E-02-6.69168E-03 1.30277E-02 8.73746E-03-3.30716E-03 3.76892E-03 8.83672E-04-2.35697E-04



 n o d a l   p r i n t   o u t   f o r   t i m e  s t e p   19002                              ( at time 9.4995493E+00 )

 nodal point  x-disp     y-disp      z-disp      x-vel       y-vel       z-vel      x-accl      y-accl      z-accl      x-coor      y-coor      z-coor
    22626  4.12824E-01 2.53380E-01-2.51683E+01 2.51078E-01 3.12014E-02-4.82727E-01 8.42421E-02 1.99614E-02 8.39711E-01 4.83770E+01-2.17764E+01-1.78298E+01



 n o d a l   p r i n t   o u t   f o r   t i m e  s t e p   19002                              ( at time 9.4995493E+00 )

 nodal point  x-rot      y-rot       z-rot       x-rot vel   y-rot vel   z-rot vel   x-rot acc   y-rot acc   z-rot acc
    22626  2.45725E-02 2.38559E-02-7.02866E-03 1.35115E-02 8.87778E-03-3.41944E-03 4.83794E-03 1.40339E-03-1.12294E-03



 n o d a l   p r i n t   o u t   f o r   t i m e  s t e p   19202                              ( at time 9.5995393E+00 )

 nodal point  x-disp     y-disp      z-disp      x-vel       y-vel       z-vel      x-accl      y-accl      z-accl      x-coor      y-coor      z-coor
    22626  4.38490E-01 2.56294E-01-2.52128E+01 2.61166E-01 2.65966E-02-4.05738E-01 1.00886E-01-4.60521E-02 7.69952E-01 4.84027E+01-2.17735E+01-1.78743E+01



 n o d a l   p r i n t   o u t   f o r   t i m e  s t e p   19202                              ( at time 9.5995393E+00 )

 nodal point  x-rot      y-rot       z-rot       x-rot vel   y-rot vel   z-rot vel   x-rot acc   y-rot acc   z-rot acc
    22626  2.59376E-02 2.47498E-02-7.37059E-03 1.38062E-02 9.04729E-03-3.45181E-03 2.94720E-03 1.69527E-03-3.23781E-04



 n o d a l   p r i n t   o u t   f o r   t i m e  s t e p   19402                              ( at time 9.6995293E+00 )

 nodal point  x-disp     y-disp      z-disp      x-vel       y-vel       z-vel      x-accl      y-accl      z-accl      x-coor      y-coor      z-coor
    22626  4.65111E-01 2.58799E-01-2.52498E+01 2.70981E-01 2.56253E-02-3.34423E-01 9.81677E-02-9.71423E-03 7.13224E-01 4.84293E+01-2.17710E+01-1.79113E+01



 n o d a l   p r i n t   o u t   f o r   t i m e  s t e p   19402                              ( at time 9.6995293E+00 )

 nodal point  x-rot      y-rot       z-rot       x-rot vel   y-rot vel   z-rot vel   x-rot acc   y-rot acc   z-rot acc
    22626  2.73372E-02 2.56614E-02-7.71576E-03 1.41950E-02 9.17941E-03-3.47308E-03 3.88921E-03 1.32135E-03-2.12705E-04



 n o d a l   p r i n t   o u t   f o r   t i m e  s t e p   19602                              ( at time 9.7995193E+00 )

 nodal point  x-disp     y-disp      z-disp      x-vel       y-vel       z-vel      x-accl      y-accl      z-accl      x-coor      y-coor      z-coor
    22626  4.92638E-01 2.61571E-01-2.52797E+01 2.79795E-01 2.80858E-02-2.67217E-01 8.81430E-02 2.46080E-02 6.72131E-01 4.84568E+01-2.17682E+01-1.79412E+01



 n o d a l   p r i n t   o u t   f o r   t i m e  s t e p   19602                              ( at time 9.7995193E+00 )

 nodal point  x-rot      y-rot       z-rot       x-rot vel   y-rot vel   z-rot vel   x-rot acc   y-rot acc   z-rot acc
    22626  2.87761E-02 2.65879E-02-8.06702E-03 1.45711E-02 9.34474E-03-3.52525E-03 3.76127E-03 1.65347E-03-5.21728E-04



 n o d a l   p r i n t   o u t   f o r   t i m e  s t e p   19802                              ( at time 9.8995093E+00 )

 nodal point  x-disp     y-disp      z-disp      x-vel       y-vel       z-vel      x-accl      y-accl      z-accl      x-coor      y-coor      z-coor
    22626  5.21124E-01 2.64309E-01-2.53032E+01 2.88285E-01 2.59284E-02-2.02490E-01 8.49050E-02-2.15766E-02 6.47337E-01 4.84853E+01-2.17655E+01-1.79647E+01



 n o d a l   p r i n t   o u t   f o r   t i m e  s t e p   19802                              ( at time 9.8995093E+00 )

 nodal point  x-rot      y-rot       z-rot       x-rot vel   y-rot vel   z-rot vel   x-rot acc   y-rot acc   z-rot acc
    22626  3.02456E-02 2.75301E-02-8.42036E-03 1.48469E-02 9.51310E-03-3.53222E-03 2.75781E-03 1.68375E-03-6.97142E-05



 n o d a l   p r i n t   o u t   f o r   t i m e  s t e p   20003                              ( at time 9.9999992E+00 )

 nodal point  x-disp     y-disp      z-disp      x-vel       y-vel       z-vel      x-accl      y-accl      z-accl      x-coor      y-coor      z-coor
[...]
    22626  2.42267E-01 1.37482E-01-6.61759E-02 1.68485E-02 7.01089E-03-5.00480E-03 1.94217E-04-2.91531E-05 2.85570E-04



 n o d a l   p r i n t   o u t   f o r   t i m e  s t e p   45205                              ( at time 2.2599738E+01 )

 nodal point  x-disp     y-disp      z-disp      x-vel       y-vel       z-vel      x-accl      y-accl      z-accl      x-coor      y-coor      z-coor
    22626  4.97147E+00-3.36743E-01-1.99546E+01 3.55624E-01-1.02255E-01 4.50694E-01 1.56637E-02-2.80840E-02-8.80262E-03 5.29356E+01-2.23665E+01-1.26161E+01



 n o d a l   p r i n t   o u t   f o r   t i m e  s t e p   45205                              ( at time 2.2599738E+01 )

 nodal point  x-rot      y-rot       z-rot       x-rot vel   y-rot vel   z-rot vel   x-rot acc   y-rot acc   z-rot acc
    22626  2.43954E-01 1.38183E-01-6.66719E-02 1.68779E-02 7.01106E-03-4.92705E-03 2.94176E-04 1.69516E-06 7.77600E-04



 n o d a l   p r i n t   o u t   f o r   t i m e  s t e p   45405                              ( at time 2.2699728E+01 )

 nodal point  x-disp     y-disp      z-disp      x-vel       y-vel       z-vel      x-accl      y-accl      z-accl      x-coor      y-coor      z-coor
    22626  5.00707E+00-3.47112E-01-1.99096E+01 3.56710E-01-1.06381E-01 4.48571E-01 1.08552E-02-4.12599E-02-2.12258E-02 5.29712E+01-2.23769E+01-1.25711E+01



 n o d a l   p r i n t   o u t   f o r   t i m e  s t e p   45405                              ( at time 2.2699728E+01 )

 nodal point  x-rot      y-rot       z-rot       x-rot vel   y-rot vel   z-rot vel   x-rot acc   y-rot acc   z-rot acc
    22626  2.45642E-01 1.38883E-01-6.71616E-02 1.69001E-02 6.99066E-03-4.86239E-03 2.22760E-04-2.03996E-04 6.46679E-04



 n o d a l   p r i n t   o u t   f o r   t i m e  s t e p   45605                              ( at time 2.2799718E+01 )

 nodal point  x-disp     y-disp      z-disp      x-vel       y-vel       z-vel      x-accl      y-accl      z-accl      x-coor      y-coor      z-coor
    22626  5.04277E+00-3.57902E-01-1.98648E+01 3.57584E-01-1.09470E-01 4.47465E-01 8.74212E-03-3.09009E-02-1.10654E-02 5.30070E+01-2.23877E+01-1.25263E+01



 n o d a l   p r i n t   o u t   f o r   t i m e  s t e p   45605                              ( at time 2.2799718E+01 )

 nodal point  x-rot      y-rot       z-rot       x-rot vel   y-rot vel   z-rot vel   x-rot acc   y-rot acc   z-rot acc
    22626  2.47333E-01 1.39582E-01-6.76470E-02 1.69376E-02 7.00149E-03-4.83471E-03 3.74594E-04 1.08309E-04 2.76768E-04



 n o d a l   p r i n t   o u t   f o r   t i m e  s t e p   45805                              ( at time 2.2899708E+01 )

 nodal point  x-disp     y-disp      z-disp      x-vel       y-vel       z-vel      x-accl      y-accl      z-accl      x-coor      y-coor      z-coor
    22626  5.07857E+00-3.69046E-01-1.98201E+01 3.59075E-01-1.12612E-01 4.45553E-01 1.49082E-02-3.14189E-02-1.91257E-02 5.30428E+01-2.23988E+01-1.24816E+01



 n o d a l   p r i n t   o u t   f o r   t i m e  s t e p   45805                              ( at time 2.2899708E+01 )

 nodal point  x-rot      y-rot       z-rot       x-rot vel   y-rot vel   z-rot vel   x-rot acc   y-rot acc   z-rot acc
    22626  2.49028E-01 1.40281E-01-6.81258E-02 1.69675E-02 6.98747E-03-4.75600E-03 2.99342E-04-1.40235E-04 7.87199E-04



 n o d a l   p r i n t   o u t   f o r   t i m e  s t e p   46005                              ( at time 2.2999698E+01 )

 nodal point  x-disp     y-disp      z-disp      x-vel       y-vel       z-vel      x-accl      y-accl      z-accl      x-coor      y-coor      z-coor
    22626  5.11445E+00-3.80455E-01-1.97757E+01 3.58487E-01-1.15867E-01 4.43413E-01-5.87994E-03-3.25572E-02-2.13982E-02 5.30786E+01-2.24102E+01-1.24372E+01



 n o d a l   p r i n t   o u t   f o r   t i m e  s t e p   46005                              ( at time 2.2999698E+01 )

 nodal point  x-rot      y-rot       z-rot       x-rot vel   y-rot vel   z-rot vel   x-rot acc   y-rot acc   z-rot acc
    22626  2.50727E-01 1.40980E-01-6.85981E-02 1.70010E-02 6.97544E-03-4.69842E-03 3.34916E-04-1.20291E-04 5.75894E-04



 n o d a l   p r i n t   o u t   f o r   t i m e  s t e p   46205                              ( at time 2.3099688E+01 )

 nodal point  x-disp     y-disp      z-disp      x-vel       y-vel       z-vel      x-accl      y-accl      z-accl      x-coor      y-coor      z-coor
    22626  5.15033E+00-3.92214E-01-1.97314E+01 3.59088E-01-1.19648E-01 4.42668E-01 6.01626E-03-3.78087E-02-7.44962E-03 5.31145E+01-2.24220E+01-1.23928E+01



 n o d a l   p r i n t   o u t   f o r   t i m e  s t e p   46205                              ( at time 2.3099688E+01 )

 nodal point  x-rot      y-rot       z-rot       x-rot vel   y-rot vel   z-rot vel   x-rot acc   y-rot acc   z-rot acc
    22626  2.52430E-01 1.41677E-01-6.90656E-02 1.70466E-02 6.97226E-03-4.65186E-03 4.55877E-04-3.18361E-05 4.65662E-04



 n o d a l   p r i n t   o u t   f o r   t i m e  s t e p   46405                              ( at time 2.3199678E+01 )

 nodal point  x-disp     y-disp      z-disp      x-vel       y-vel       z-vel      x-accl      y-accl      z-accl      x-coor      y-coor      z-coor
    22626  5.18625E+00-4.04382E-01-1.96873E+01 3.59388E-01-1.23631E-01 4.39703E-01 2.99481E-03-3.98301E-02-2.96575E-02 5.31504E+01-2.24342E+01-1.23488E+01



 n o d a l   p r i n t   o u t   f o r   t i m e  s t e p   46405                              ( at time 2.3199678E+01 )

 nodal point  x-rot      y-rot       z-rot       x-rot vel   y-rot vel   z-rot vel   x-rot acc   y-rot acc   z-rot acc
    22626  2.54137E-01 1.42374E-01-6.95272E-02 1.70863E-02 6.96400E-03-4.57780E-03 3.97357E-04-8.26019E-05 7.40590E-04



 n o d a l   p r i n t   o u t   f o r   t i m e  s t e p   46605                              ( at time 2.3299668E+01 )

 nodal point  x-disp     y-disp      z-disp      x-vel       y-vel       z-vel      x-accl      y-accl      z-accl      x-coor      y-coor      z-coor
    22626  5.22221E+00-4.16849E-01-1.96434E+01 3.59991E-01-1.26518E-01 4.38459E-01 6.03027E-03-2.88751E-02-1.24376E-02 5.31864E+01-2.24466E+01-1.23049E+01



 n o d a l   p r i n t   o u t   f o r   t i m e  s t e p   46605                              ( at time 2.3299668E+01 )

 nodal point  x-rot      y-rot       z-rot       x-rot vel   y-rot vel   z-rot vel   x-rot acc   y-rot acc   z-rot acc
    22626  2.55847E-01 1.43070E-01-6.99824E-02 1.71158E-02 6.94599E-03-4.53292E-03 2.95001E-04-1.80147E-04 4.48887E-04



 n o d a l   p r i n t   o u t   f o r   t i m e  s t e p   46805                              ( at time 2.3399658E+01 )

 nodal point  x-disp     y-disp      z-disp      x-vel       y-vel       z-vel      x-accl      y-accl      z-accl      x-coor      y-coor      z-coor
    22626  5.25815E+00-4.29654E-01-1.95996E+01 3.59617E-01-1.28885E-01 4.36871E-01-3.73994E-03-2.36750E-02-1.58819E-02 5.32223E+01-2.24594E+01-1.22611E+01



 n o d a l   p r i n t   o u t   f o r   t i m e  s t e p   46805                              ( at time 2.3399658E+01 )

 nodal point  x-rot      y-rot       z-rot       x-rot vel   y-rot vel   z-rot vel   x-rot acc   y-rot acc   z-rot acc
    22626  2.57559E-01 1.43764E-01-7.04327E-02 1.71496E-02 6.93807E-03-4.47653E-03 3.37449E-04-7.91557E-05 5.63977E-04



 n o d a l   p r i n t   o u t   f o r   t i m e  s t e p   47005                              ( at time 2.3499648E+01 )

 nodal point  x-disp     y-disp      z-disp      x-vel       y-vel       z-vel      x-accl      y-accl      z-accl      x-coor      y-coor      z-coor
    22626  5.29413E+00-4.42673E-01-1.95560E+01 3.59712E-01-1.31622E-01 4.35082E-01 9.54954E-04-2.73768E-02-1.78872E-02 5.32583E+01-2.24725E+01-1.22175E+01



 n o d a l   p r i n t   o u t   f o r   t i m e  s t e p   47005                              ( at time 2.3499648E+01 )

 nodal point  x-rot      y-rot       z-rot       x-rot vel   y-rot vel   z-rot vel   x-rot acc   y-rot acc   z-rot acc
    22626  2.59275E-01 1.44457E-01-7.08767E-02 1.71627E-02 6.93308E-03-4.40520E-03 1.31142E-04-4.99002E-05 7.13347E-04



 n o d a l   p r i n t   o u t   f o r   t i m e  s t e p   47205                              ( at time 2.3599638E+01 )

 nodal point  x-disp     y-disp      z-disp      x-vel       y-vel       z-vel      x-accl      y-accl      z-accl      x-coor      y-coor      z-coor
    22626  5.33008E+00-4.56006E-01-1.95126E+01 3.59793E-01-1.34692E-01 4.32909E-01 8.03858E-04-3.07032E-02-2.17387E-02 5.32943E+01-2.24858E+01-1.21741E+01



 n o d a l   p r i n t   o u t   f o r   t i m e  s t e p   47205                              ( at time 2.3599638E+01 )

 nodal point  x-rot      y-rot       z-rot       x-rot vel   y-rot vel   z-rot vel   x-rot acc   y-rot acc   z-rot acc
    22626  2.60992E-01 1.45149E-01-7.13157E-02 1.71846E-02 6.91608E-03-4.36744E-03 2.19313E-04-1.70027E-04 3.77651E-04



 n o d a l   p r i n t   o u t   f o r   t i m e  s t e p   47405                              ( at time 2.3699628E+01 )

 nodal point  x-disp     y-disp      z-disp      x-vel       y-vel       z-vel      x-accl      y-accl      z-accl      x-coor      y-coor      z-coor
    22626  5.36604E+00-4.69549E-01-1.94694E+01 3.59628E-01-1.36734E-01 4.31455E-01-1.65001E-03-2.04148E-02-1.45386E-02 5.33302E+01-2.24993E+01-1.21309E+01



 n o d a l   p r i n t   o u t   f o r   t i m e  s t e p   47405                              ( at time 2.3699628E+01 )

 nodal point  x-rot      y-rot       z-rot       x-rot vel   y-rot vel   z-rot vel   x-rot acc   y-rot acc   z-rot acc
    22626  2.62713E-01 1.45840E-01-7.17507E-02 1.72261E-02 6.90484E-03-4.31048E-03 4.15240E-04-1.12398E-04 5.69612E-04



 n o d a l   p r i n t   o u t   f o r   t i m e  s t e p   47605                              ( at time 2.3799618E+01 )

 nodal point  x-disp     y-disp      z-disp      x-vel       y-vel       z-vel      x-accl      y-accl      z-accl      x-coor      y-coor      z-coor
    22626  5.40196E+00-4.83255E-01-1.94264E+01 3.59026E-01-1.37610E-01 4.28241E-01-6.01626E-03-8.75957E-03-3.21415E-02 5.33661E+01-2.25130E+01-1.20879E+01



 n o d a l   p r i n t   o u t   f o r   t i m e  s t e p   47605                              ( at time 2.3799618E+01 )

 nodal point  x-rot      y-rot       z-rot       x-rot vel   y-rot vel   z-rot vel   x-rot acc   y-rot acc   z-rot acc
    22626  2.64436E-01 1.46530E-01-7.21812E-02 1.72602E-02 6.88945E-03-4.29165E-03 3.41163E-04-1.53941E-04 1.88330E-04



 n o d a l   p r i n t   o u t   f o r   t i m e  s t e p   47805                              ( at time 2.3899608E+01 )

 nodal point  x-disp     y-disp      z-disp      x-vel       y-vel       z-vel      x-accl      y-accl      z-accl      x-coor      y-coor      z-coor
    22626  5.43782E+00-4.97081E-01-1.93837E+01 3.58125E-01-1.38513E-01 4.25846E-01-9.01454E-03-9.03302E-03-2.39543E-02 5.34020E+01-2.25269E+01-1.20452E+01



 n o d a l   p r i n t   o u t   f o r   t i m e  s t e p   47805                              ( at time 2.3899608E+01 )

 nodal point  x-rot      y-rot       z-rot       x-rot vel   y-rot vel   z-rot vel   x-rot acc   y-rot acc   z-rot acc
    22626  2.66163E-01 1.47218E-01-7.26083E-02 1.72905E-02 6.86727E-03-4.26055E-03 3.02726E-04-2.21782E-04 3.11058E-04



 n o d a l   p r i n t   o u t   f o r   t i m e  s t e p   48005                              ( at time 2.3999598E+01 )

 nodal point  x-disp     y-disp      z-disp      x-vel       y-vel       z-vel      x-accl      y-accl      z-accl      x-coor      y-coor      z-coor
    22626  5.47362E+00-5.10940E-01-1.93413E+01 3.57764E-01-1.38411E-01 4.22819E-01-3.61065E-03 1.02084E-03-3.02691E-02 5.34378E+01-2.25407E+01-1.20028E+01



 n o d a l   p r i n t   o u t   f o r   t i m e  s t e p   48005                              ( at time 2.3999598E+01 )

 nodal point  x-rot      y-rot       z-rot       x-rot vel   y-rot vel   z-rot vel   x-rot acc   y-rot acc   z-rot acc
    22626  2.67895E-01 1.47904E-01-7.30327E-02 1.73332E-02 6.85996E-03-4.22467E-03 4.27152E-04-7.31402E-05 3.58818E-04



 n o d a l   p r i n t   o u t   f o r   t i m e  s t e p   48205                              ( at time 2.4099588E+01 )

 nodal point  x-disp     y-disp      z-disp      x-vel       y-vel       z-vel      x-accl      y-accl      z-accl      x-coor      y-coor      z-coor
    22626  5.50936E+00-5.24784E-01-1.92991E+01 3.57264E-01-1.38732E-01 4.20170E-01-4.99711E-03-3.20941E-03-2.64937E-02 5.34735E+01-2.25546E+01-1.19606E+01



 n o d a l   p r i n t   o u t   f o r   t i m e  s t e p   48205                              ( at time 2.4099588E+01 )

 nodal point  x-rot      y-rot       z-rot       x-rot vel   y-rot vel   z-rot vel   x-rot acc   y-rot acc   z-rot acc
    22626  2.69630E-01 1.48588E-01-7.34545E-02 1.73777E-02 6.83129E-03-4.20044E-03 4.44580E-04-2.86701E-04 2.42343E-04



 n o d a l   p r i n t   o u t   f o r   t i m e  s t e p   48405                              ( at time 2.4199578E+01 )

 nodal point  x-disp     y-disp      z-disp      x-vel       y-vel       z-vel      x-accl      y-accl      z-accl      x-coor      y-coor      z-coor
    22626  5.54506E+00-5.38579E-01-1.92573E+01 3.57118E-01-1.37619E-01 4.17352E-01-1.46375E-03 1.11264E-02-2.81872E-02 5.35092E+01-2.25684E+01-1.19188E+01



 n o d a l   p r i n t   o u t   f o r   t i m e  s t e p   48405                              ( at time 2.4199578E+01 )

 nodal point  x-rot      y-rot       z-rot       x-rot vel   y-rot vel   z-rot vel   x-rot acc   y-rot acc   z-rot acc
    22626  2.71370E-01 1.49269E-01-7.38743E-02 1.74197E-02 6.80545E-03-4.17451E-03 4.20259E-04-2.58452E-04 2.59360E-04



 n o d a l   p r i n t   o u t   f o r   t i m e  s t e p   48605                              ( at time 2.4299568E+01 )

 nodal point  x-disp     y-disp      z-disp      x-vel       y-vel       z-vel      x-accl      y-accl      z-accl      x-coor      y-coor      z-coor
    22626  5.58072E+00-5.52242E-01-1.92157E+01 3.56540E-01-1.36221E-01 4.14010E-01-5.77503E-03 1.39813E-02-3.34264E-02 5.35449E+01-2.25820E+01-1.18772E+01



 n o d a l   p r i n t   o u t   f o r   t i m e  s t e p   48605                              ( at time 2.4299568E+01 )

 nodal point  x-rot      y-rot       z-rot       x-rot vel   y-rot vel   z-rot vel   x-rot acc   y-rot acc   z-rot acc
    22626  2.73113E-01 1.49949E-01-7.42917E-02 1.74512E-02 6.78402E-03-4.16967E-03 3.15468E-04-2.14303E-04 4.83261E-05



 n o d a l   p r i n t   o u t   f o r   t i m e  s t e p   48805                              ( at time 2.4399558E+01 )

 nodal point  x-disp     y-disp      z-disp      x-vel       y-vel       z-vel      x-accl      y-accl      z-accl      x-coor      y-coor      z-coor
    22626  5.61633E+00-5.65740E-01-1.91744E+01 3.55214E-01-1.33866E-01 4.11694E-01-1.32650E-02 2.35549E-02-2.31573E-02 5.35805E+01-2.25955E+01-1.18359E+01



 n o d a l   p r i n t   o u t   f o r   t i m e  s t e p   48805                              ( at time 2.4399558E+01 )

 nodal point  x-rot      y-rot       z-rot       x-rot vel   y-rot vel   z-rot vel   x-rot acc   y-rot acc   z-rot acc
    22626  2.74861E-01 1.50626E-01-7.47083E-02 1.75022E-02 6.75307E-03-4.16917E-03 5.09797E-04-3.09549E-04 5.02029E-06



 n o d a l   p r i n t   o u t   f o r   t i m e  s t e p   49006                              ( at time 2.4500048E+01 )

 nodal point  x-disp     y-disp      z-disp      x-vel       y-vel       z-vel      x-accl      y-accl      z-accl      x-coor      y-coor      z-coor
    22626  5.65202E+00-5.79151E-01-1.91332E+01 3.54667E-01-1.32754E-01 4.08120E-01-5.43887E-03 1.10690E-02-3.55711E-02 5.36162E+01-2.26089E+01-1.17947E+01



 n o d a l   p r i n t   o u t   f o r   t i m e  s t e p   49006                              ( at time 2.4500048E+01 )

 nodal point  x-rot      y-rot       z-rot       x-rot vel   y-rot vel   z-rot vel   x-rot acc   y-rot acc   z-rot acc
    22626  2.76622E-01 1.51303E-01-7.51261E-02 1.75429E-02 6.73430E-03-4.15564E-03 4.04471E-04-1.86786E-04 1.34640E-04



 n o d a l   p r i n t   o u t   f o r   t i m e  s t e p   49206                              ( at time 2.4600038E+01 )

 nodal point  x-disp     y-disp      z-disp      x-vel       y-vel       z-vel      x-accl      y-accl      z-accl      x-coor      y-coor      z-coor
    22626  5.68740E+00-5.92327E-01-1.90926E+01 3.53643E-01-1.30883E-01 4.04811E-01-1.02434E-02 1.87062E-02-3.30896E-02 5.36516E+01-2.26221E+01-1.17541E+01



 n o d a l   p r i n t   o u t   f o r   t i m e  s t e p   49206                              ( at time 2.4600038E+01 )

 nodal point  x-rot      y-rot       z-rot       x-rot vel   y-rot vel   z-rot vel   x-rot acc   y-rot acc   z-rot acc
    22626  2.78379E-01 1.51975E-01-7.55416E-02 1.75894E-02 6.71364E-03-4.14715E-03 4.65723E-04-2.06591E-04 8.49397E-05



 n o d a l   p r i n t   o u t   f o r   t i m e  s t e p   49406                              ( at time 2.4700028E+01 )

 nodal point  x-disp     y-disp      z-disp      x-vel       y-vel       z-vel      x-accl      y-accl      z-accl      x-coor      y-coor      z-coor
    22626  5.72266E+00-6.05262E-01-1.90523E+01 3.52072E-01-1.27946E-01 4.02062E-01-1.57091E-02 2.93790E-02-2.74963E-02 5.36868E+01-2.26351E+01-1.17138E+01



 n o d a l   p r i n t   o u t   f o r   t i m e  s t e p   49406                              ( at time 2.4700028E+01 )

 nodal point  x-rot      y-rot       z-rot       x-rot vel   y-rot vel   z-rot vel   x-rot acc   y-rot acc   z-rot acc
    22626  2.80140E-01 1.52645E-01-7.59574E-02 1.76399E-02 6.67850E-03-4.16143E-03 5.05000E-04-3.51469E-04-1.42820E-04



 n o d a l   p r i n t   o u t   f o r   t i m e  s t e p   49606                              ( at time 2.4800018E+01 )

 nodal point  x-disp     y-disp      z-disp      x-vel       y-vel       z-vel      x-accl      y-accl      z-accl      x-coor      y-coor      z-coor
    22626  5.75777E+00-6.17969E-01-1.90122E+01 3.50581E-01-1.25951E-01 3.98948E-01-1.49127E-02 1.99509E-02-3.11409E-02 5.37220E+01-2.26478E+01-1.16737E+01



 n o d a l   p r i n t   o u t   f o r   t i m e  s t e p   49606                              ( at time 2.4800018E+01 )

 nodal point  x-rot      y-rot       z-rot       x-rot vel   y-rot vel   z-rot vel   x-rot acc   y-rot acc   z-rot acc
    22626  2.81906E-01 1.53311E-01-7.63735E-02 1.76778E-02 6.65051E-03-4.16148E-03 3.78841E-04-2.79897E-04-5.12274E-07



 n o d a l   p r i n t   o u t   f o r   t i m e  s t e p   49806                              ( at time 2.4900008E+01 )

 nodal point  x-disp     y-disp      z-disp      x-vel       y-vel       z-vel      x-accl      y-accl      z-accl      x-coor      y-coor      z-coor
    22626  5.79272E+00-6.30496E-01-1.89725E+01 3.48306E-01-1.24871E-01 3.95866E-01-2.27494E-02 1.07929E-02-3.08220E-02 5.37569E+01-2.26603E+01-1.16340E+01



 n o d a l   p r i n t   o u t   f o r   t i m e  s t e p   49806                              ( at time 2.4900008E+01 )

 nodal point  x-rot      y-rot       z-rot       x-rot vel   y-rot vel   z-rot vel   x-rot acc   y-rot acc   z-rot acc
    22626  2.83675E-01 1.53975E-01-7.67906E-02 1.77199E-02 6.62832E-03-4.18089E-03 4.21116E-04-2.21977E-04-1.94118E-04



 n o d a l   p r i n t   o u t   f o r   t i m e  s t e p   50006                              ( at time 2.4999998E+01 )

 nodal point  x-disp     y-disp      z-disp      x-vel       y-vel       z-vel      x-accl      y-accl      z-accl      x-coor      y-coor      z-coor
    22626  5.82749E+00-6.42875E-01-1.89331E+01 3.46766E-01-1.22414E-01 3.93252E-01-1.54027E-02 2.45743E-02-2.61414E-02 5.37917E+01-2.26727E+01-1.15946E+01



 n o d a l   p r i n t   o u t   f o r   t i m e  s t e p   50006                              ( at time 2.4999998E+01 )

 nodal point  x-rot      y-rot       z-rot       x-rot vel   y-rot vel   z-rot vel   x-rot acc   y-rot acc   z-rot acc
    22626  2.85449E-01 1.54637E-01-7.72087E-02 1.77559E-02 6.60421E-03-4.19987E-03 3.60194E-04-2.41086E-04-1.89816E-04
