 LSTC 50th% Full_FE H-III Dummy (Beta Version, February 17, 2019)        
                    ls-dyna smp s R16 R16.0_619_d222963 date 03/18/2025

{BEGIN LEGEND}
 Entity #        Title
    22626                                                                                     
{END LEGEND}




 n o d a l   p r i n t   o u t   f o r   t i m e  s t e p       1                              ( at time 0.0000000E+00 )

 nodal point  x-disp     y-disp      z-disp      x-vel       y-vel       z-vel      x-accl      y-accl      z-accl      x-coor      y-coor      z-coor
    22626  0.00000E+00 0.00000E+00 0.00000E+00 0.00000E+00 0.00000E+00 0.00000E+00 0.00000E+00 0.00000E+00 0.00000E+00 4.65938E+00-2.81908E+01-4.49817E+01



 n o d a l   p r i n t   o u t   f o r   t i m e  s t e p       1                              ( at time 0.0000000E+00 )

 nodal point  x-rot      y-rot       z-rot       x-rot vel   y-rot vel   z-rot vel   x-rot acc   y-rot acc   z-rot acc
    22626  0.00000E+00 0.00000E+00 0.00000E+00 0.00000E+00 0.00000E+00 0.00000E+00 0.00000E+00 0.00000E+00 0.00000E+00



 n o d a l   p r i n t   o u t   f o r   t i m e  s t e p     201                              ( at time 9.9989993E-02 )

 nodal point  x-disp     y-disp      z-disp      x-vel       y-vel       z-vel      x-accl      y-accl      z-accl      x-coor      y-coor      z-coor
    22626  2.73585E-07 1.73664E-06-5.34276E-05 4.19765E-05 2.55585E-04-1.46815E-03 4.19807E-04 2.55610E-03-1.46830E-02 4.65938E+00-2.81908E+01-4.49818E+01



 n o d a l   p r i n t   o u t   f o r   t i m e  s t e p     201                              ( at time 9.9989993E-02 )

 nodal point  x-rot      y-rot       z-rot       x-rot vel   y-rot vel   z-rot vel   x-rot acc   y-rot acc   z-rot acc
    22626 -5.98899E-08-8.38532E-09-5.45973E-09-5.86836E-06-9.70030E-07-9.27185E-07-5.86894E-05-9.70127E-06-9.27278E-06



 n o d a l   p r i n t   o u t   f o r   t i m e  s t e p     401                              ( at time 1.9997999E-01 )

 nodal point  x-disp     y-disp      z-disp      x-vel       y-vel       z-vel      x-accl      y-accl      z-accl      x-coor      y-coor      z-coor
    22626  1.73134E-05 3.61747E-04-6.67600E-04 3.06224E-05 7.81094E-03-1.21535E-02-1.13552E-04 7.55611E-02-1.06864E-01 4.65939E+00-2.81905E+01-4.49824E+01



 n o d a l   p r i n t   o u t   f o r   t i m e  s t e p     401                              ( at time 1.9997999E-01 )

 nodal point  x-rot      y-rot       z-rot       x-rot vel   y-rot vel   z-rot vel   x-rot acc   y-rot acc   z-rot acc
    22626 -2.82013E-06-3.37223E-07-3.34654E-07-3.93867E-05-1.76653E-06-2.29638E-06-3.35217E-04-7.96583E-06-1.36933E-05



 n o d a l   p r i n t   o u t   f o r   t i m e  s t e p     601                              ( at time 2.9996998E-01 )

 nodal point  x-disp     y-disp      z-disp      x-vel       y-vel       z-vel      x-accl      y-accl      z-accl      x-coor      y-coor      z-coor
    22626  2.73722E-05 1.24008E-03-2.33842E-03 4.22117E-04 8.45051E-03-1.92559E-02 3.91534E-03 6.39630E-03-7.10308E-02 4.65940E+00-2.81896E+01-4.49841E+01



 n o d a l   p r i n t   o u t   f o r   t i m e  s t e p     601                              ( at time 2.9996998E-01 )

 nodal point  x-rot      y-rot       z-rot       x-rot vel   y-rot vel   z-rot vel   x-rot acc   y-rot acc   z-rot acc
    22626 -5.38411E-06-3.90462E-07-6.42472E-07-1.54451E-05-5.51228E-06-6.66657E-06 2.39440E-04-3.74613E-05-4.37062E-05



 n o d a l   p r i n t   o u t   f o r   t i m e  s t e p     801                              ( at time 3.9995997E-01 )

 nodal point  x-disp     y-disp      z-disp      x-vel       y-vel       z-vel      x-accl      y-accl      z-accl      x-coor      y-coor      z-coor
    22626  2.60222E-05 2.16244E-03-4.28286E-03-3.13874E-04 1.07406E-02-2.10858E-02-7.36065E-03 2.29028E-02-1.83013E-02 4.65940E+00-2.81887E+01-4.49860E+01



 n o d a l   p r i n t   o u t   f o r   t i m e  s t e p     801                              ( at time 3.9995997E-01 )

 nodal point  x-rot      y-rot       z-rot       x-rot vel   y-rot vel   z-rot vel   x-rot acc   y-rot acc   z-rot acc
    22626 -7.61651E-06-1.25006E-06-9.81110E-07-4.48282E-05-6.21505E-06-1.51056E-06-2.93860E-04-7.02841E-06 5.15652E-05



 n o d a l   p r i n t   o u t   f o r   t i m e  s t e p    1001                              ( at time 4.9994997E-01 )

 nodal point  x-disp     y-disp      z-disp      x-vel       y-vel       z-vel      x-accl      y-accl      z-accl      x-coor      y-coor      z-coor
    22626  3.71664E-06 3.43652E-03-6.74478E-03-2.40838E-04 1.41499E-02-2.87092E-02 7.30434E-04 3.40971E-02-7.62413E-02 4.65938E+00-2.81874E+01-4.49885E+01



 n o d a l   p r i n t   o u t   f o r   t i m e  s t e p    1001                              ( at time 4.9994997E-01 )

 nodal point  x-rot      y-rot       z-rot       x-rot vel   y-rot vel   z-rot vel   x-rot acc   y-rot acc   z-rot acc
    22626 -1.35606E-05-1.16587E-06-9.50234E-07-8.42603E-05 3.19275E-06 4.11143E-06-3.94360E-04 9.40875E-05 5.62256E-05



 n o d a l   p r i n t   o u t   f o r   t i m e  s t e p    1201                              ( at time 5.9993996E-01 )

 nodal point  x-disp     y-disp      z-disp      x-vel       y-vel       z-vel      x-accl      y-accl      z-accl      x-coor      y-coor      z-coor
    22626 -8.64564E-07 5.01221E-03-9.71617E-03 4.51379E-05 1.67012E-02-3.09904E-02 2.86005E-03 2.55148E-02-2.28142E-02 4.65937E+00-2.81858E+01-4.49914E+01



 n o d a l   p r i n t   o u t   f o r   t i m e  s t e p    1201                              ( at time 5.9993996E-01 )

 nodal point  x-rot      y-rot       z-rot       x-rot vel   y-rot vel   z-rot vel   x-rot acc   y-rot acc   z-rot acc
    22626 -2.02873E-05-8.87277E-07-9.58247E-07-5.90481E-05 3.92480E-06-2.04782E-06 2.52147E-04 7.32126E-06-6.15987E-05



 n o d a l   p r i n t   o u t   f o r   t i m e  s t e p    1401                              ( at time 6.9992995E-01 )

 nodal point  x-disp     y-disp      z-disp      x-vel       y-vel       z-vel      x-accl      y-accl      z-accl      x-coor      y-coor      z-coor
    22626 -5.10118E-05 6.85040E-03-1.31710E-02-4.90123E-04 1.96594E-02-3.89660E-02-5.35314E-03 2.95855E-02-7.97642E-02 4.65932E+00-2.81840E+01-4.49949E+01



 n o d a l   p r i n t   o u t   f o r   t i m e  s t e p    1401                              ( at time 6.9992995E-01 )

 nodal point  x-rot      y-rot       z-rot       x-rot vel   y-rot vel   z-rot vel   x-rot acc   y-rot acc   z-rot acc
    22626 -2.62079E-05-9.01118E-07-6.32528E-07-7.09461E-05 3.43878E-07 3.87703E-06-1.18991E-04-3.58128E-05 5.92544E-05



 n o d a l   p r i n t   o u t   f o r   t i m e  s t e p    1601                              ( at time 7.9991994E-01 )

 nodal point  x-disp     y-disp      z-disp      x-vel       y-vel       z-vel      x-accl      y-accl      z-accl      x-coor      y-coor      z-coor
    22626 -8.02681E-05 8.98675E-03-1.74643E-02-4.97844E-04 2.21593E-02-4.51225E-02-7.72190E-05 2.50014E-02-6.15713E-02 4.65929E+00-2.81818E+01-4.49992E+01



 n o d a l   p r i n t   o u t   f o r   t i m e  s t e p    1601                              ( at time 7.9991994E-01 )

 nodal point  x-rot      y-rot       z-rot       x-rot vel   y-rot vel   z-rot vel   x-rot acc   y-rot acc   z-rot acc
    22626 -3.44001E-05-8.78066E-07-5.15252E-07-9.21334E-05-4.78269E-06 1.54966E-06-2.11894E-04-5.12708E-05-2.32760E-05



 n o d a l   p r i n t   o u t   f o r   t i m e  s t e p    1801                              ( at time 8.9990994E-01 )

 nodal point  x-disp     y-disp      z-disp      x-vel       y-vel       z-vel      x-accl      y-accl      z-accl      x-coor      y-coor      z-coor
    22626 -1.16866E-04 1.12542E-02-2.19906E-02-2.87249E-04 2.40440E-02-4.55862E-02 2.10616E-03 1.88485E-02-4.63745E-03 4.65926E+00-2.81796E+01-4.50037E+01



 n o d a l   p r i n t   o u t   f o r   t i m e  s t e p    1801                              ( at time 8.9990994E-01 )

 nodal point  x-rot      y-rot       z-rot       x-rot vel   y-rot vel   z-rot vel   x-rot acc   y-rot acc   z-rot acc
    22626 -4.28190E-05-9.57537E-07-5.02196E-07-8.25217E-05 1.94861E-06-7.19975E-07 9.61266E-05 6.73197E-05-2.26986E-05



 n o d a l   p r i n t   o u t   f o r   t i m e  s t e p    2001                              ( at time 9.9989993E-01 )

 nodal point  x-disp     y-disp      z-disp      x-vel       y-vel       z-vel      x-accl      y-accl      z-accl      x-coor      y-coor      z-coor
    22626 -1.52055E-04 1.37912E-02-2.67304E-02-3.55493E-05 2.65044E-02-5.00328E-02 2.51725E-03 2.46065E-02-4.44704E-02 4.65922E+00-2.81770E+01-4.50084E+01



 n o d a l   p r i n t   o u t   f o r   t i m e  s t e p    2001                              ( at time 9.9989993E-01 )

 nodal point  x-rot      y-rot       z-rot       x-rot vel   y-rot vel   z-rot vel   x-rot acc   y-rot acc   z-rot acc
    22626 -5.18489E-05-9.08944E-07-4.38060E-07-1.05927E-04 1.24340E-06-3.11501E-06-2.34079E-04-7.05283E-06-2.39527E-05



 n o d a l   p r i n t   o u t   f o r   t i m e  s t e p    2201                              ( at time 1.0998899E+00 )

 nodal point  x-disp     y-disp      z-disp      x-vel       y-vel       z-vel      x-accl      y-accl      z-accl      x-coor      y-coor      z-coor
    22626 -1.59809E-04 1.65322E-02-3.20559E-02-3.45080E-04 2.88794E-02-5.60826E-02-3.09562E-03 2.37525E-02-6.05042E-02 4.65921E+00-2.81743E+01-4.50138E+01



 n o d a l   p r i n t   o u t   f o r   t i m e  s t e p    2201                              ( at time 1.0998899E+00 )

 nodal point  x-rot      y-rot       z-rot       x-rot vel   y-rot vel   z-rot vel   x-rot acc   y-rot acc   z-rot acc
    22626 -6.29458E-05-1.00434E-06-7.50324E-07-1.03947E-04-7.65570E-06-2.07273E-06 1.98013E-05-8.89999E-05 1.04239E-05



 n o d a l   p r i n t   o u t   f o r   t i m e  s t e p    2401                              ( at time 1.1998799E+00 )

 nodal point  x-disp     y-disp      z-disp      x-vel       y-vel       z-vel      x-accl      y-accl      z-accl      x-coor      y-coor      z-coor
    22626 -1.89787E-04 1.94752E-02-3.79328E-02-1.95950E-04 3.02255E-02-6.12104E-02 1.49145E-03 1.34624E-02-5.12830E-02 4.65919E+00-2.81714E+01-4.50197E+01



 n o d a l   p r i n t   o u t   f o r   t i m e  s t e p    2401                              ( at time 1.1998799E+00 )

 nodal point  x-rot      y-rot       z-rot       x-rot vel   y-rot vel   z-rot vel   x-rot acc   y-rot acc   z-rot acc
    22626 -7.29532E-05-1.61492E-06-9.90875E-07-1.01196E-04-7.13870E-06-2.93791E-06 2.75166E-05 5.17051E-06-8.65267E-06



 n o d a l   p r i n t   o u t   f o r   t i m e  s t e p    2601                              ( at time 1.2998699E+00 )

 nodal point  x-disp     y-disp      z-disp      x-vel       y-vel       z-vel      x-accl      y-accl      z-accl      x-coor      y-coor      z-coor
    22626 -2.23877E-04 2.26249E-02-4.42079E-02-2.46386E-04 3.26014E-02-6.40467E-02-5.04409E-04 2.37617E-02-2.83655E-02 4.65915E+00-2.81682E+01-4.50259E+01



 n o d a l   p r i n t   o u t   f o r   t i m e  s t e p    2601                              ( at time 1.2998699E+00 )

 nodal point  x-rot      y-rot       z-rot       x-rot vel   y-rot vel   z-rot vel   x-rot acc   y-rot acc   z-rot acc
    22626 -8.39952E-05-2.17109E-06-1.24684E-06-1.29193E-04-3.08204E-08-1.50145E-06-2.80003E-04 7.10859E-05 1.43660E-05



 n o d a l   p r i n t   o u t   f o r   t i m e  s t e p    2801                              ( at time 1.3998599E+00 )

 nodal point  x-disp     y-disp      z-disp      x-vel       y-vel       z-vel      x-accl      y-accl      z-accl      x-coor      y-coor      z-coor
    22626 -2.51456E-04 2.59924E-02-5.07121E-02-4.50576E-04 3.45163E-02-6.66731E-02-2.04211E-03 1.91509E-02-2.62670E-02 4.65912E+00-2.81648E+01-4.50324E+01



 n o d a l   p r i n t   o u t   f o r   t i m e  s t e p    2801                              ( at time 1.3998599E+00 )

 nodal point  x-rot      y-rot       z-rot       x-rot vel   y-rot vel   z-rot vel   x-rot acc   y-rot acc   z-rot acc
    22626 -9.73976E-05-2.01159E-06-1.34554E-06-1.37022E-04-2.45107E-07 1.72395E-06-7.82933E-05-2.14308E-06 3.22572E-05



 n o d a l   p r i n t   o u t   f o r   t i m e  s t e p    3001                              ( at time 1.4998499E+00 )

 nodal point  x-disp     y-disp      z-disp      x-vel       y-vel       z-vel      x-accl      y-accl      z-accl      x-coor      y-coor      z-coor
    22626 -2.96341E-04 2.95911E-02-5.77242E-02-4.49074E-04 3.72802E-02-7.39850E-02 1.50296E-05 2.76418E-02-7.31263E-02 4.65908E+00-2.81612E+01-4.50394E+01



 n o d a l   p r i n t   o u t   f o r   t i m e  s t e p    3001                              ( at time 1.4998499E+00 )

 nodal point  x-rot      y-rot       z-rot       x-rot vel   y-rot vel   z-rot vel   x-rot acc   y-rot acc   z-rot acc
    22626 -1.10708E-04-2.03101E-06-1.27186E-06-1.28705E-04-1.00520E-06-1.76108E-06 8.31761E-05-7.60165E-06-3.48538E-05



 n o d a l   p r i n t   o u t   f o r   t i m e  s t e p    3201                              ( at time 1.5998399E+00 )

 nodal point  x-disp     y-disp      z-disp      x-vel       y-vel       z-vel      x-accl      y-accl      z-accl      x-coor      y-coor      z-coor
    22626 -3.60115E-04 3.34891E-02-6.54465E-02-5.85173E-04 4.05429E-02-7.97015E-02-1.36113E-03 3.26300E-02-5.71710E-02 4.65901E+00-2.81573E+01-4.50472E+01



 n o d a l   p r i n t   o u t   f o r   t i m e  s t e p    3201                              ( at time 1.5998399E+00 )

 nodal point  x-rot      y-rot       z-rot       x-rot vel   y-rot vel   z-rot vel   x-rot acc   y-rot acc   z-rot acc
    22626 -1.23311E-04-2.14873E-06-1.09905E-06-1.34591E-04-2.96207E-06 3.16934E-06-5.88649E-05-1.95707E-05 4.93091E-05



 n o d a l   p r i n t   o u t   f o r   t i m e  s t e p    3401                              ( at time 1.6998299E+00 )

 nodal point  x-disp     y-disp      z-disp      x-vel       y-vel       z-vel      x-accl      y-accl      z-accl      x-coor      y-coor      z-coor
    22626 -4.21700E-04 3.76416E-02-7.35823E-02-7.28835E-04 4.22390E-02-8.25898E-02-1.43676E-03 1.69623E-02-2.88857E-02 4.65895E+00-2.81532E+01-4.50553E+01



 n o d a l   p r i n t   o u t   f o r   t i m e  s t e p    3401                              ( at time 1.6998299E+00 )

 nodal point  x-rot      y-rot       z-rot       x-rot vel   y-rot vel   z-rot vel   x-rot acc   y-rot acc   z-rot acc
    22626 -1.37610E-04-2.15245E-06-9.10360E-07-1.47724E-04 1.58289E-06 3.90749E-06-1.31341E-04 4.54542E-05 7.38221E-06



 n o d a l   p r i n t   o u t   f o r   t i m e  s t e p    3601                              ( at time 1.7998199E+00 )

 nodal point  x-disp     y-disp      z-disp      x-vel       y-vel       z-vel      x-accl      y-accl      z-accl      x-coor      y-coor      z-coor
    22626 -4.84855E-04 4.19002E-02-8.19598E-02-5.10292E-04 4.32807E-02-8.48729E-02 2.18565E-03 1.04180E-02-2.28335E-02 4.65889E+00-2.81489E+01-4.50637E+01



 n o d a l   p r i n t   o u t   f o r   t i m e  s t e p    3601                              ( at time 1.7998199E+00 )

 nodal point  x-rot      y-rot       z-rot       x-rot vel   y-rot vel   z-rot vel   x-rot acc   y-rot acc   z-rot acc
    22626 -1.52821E-04-2.06448E-06-7.78894E-07-1.49776E-04 1.50563E-06-1.50025E-06-2.05242E-05-7.72687E-07-5.40829E-05



 n o d a l   p r i n t   o u t   f o r   t i m e  s t e p    3801                              ( at time 1.8998099E+00 )

 nodal point  x-disp     y-disp      z-disp      x-vel       y-vel       z-vel      x-accl      y-accl      z-accl      x-coor      y-coor      z-coor
    22626 -5.44117E-04 4.63776E-02-9.06359E-02-5.20363E-04 4.60761E-02-8.88738E-02-1.00717E-04 2.79569E-02-4.00121E-02 4.65883E+00-2.81445E+01-4.50724E+01



 n o d a l   p r i n t   o u t   f o r   t i m e  s t e p    3801                              ( at time 1.8998099E+00 )

 nodal point  x-rot      y-rot       z-rot       x-rot vel   y-rot vel   z-rot vel   x-rot acc   y-rot acc   z-rot acc
    22626 -1.67674E-04-1.85487E-06-6.49910E-07-1.49696E-04-1.54341E-06-5.31796E-07 7.96943E-07-3.04935E-05 9.68548E-06



 n o d a l   p r i n t   o u t   f o r   t i m e  s t e p    4001                              ( at time 1.9997999E+00 )

 nodal point  x-disp     y-disp      z-disp      x-vel       y-vel       z-vel      x-accl      y-accl      z-accl      x-coor      y-coor      z-coor
    22626 -5.94938E-04 5.10272E-02-9.97454E-02-5.47984E-04 4.71650E-02-9.31141E-02-2.76232E-04 1.08909E-02-4.24076E-02 4.65878E+00-2.81398E+01-4.50815E+01



 n o d a l   p r i n t   o u t   f o r   t i m e  s t e p    4001                              ( at time 1.9997999E+00 )

 nodal point  x-rot      y-rot       z-rot       x-rot vel   y-rot vel   z-rot vel   x-rot acc   y-rot acc   z-rot acc
    22626 -1.82767E-04-2.09046E-06-7.00534E-07-1.56038E-04-4.67253E-06-2.42536E-07-6.34204E-05-3.12943E-05 2.89289E-06



 n o d a l   p r i n t   o u t   f o r   t i m e  s t e p    4201                              ( at time 2.0997899E+00 )

 nodal point  x-disp     y-disp      z-disp      x-vel       y-vel       z-vel      x-accl      y-accl      z-accl      x-coor      y-coor      z-coor
    22626 -6.49060E-04 5.57837E-02-1.09162E-01-5.57915E-04 4.81974E-02-9.53045E-02-9.93227E-05 1.03242E-02-2.19059E-02 4.65873E+00-2.81350E+01-4.50909E+01



 n o d a l   p r i n t   o u t   f o r   t i m e  s t e p    4201                              ( at time 2.0997899E+00 )

 nodal point  x-rot      y-rot       z-rot       x-rot vel   y-rot vel   z-rot vel   x-rot acc   y-rot acc   z-rot acc
    22626 -1.97945E-04-2.48081E-06-8.63503E-07-1.49920E-04-1.53674E-06 2.08223E-06 6.11848E-05 3.13610E-05 2.32499E-05



 n o d a l   p r i n t   o u t   f o r   t i m e  s t e p    4401                              ( at time 2.1997798E+00 )

 nodal point  x-disp     y-disp      z-disp      x-vel       y-vel       z-vel      x-accl      y-accl      z-accl      x-coor      y-coor      z-coor
    22626 -7.07792E-04 6.06674E-02-1.18761E-01-4.96575E-04 4.91630E-02-9.67365E-02 6.13462E-04 9.65711E-03-1.43215E-02 4.65867E+00-2.81302E+01-4.51005E+01



 n o d a l   p r i n t   o u t   f o r   t i m e  s t e p    4401                              ( at time 2.1997798E+00 )

 nodal point  x-rot      y-rot       z-rot       x-rot vel   y-rot vel   z-rot vel   x-rot acc   y-rot acc   z-rot acc
    22626 -2.13317E-04-2.58728E-06-8.61597E-07-1.59264E-04-1.59298E-06-1.01375E-06-9.34477E-05-5.62472E-07-3.09629E-05



 n o d a l   p r i n t   o u t   f o r   t i m e  s t e p    4601                              ( at time 2.2997698E+00 )

 nodal point  x-disp     y-disp      z-disp      x-vel       y-vel       z-vel      x-accl      y-accl      z-accl      x-coor      y-coor      z-coor
    22626 -7.62889E-04 6.56143E-02-1.28510E-01-6.46581E-04 5.01872E-02-9.87446E-02-1.50021E-03 1.02432E-02-2.00830E-02 4.65861E+00-2.81252E+01-4.51102E+01



 n o d a l   p r i n t   o u t   f o r   t i m e  s t e p    4601                              ( at time 2.2997698E+00 )

 nodal point  x-rot      y-rot       z-rot       x-rot vel   y-rot vel   z-rot vel   x-rot acc   y-rot acc   z-rot acc
    22626 -2.29837E-04-2.52117E-06-8.70583E-07-1.61407E-04 9.06806E-07-9.55348E-07-2.14327E-05 2.50004E-05 5.84073E-07



 n o d a l   p r i n t   o u t   f o r   t i m e  s t e p    4801                              ( at time 2.3997598E+00 )

 nodal point  x-disp     y-disp      z-disp      x-vel       y-vel       z-vel      x-accl      y-accl      z-accl      x-coor      y-coor      z-coor
    22626 -8.37394E-04 7.07391E-02-1.38609E-01-7.66086E-04 5.20323E-02-1.03266E-01-1.19517E-03 1.84533E-02-4.52199E-02 4.65854E+00-2.81201E+01-4.51203E+01



 n o d a l   p r i n t   o u t   f o r   t i m e  s t e p    4801                              ( at time 2.3997598E+00 )

 nodal point  x-rot      y-rot       z-rot       x-rot vel   y-rot vel   z-rot vel   x-rot acc   y-rot acc   z-rot acc
    22626 -2.45589E-04-2.51315E-06-5.97990E-07-1.55246E-04-2.90671E-08 4.25096E-06 6.16150E-05-9.35968E-06 5.20683E-05



 n o d a l   p r i n t   o u t   f o r   t i m e  s t e p    5001                              ( at time 2.4997498E+00 )

 nodal point  x-disp     y-disp      z-disp      x-vel       y-vel       z-vel      x-accl      y-accl      z-accl      x-coor      y-coor      z-coor
    22626 -9.18580E-04 7.60402E-02-1.49107E-01-9.25458E-04 5.34291E-02-1.05955E-01-1.59388E-03 1.39687E-02-2.68910E-02 4.65846E+00-2.81148E+01-4.51308E+01



 n o d a l   p r i n t   o u t   f o r   t i m e  s t e p    5001                              ( at time 2.4997498E+00 )

 nodal point  x-rot      y-rot       z-rot       x-rot vel   y-rot vel   z-rot vel   x-rot acc   y-rot acc   z-rot acc
    22626 -2.61159E-04-2.39221E-06-3.36263E-07-1.54941E-04 1.75206E-06 4.37648E-06 3.05126E-06 1.78131E-05 1.25529E-06



 n o d a l   p r i n t   o u t   f o r   t i m e  s t e p    5201                              ( at time 2.5997398E+00 )

 nodal point  x-disp     y-disp      z-disp      x-vel       y-vel       z-vel      x-accl      y-accl      z-accl      x-coor      y-coor      z-coor
    22626 -1.00929E-03 8.13922E-02-1.59710E-01-9.90916E-04 5.34918E-02-1.06026E-01-6.54646E-04 6.27067E-04-7.10932E-04 4.65837E+00-2.81094E+01-4.51414E+01



 n o d a l   p r i n t   o u t   f o r   t i m e  s t e p    5201                              ( at time 2.5997398E+00 )

 nodal point  x-rot      y-rot       z-rot       x-rot vel   y-rot vel   z-rot vel   x-rot acc   y-rot acc   z-rot acc
    22626 -2.76668E-04-2.06447E-06 5.51209E-08-1.51655E-04 5.10959E-06 4.90962E-06 3.28565E-05 3.35787E-05 5.33199E-06



 n o d a l   p r i n t   o u t   f o r   t i m e  s t e p    5401                              ( at time 2.6997298E+00 )

 nodal point  x-disp     y-disp      z-disp      x-vel       y-vel       z-vel      x-accl      y-accl      z-accl      x-coor      y-coor      z-coor
    22626 -1.10745E-03 8.67282E-02-1.70314E-01-8.12612E-04 5.35661E-02-1.06232E-01 1.78321E-03 7.43008E-04-2.06446E-03 4.65827E+00-2.81041E+01-4.51520E+01



 n o d a l   p r i n t   o u t   f o r   t i m e  s t e p    5401                              ( at time 2.6997298E+00 )

 nodal point  x-rot      y-rot       z-rot       x-rot vel   y-rot vel   z-rot vel   x-rot acc   y-rot acc   z-rot acc
    22626 -2.92381E-04-1.62700E-06 5.80489E-07-1.62948E-04 5.41576E-06 3.61390E-06-1.12934E-04 3.06198E-06-1.29585E-05



 n o d a l   p r i n t   o u t   f o r   t i m e  s t e p    5601                              ( at time 2.7997198E+00 )

 nodal point  x-disp     y-disp      z-disp      x-vel       y-vel       z-vel      x-accl      y-accl      z-accl      x-coor      y-coor      z-coor
    22626 -1.19447E-03 9.21215E-02-1.80982E-01-8.83623E-04 5.42771E-02-1.07485E-01-7.10173E-04 7.11111E-03-1.25293E-02 4.65818E+00-2.80987E+01-4.51627E+01



 n o d a l   p r i n t   o u t   f o r   t i m e  s t e p    5601                              ( at time 2.7997198E+00 )

 nodal point  x-rot      y-rot       z-rot       x-rot vel   y-rot vel   z-rot vel   x-rot acc   y-rot acc   z-rot acc
    22626 -3.07865E-04-1.11465E-06 9.96564E-07-1.44572E-04 3.13639E-06 4.39879E-06 1.83777E-04-2.27960E-05 7.84969E-06



 n o d a l   p r i n t   o u t   f o r   t i m e  s t e p    5801                              ( at time 2.8997098E+00 )

 nodal point  x-disp     y-disp      z-disp      x-vel       y-vel       z-vel      x-accl      y-accl      z-accl      x-coor      y-coor      z-coor
    22626 -1.27564E-03 9.75422E-02-1.91832E-01-7.40629E-04 5.41897E-02-1.09472E-01 1.43008E-03-8.73557E-04-1.98712E-02 4.65810E+00-2.80933E+01-4.51736E+01



 n o d a l   p r i n t   o u t   f o r   t i m e  s t e p    5801                              ( at time 2.8997098E+00 )

 nodal point  x-rot      y-rot       z-rot       x-rot vel   y-rot vel   z-rot vel   x-rot acc   y-rot acc   z-rot acc
    22626 -3.21818E-04-9.20413E-07 1.29598E-06-1.40174E-04 6.09916E-07 3.63181E-06 4.39878E-05-2.52673E-05-7.67052E-06



 n o d a l   p r i n t   o u t   f o r   t i m e  s t e p    6001                              ( at time 2.9996998E+00 )

 nodal point  x-disp     y-disp      z-disp      x-vel       y-vel       z-vel      x-accl      y-accl      z-accl      x-coor      y-coor      z-coor
    22626 -1.35923E-03 1.02933E-01-2.02795E-01-7.27785E-04 5.35822E-02-1.09338E-01 1.28457E-04-6.07569E-03 1.34422E-03 4.65802E+00-2.80879E+01-4.51845E+01



 n o d a l   p r i n t   o u t   f o r   t i m e  s t e p    6001                              ( at time 2.9996998E+00 )

 nodal point  x-rot      y-rot       z-rot       x-rot vel   y-rot vel   z-rot vel   x-rot acc   y-rot acc   z-rot acc
    22626 -3.36595E-04-8.81471E-07 1.47922E-06-1.50129E-04 4.27653E-07 2.48533E-06-9.95617E-05-1.82282E-06-1.14660E-05



 n o d a l   p r i n t   o u t   f o r   t i m e  s t e p    6201                              ( at time 3.0996898E+00 )

 nodal point  x-disp     y-disp      z-disp      x-vel       y-vel       z-vel      x-accl      y-accl      z-accl      x-coor      y-coor      z-coor
    22626 -1.42814E-03 1.08282E-01-2.13684E-01-7.43903E-04 5.35987E-02-1.08919E-01-1.61200E-04 1.65010E-04 4.18705E-03 4.65795E+00-2.80825E+01-4.51954E+01



 n o d a l   p r i n t   o u t   f o r   t i m e  s t e p    6201                              ( at time 3.0996898E+00 )

 nodal point  x-rot      y-rot       z-rot       x-rot vel   y-rot vel   z-rot vel   x-rot acc   y-rot acc   z-rot acc
    22626 -3.51629E-04-8.07690E-07 1.73827E-06-1.49278E-04 8.86446E-08 4.55409E-06 8.50573E-06-3.39042E-06 2.06896E-05



 n o d a l   p r i n t   o u t   f o r   t i m e  s t e p    6401                              ( at time 3.1996798E+00 )

 nodal point  x-disp     y-disp      z-disp      x-vel       y-vel       z-vel      x-accl      y-accl      z-accl      x-coor      y-coor      z-coor
    22626 -1.49384E-03 1.13660E-01-2.24665E-01-6.48973E-04 5.39986E-02-1.10859E-01 9.49393E-04 3.99946E-03-1.93972E-02 4.65788E+00-2.80772E+01-4.52064E+01



 n o d a l   p r i n t   o u t   f o r   t i m e  s t e p    6401                              ( at time 3.1996798E+00 )

 nodal point  x-rot      y-rot       z-rot       x-rot vel   y-rot vel   z-rot vel   x-rot acc   y-rot acc   z-rot acc
    22626 -3.66472E-04-6.82923E-07 1.88734E-06-1.42141E-04 1.48779E-06 1.18644E-06 7.13840E-05 1.39929E-05-3.36797E-05



 n o d a l   p r i n t   o u t   f o r   t i m e  s t e p    6601                              ( at time 3.2996698E+00 )

 nodal point  x-disp     y-disp      z-disp      x-vel       y-vel       z-vel      x-accl      y-accl      z-accl      x-coor      y-coor      z-coor
    22626 -1.57204E-03 1.19081E-01-2.35856E-01-8.24884E-04 5.42993E-02-1.12738E-01-1.75929E-03 3.00676E-03-1.87928E-02 4.65780E+00-2.80717E+01-4.52176E+01



 n o d a l   p r i n t   o u t   f o r   t i m e  s t e p    6601                              ( at time 3.2996698E+00 )

 nodal point  x-rot      y-rot       z-rot       x-rot vel   y-rot vel   z-rot vel   x-rot acc   y-rot acc   z-rot acc
    22626 -3.80617E-04-5.10551E-07 2.14555E-06-1.37943E-04 2.35978E-06 2.75888E-06 4.19846E-05 8.72068E-06 1.57260E-05



 n o d a l   p r i n t   o u t   f o r   t i m e  s t e p    6801                              ( at time 3.3996598E+00 )

 nodal point  x-disp     y-disp      z-disp      x-vel       y-vel       z-vel      x-accl      y-accl      z-accl      x-coor      y-coor      z-coor
    22626 -1.65947E-03 1.24510E-01-2.47149E-01-9.67106E-04 5.40612E-02-1.13021E-01-1.42236E-03-2.38096E-03-2.83642E-03 4.65772E+00-2.80663E+01-4.52289E+01



 n o d a l   p r i n t   o u t   f o r   t i m e  s t e p    6801                              ( at time 3.3996598E+00 )

 nodal point  x-rot      y-rot       z-rot       x-rot vel   y-rot vel   z-rot vel   x-rot acc   y-rot acc   z-rot acc
    22626 -3.94339E-04-3.64685E-07 2.49681E-06-1.36936E-04 3.58691E-06 6.15512E-06 1.00670E-05 1.22726E-05 3.39658E-05



 n o d a l   p r i n t   o u t   f o r   t i m e  s t e p    7001                              ( at time 3.4996498E+00 )

 nodal point  x-disp     y-disp      z-disp      x-vel       y-vel       z-vel      x-accl      y-accl      z-accl      x-coor      y-coor      z-coor
    22626 -1.75287E-03 1.29862E-01-2.58387E-01-9.62484E-04 5.30996E-02-1.11680E-01 4.62268E-05-9.61695E-03 1.34120E-02 4.65762E+00-2.80610E+01-4.52401E+01



 n o d a l   p r i n t   o u t   f o r   t i m e  s t e p    7001                              ( at time 3.4996498E+00 )

 nodal point  x-rot      y-rot       z-rot       x-rot vel   y-rot vel   z-rot vel   x-rot acc   y-rot acc   z-rot acc
    22626 -4.08259E-04-2.58138E-08 2.94931E-06-1.37115E-04 4.66617E-06 4.27445E-06-1.79254E-06 1.07937E-05-1.88086E-05



 n o d a l   p r i n t   o u t   f o r   t i m e  s t e p    7201                              ( at time 3.5996397E+00 )

 nodal point  x-disp     y-disp      z-disp      x-vel       y-vel       z-vel      x-accl      y-accl      z-accl      x-coor      y-coor      z-coor
    22626 -1.84508E-03 1.35128E-01-2.69483E-01-8.12665E-04 5.20788E-02-1.10689E-01 1.49833E-03-1.02096E-02 9.91057E-03 4.65753E+00-2.80557E+01-4.52512E+01



 n o d a l   p r i n t   o u t   f o r   t i m e  s t e p    7201                              ( at time 3.5996397E+00 )

 nodal point  x-rot      y-rot       z-rot       x-rot vel   y-rot vel   z-rot vel   x-rot acc   y-rot acc   z-rot acc
    22626 -4.21648E-04 6.08889E-07 3.50476E-06-1.34730E-04 6.10343E-06 3.43879E-06 2.38527E-05 1.43740E-05-8.35747E-06



 n o d a l   p r i n t   o u t   f o r   t i m e  s t e p    7401                              ( at time 3.6996297E+00 )

 nodal point  x-disp     y-disp      z-disp      x-vel       y-vel       z-vel      x-accl      y-accl      z-accl      x-coor      y-coor      z-coor
    22626 -1.92968E-03 1.40290E-01-2.80549E-01-8.09130E-04 5.11622E-02-1.10734E-01 3.53594E-05-9.16624E-03-4.51997E-04 4.65745E+00-2.80505E+01-4.52623E+01



 n o d a l   p r i n t   o u t   f o r   t i m e  s t e p    7401                              ( at time 3.6996297E+00 )

 nodal point  x-rot      y-rot       z-rot       x-rot vel   y-rot vel   z-rot vel   x-rot acc   y-rot acc   z-rot acc
    22626 -4.34727E-04 1.09697E-06 3.92045E-06-1.26934E-04 2.91897E-06 3.63438E-06 7.79728E-05-3.18477E-05 1.95607E-06



 n o d a l   p r i n t   o u t   f o r   t i m e  s t e p    7601                              ( at time 3.7996197E+00 )

 nodal point  x-disp     y-disp      z-disp      x-vel       y-vel       z-vel      x-accl      y-accl      z-accl      x-coor      y-coor      z-coor
    22626 -2.00966E-03 1.45339E-01-2.91589E-01-7.73789E-04 4.97926E-02-1.09914E-01 3.53440E-04-1.36979E-02 8.20936E-03 4.65737E+00-2.80455E+01-4.52733E+01



 n o d a l   p r i n t   o u t   f o r   t i m e  s t e p    7601                              ( at time 3.7996197E+00 )

 nodal point  x-rot      y-rot       z-rot       x-rot vel   y-rot vel   z-rot vel   x-rot acc   y-rot acc   z-rot acc
    22626 -4.46956E-04 1.21793E-06 4.24123E-06-1.23701E-04-6.60739E-08 2.00985E-06 3.23299E-05-2.98535E-05-1.62470E-05



 n o d a l   p r i n t   o u t   f o r   t i m e  s t e p    7801                              ( at time 3.8996097E+00 )

 nodal point  x-disp     y-disp      z-disp      x-vel       y-vel       z-vel      x-accl      y-accl      z-accl      x-coor      y-coor      z-coor
    22626 -2.07543E-03 1.50235E-01-3.02490E-01-5.78038E-04 4.80392E-02-1.07946E-01 1.95771E-03-1.75355E-02 1.96799E-02 4.65730E+00-2.80406E+01-4.52842E+01



 n o d a l   p r i n t   o u t   f o r   t i m e  s t e p    7801                              ( at time 3.8996097E+00 )

 nodal point  x-rot      y-rot       z-rot       x-rot vel   y-rot vel   z-rot vel   x-rot acc   y-rot acc   z-rot acc
    22626 -4.59348E-04 1.21799E-06 4.43255E-06-1.29451E-04 1.26619E-06 1.78481E-06-5.75064E-05 1.33239E-05-2.25058E-06



 n o d a l   p r i n t   o u t   f o r   t i m e  s t e p    8001                              ( at time 3.9995997E+00 )

 nodal point  x-disp     y-disp      z-disp      x-vel       y-vel       z-vel      x-accl      y-accl      z-accl      x-coor      y-coor      z-coor
    22626 -2.12393E-03 1.54945E-01-3.13148E-01-4.48770E-04 4.63863E-02-1.05338E-01 1.29281E-03-1.65304E-02 2.60819E-02 4.65725E+00-2.80359E+01-4.52949E+01



 n o d a l   p r i n t   o u t   f o r   t i m e  s t e p    8001                              ( at time 3.9995997E+00 )

 nodal point  x-rot      y-rot       z-rot       x-rot vel   y-rot vel   z-rot vel   x-rot acc   y-rot acc   z-rot acc
    22626 -4.71970E-04 1.20581E-06 4.47072E-06-1.20134E-04-2.81300E-07 1.46560E-06 9.31754E-05-1.54764E-05-3.19246E-06



 n o d a l   p r i n t   o u t   f o r   t i m e  s t e p    8201                              ( at time 4.0995897E+00 )

 nodal point  x-disp     y-disp      z-disp      x-vel       y-vel       z-vel      x-accl      y-accl      z-accl      x-coor      y-coor      z-coor
    22626 -2.17243E-03 1.59503E-01-3.23623E-01-4.40544E-04 4.47329E-02-1.04367E-01 8.22689E-05-1.65361E-02 9.70668E-03 4.65720E+00-2.80313E+01-4.53053E+01



 n o d a l   p r i n t   o u t   f o r   t i m e  s t e p    8201                              ( at time 4.0995897E+00 )

 nodal point  x-rot      y-rot       z-rot       x-rot vel   y-rot vel   z-rot vel   x-rot acc   y-rot acc   z-rot acc
    22626 -4.83063E-04 1.14614E-06 4.53217E-06-1.05795E-04-9.79050E-07 1.07402E-06 1.43409E-04-6.97819E-06-3.91612E-06



 n o d a l   p r i n t   o u t   f o r   t i m e  s t e p    8401                              ( at time 4.1995797E+00 )

 nodal point  x-disp     y-disp      z-disp      x-vel       y-vel       z-vel      x-accl      y-accl      z-accl      x-coor      y-coor      z-coor
    22626 -2.22331E-03 1.63913E-01-3.33997E-01-6.02570E-04 4.34104E-02-1.02927E-01-1.62043E-03-1.32260E-02 1.44021E-02 4.65715E+00-2.80269E+01-4.53157E+01



 n o d a l   p r i n t   o u t   f o r   t i m e  s t e p    8401                              ( at time 4.1995797E+00 )

 nodal point  x-rot      y-rot       z-rot       x-rot vel   y-rot vel   z-rot vel   x-rot acc   y-rot acc   z-rot acc
    22626 -4.93517E-04 1.08351E-06 4.53256E-06-1.01644E-04 4.26254E-07 5.31477E-07 4.15172E-05 1.40545E-05-5.42601E-06



 n o d a l   p r i n t   o u t   f o r   t i m e  s t e p    8601                              ( at time 4.2995697E+00 )

 nodal point  x-disp     y-disp      z-disp      x-vel       y-vel       z-vel      x-accl      y-accl      z-accl      x-coor      y-coor      z-coor
    22626 -2.28487E-03 1.68176E-01-3.44181E-01-6.25777E-04 4.16512E-02-1.00499E-01-2.32090E-04-1.75942E-02 2.42857E-02 4.65709E+00-2.80227E+01-4.53259E+01



 n o d a l   p r i n t   o u t   f o r   t i m e  s t e p    8601                              ( at time 4.2995697E+00 )

 nodal point  x-rot      y-rot       z-rot       x-rot vel   y-rot vel   z-rot vel   x-rot acc   y-rot acc   z-rot acc
    22626 -5.03292E-04 1.17033E-06 4.76908E-06-9.23606E-05 2.52502E-06 3.24418E-06 9.28404E-05 2.09897E-05 2.71298E-05



 n o d a l   p r i n t   o u t   f o r   t i m e  s t e p    8801                              ( at time 4.3995597E+00 )

 nodal point  x-disp     y-disp      z-disp      x-vel       y-vel       z-vel      x-accl      y-accl      z-accl      x-coor      y-coor      z-coor
    22626 -2.34934E-03 1.72210E-01-3.54049E-01-5.42445E-04 3.92635E-02-9.69646E-02 8.33399E-04-2.38794E-02 3.53469E-02 4.65703E+00-2.80186E+01-4.53358E+01



 n o d a l   p r i n t   o u t   f o r   t i m e  s t e p    8801                              ( at time 4.3995597E+00 )

 nodal point  x-rot      y-rot       z-rot       x-rot vel   y-rot vel   z-rot vel   x-rot acc   y-rot acc   z-rot acc
    22626 -5.12314E-04 1.51198E-06 5.07675E-06-8.84603E-05 3.88428E-06 3.27022E-06 3.90078E-05 1.35940E-05 2.60376E-07



 n o d a l   p r i n t   o u t   f o r   t i m e  s t e p    9001                              ( at time 4.4995497E+00 )

 nodal point  x-disp     y-disp      z-disp      x-vel       y-vel       z-vel      x-accl      y-accl      z-accl      x-coor      y-coor      z-coor
    22626 -2.41031E-03 1.76073E-01-3.63625E-01-6.27108E-04 3.80667E-02-9.48982E-02-8.46708E-04-1.19691E-02 2.06665E-02 4.65696E+00-2.80148E+01-4.53453E+01



 n o d a l   p r i n t   o u t   f o r   t i m e  s t e p    9001                              ( at time 4.4995497E+00 )

 nodal point  x-rot      y-rot       z-rot       x-rot vel   y-rot vel   z-rot vel   x-rot acc   y-rot acc   z-rot acc
    22626 -5.21418E-04 1.91793E-06 5.47190E-06-8.81800E-05 2.44078E-06 3.33168E-06 2.80253E-06-1.44364E-05 6.14723E-07



 n o d a l   p r i n t   o u t   f o r   t i m e  s t e p    9201                              ( at time 4.5995397E+00 )

 nodal point  x-disp     y-disp      z-disp      x-vel       y-vel       z-vel      x-accl      y-accl      z-accl      x-coor      y-coor      z-coor
    22626 -2.46290E-03 1.79839E-01-3.73040E-01-4.59463E-04 3.72955E-02-9.34079E-02 1.67662E-03-7.71276E-03 1.49048E-02 4.65691E+00-2.80110E+01-4.53548E+01



 n o d a l   p r i n t   o u t   f o r   t i m e  s t e p    9201                              ( at time 4.5995397E+00 )

 nodal point  x-rot      y-rot       z-rot       x-rot vel   y-rot vel   z-rot vel   x-rot acc   y-rot acc   z-rot acc
    22626 -5.29593E-04 2.17925E-06 5.76629E-06-7.62535E-05 3.72402E-07 1.92877E-06 1.19278E-04-2.06859E-05-1.40305E-05



 n o d a l   p r i n t   o u t   f o r   t i m e  s t e p    9401                              ( at time 4.6995297E+00 )

 nodal point  x-disp     y-disp      z-disp      x-vel       y-vel       z-vel      x-accl      y-accl      z-accl      x-coor      y-coor      z-coor
    22626 -2.50952E-03 1.83512E-01-3.82262E-01-4.74341E-04 3.63574E-02-9.09674E-02-1.48795E-04-9.38183E-03 2.44071E-02 4.65687E+00-2.80073E+01-4.53640E+01



 n o d a l   p r i n t   o u t   f o r   t i m e  s t e p    9401                              ( at time 4.6995297E+00 )

 nodal point  x-rot      y-rot       z-rot       x-rot vel   y-rot vel   z-rot vel   x-rot acc   y-rot acc   z-rot acc
    22626 -5.37422E-04 2.14902E-06 5.74350E-06-8.31220E-05-9.60504E-07-1.06418E-06-6.86926E-05-1.33304E-05-2.99325E-05



 n o d a l   p r i n t   o u t   f o r   t i m e  s t e p    9601                              ( at time 4.7995197E+00 )

 nodal point  x-disp     y-disp      z-disp      x-vel       y-vel       z-vel      x-accl      y-accl      z-accl      x-coor      y-coor      z-coor
    22626 -2.54978E-03 1.87129E-01-3.91203E-01-2.33733E-04 3.61662E-02-8.76807E-02 2.40633E-03-1.91194E-03 3.28704E-02 4.65683E+00-2.80037E+01-4.53729E+01



 n o d a l   p r i n t   o u t   f o r   t i m e  s t e p    9601                              ( at time 4.7995197E+00 )

 nodal point  x-rot      y-rot       z-rot       x-rot vel   y-rot vel   z-rot vel   x-rot acc   y-rot acc   z-rot acc
    22626 -5.46151E-04 1.87548E-06 5.52098E-06-8.94109E-05-3.21941E-07-6.53247E-08-6.28952E-05 6.38628E-06 9.98954E-06



 n o d a l   p r i n t   o u t   f o r   t i m e  s t e p    9801                              ( at time 4.8995097E+00 )

 nodal point  x-disp     y-disp      z-disp      x-vel       y-vel       z-vel      x-accl      y-accl      z-accl      x-coor      y-coor      z-coor
    22626 -2.55108E-03 1.90750E-01-3.99826E-01 8.15242E-05 3.66033E-02-8.49352E-02 3.15289E-03 4.37092E-03 2.74572E-02 4.65682E+00-2.80001E+01-4.53815E+01



 n o d a l   p r i n t   o u t   f o r   t i m e  s t e p    9801                              ( at time 4.8995097E+00 )

 nodal point  x-rot      y-rot       z-rot       x-rot vel   y-rot vel   z-rot vel   x-rot acc   y-rot acc   z-rot acc
    22626 -5.54748E-04 1.79949E-06 5.51217E-06-8.02431E-05 2.05993E-07 1.25224E-06 9.16879E-05 5.27987E-06 1.31769E-05



 n o d a l   p r i n t   o u t   f o r   t i m e  s t e p   10001                              ( at time 4.9994997E+00 )

 nodal point  x-disp     y-disp      z-disp      x-vel       y-vel       z-vel      x-accl      y-accl      z-accl      x-coor      y-coor      z-coor
    22626 -2.54306E-03 1.94474E-01-4.08255E-01 2.61305E-05 3.81144E-02-8.35805E-02-5.53990E-04 1.51123E-02 1.35489E-02 4.65683E+00-2.79964E+01-4.53900E+01



 n o d a l   p r i n t   o u t   f o r   t i m e  s t e p   10001                              ( at time 4.9994997E+00 )

 nodal point  x-rot      y-rot       z-rot       x-rot vel   y-rot vel   z-rot vel   x-rot acc   y-rot acc   z-rot acc
    22626 -5.63181E-04 1.71964E-06 5.36440E-06-8.95863E-05-1.43165E-06-2.76559E-06-9.34412E-05-1.63780E-05-4.01822E-05



 n o d a l   p r i n t   o u t   f o r   t i m e  s t e p   10202                              ( at time 5.0999896E+00 )

 nodal point  x-disp     y-disp      z-disp      x-vel       y-vel       z-vel      x-accl      y-accl      z-accl      x-coor      y-coor      z-coor
    22626 -2.54408E-03 1.98381E-01-4.16526E-01 3.43143E-05 3.97044E-02-8.08669E-02 8.14386E-05 1.58227E-02 2.70038E-02 4.65683E+00-2.79924E+01-4.53982E+01



 n o d a l   p r i n t   o u t   f o r   t i m e  s t e p   10202                              ( at time 5.0999896E+00 )

 nodal point  x-rot      y-rot       z-rot       x-rot vel   y-rot vel   z-rot vel   x-rot acc   y-rot acc   z-rot acc
    22626 -5.73500E-04 1.67677E-06 5.34293E-06-1.14889E-04 2.19330E-06 1.38159E-06-2.51799E-04 3.60729E-05 4.12698E-05



 n o d a l   p r i n t   o u t   f o r   t i m e  s t e p   10402                              ( at time 5.1999796E+00 )

 nodal point  x-disp     y-disp      z-disp      x-vel       y-vel       z-vel      x-accl      y-accl      z-accl      x-coor      y-coor      z-coor
    22626 -2.53655E-03 2.02490E-01-4.24471E-01-1.87061E-05 4.24840E-02-7.80113E-02-5.30255E-04 2.77990E-02 2.85587E-02 4.65684E+00-2.79883E+01-4.54062E+01



 n o d a l   p r i n t   o u t   f o r   t i m e  s t e p   10402                              ( at time 5.1999796E+00 )

 nodal point  x-rot      y-rot       z-rot       x-rot vel   y-rot vel   z-rot vel   x-rot acc   y-rot acc   z-rot acc
    22626 -5.86425E-04 1.84331E-06 5.43310E-06-1.44750E-04 2.85330E-06-2.23191E-06-2.98630E-04 6.60060E-06-3.61385E-05



 n o d a l   p r i n t   o u t   f o r   t i m e  s t e p   10602                              ( at time 5.2999696E+00 )

 nodal point  x-disp     y-disp      z-disp      x-vel       y-vel       z-vel      x-accl      y-accl      z-accl      x-coor      y-coor      z-coor
    22626 -2.53562E-03 2.06889E-01-4.32101E-01 1.46699E-04 4.58346E-02-7.47780E-02 1.65422E-03 3.35092E-02 3.23356E-02 4.65684E+00-2.79839E+01-4.54138E+01



 n o d a l   p r i n t   o u t   f o r   t i m e  s t e p   10602                              ( at time 5.2999696E+00 )

 nodal point  x-rot      y-rot       z-rot       x-rot vel   y-rot vel   z-rot vel   x-rot acc   y-rot acc   z-rot acc
    22626 -6.02494E-04 2.21639E-06 5.50017E-06-1.77983E-04 7.42385E-06 4.89190E-06-3.32367E-04 4.57101E-05 7.12453E-05



 n o d a l   p r i n t   o u t   f o r   t i m e  s t e p   10802                              ( at time 5.3999596E+00 )

 nodal point  x-disp     y-disp      z-disp      x-vel       y-vel       z-vel      x-accl      y-accl      z-accl      x-coor      y-coor      z-coor
    22626 -2.49833E-03 2.11718E-01-4.39447E-01 5.73354E-04 5.09379E-02-7.23845E-02 4.26698E-03 5.10384E-02 2.39382E-02 4.65688E+00-2.79791E+01-4.54212E+01



 n o d a l   p r i n t   o u t   f o r   t i m e  s t e p   10802                              ( at time 5.3999596E+00 )

 nodal point  x-rot      y-rot       z-rot       x-rot vel   y-rot vel   z-rot vel   x-rot acc   y-rot acc   z-rot acc
    22626 -6.22549E-04 3.02539E-06 6.29566E-06-2.22027E-04 8.17207E-06 1.08175E-05-4.40482E-04 7.48295E-06 5.92623E-05



 n o d a l   p r i n t   o u t   f o r   t i m e  s t e p   11002                              ( at time 5.4999496E+00 )

 nodal point  x-disp     y-disp      z-disp      x-vel       y-vel       z-vel      x-accl      y-accl      z-accl      x-coor      y-coor      z-coor
    22626 -2.43425E-03 2.17089E-01-4.46572E-01 4.65011E-04 5.69378E-02-7.01399E-02-1.08353E-03 6.00054E-02 2.24482E-02 4.65694E+00-2.79737E+01-4.54283E+01



 n o d a l   p r i n t   o u t   f o r   t i m e  s t e p   11002                              ( at time 5.4999496E+00 )

 nodal point  x-rot      y-rot       z-rot       x-rot vel   y-rot vel   z-rot vel   x-rot acc   y-rot acc   z-rot acc
    22626 -6.47085E-04 3.94045E-06 6.97138E-06-2.70028E-04 5.23559E-06 2.19384E-06-4.80062E-04-2.93678E-05-8.62456E-05



 n o d a l   p r i n t   o u t   f o r   t i m e  s t e p   11202                              ( at time 5.5999396E+00 )

 nodal point  x-disp     y-disp      z-disp      x-vel       y-vel       z-vel      x-accl      y-accl      z-accl      x-coor      y-coor      z-coor
    22626 -2.40036E-03 2.23135E-01-4.53463E-01 2.19331E-04 6.40916E-02-6.73571E-02-2.45705E-03 7.15451E-02 2.78309E-02 4.65697E+00-2.79677E+01-4.54352E+01



 n o d a l   p r i n t   o u t   f o r   t i m e  s t e p   11202                              ( at time 5.5999396E+00 )

 nodal point  x-rot      y-rot       z-rot       x-rot vel   y-rot vel   z-rot vel   x-rot acc   y-rot acc   z-rot acc
    22626 -6.77110E-04 4.15310E-06 6.84375E-06-3.31884E-04 5.02095E-07-5.23629E-06-6.18621E-04-4.73397E-05-7.43088E-05



 n o d a l   p r i n t   o u t   f o r   t i m e  s t e p   11402                              ( at time 5.6999296E+00 )

 nodal point  x-disp     y-disp      z-disp      x-vel       y-vel       z-vel      x-accl      y-accl      z-accl      x-coor      y-coor      z-coor
    22626 -2.35409E-03 2.29927E-01-4.59984E-01 9.53178E-04 7.21150E-02-6.30112E-02 7.33917E-03 8.02410E-02 4.34632E-02 4.65702E+00-2.79609E+01-4.54417E+01



 n o d a l   p r i n t   o u t   f o r   t i m e  s t e p   11402                              ( at time 5.6999296E+00 )

 nodal point  x-rot      y-rot       z-rot       x-rot vel   y-rot vel   z-rot vel   x-rot acc   y-rot acc   z-rot acc
    22626 -7.14041E-04 4.35330E-06 6.45492E-06-4.06832E-04 1.11830E-05 3.22338E-06-7.49551E-04 1.06820E-04 8.46048E-05



 n o d a l   p r i n t   o u t   f o r   t i m e  s t e p   11602                              ( at time 5.7999195E+00 )

 nodal point  x-disp     y-disp      z-disp      x-vel       y-vel       z-vel      x-accl      y-accl      z-accl      x-coor      y-coor      z-coor
    22626 -2.20773E-03 2.37626E-01-4.66111E-01 1.61356E-03 8.20401E-02-6.00209E-02 6.60452E-03 9.92615E-02 2.99055E-02 4.65717E+00-2.79532E+01-4.54478E+01



 n o d a l   p r i n t   o u t   f o r   t i m e  s t e p   11602                              ( at time 5.7999195E+00 )

 nodal point  x-rot      y-rot       z-rot       x-rot vel   y-rot vel   z-rot vel   x-rot acc   y-rot acc   z-rot acc
    22626 -7.58629E-04 5.70359E-06 7.34431E-06-4.82025E-04 1.03862E-05 9.27559E-06-7.52006E-04-7.96919E-06 6.05282E-05



 n o d a l   p r i n t   o u t   f o r   t i m e  s t e p   11802                              ( at time 5.8999095E+00 )

 nodal point  x-disp     y-disp      z-disp      x-vel       y-vel       z-vel      x-accl      y-accl      z-accl      x-coor      y-coor      z-coor
    22626 -2.10381E-03 2.46418E-01-4.72042E-01 2.03936E-04 9.35763E-02-5.82728E-02-1.40977E-02 1.15374E-01 1.74827E-02 4.65727E+00-2.79444E+01-4.54538E+01



 n o d a l   p r i n t   o u t   f o r   t i m e  s t e p   11802                              ( at time 5.8999095E+00 )

 nodal point  x-rot      y-rot       z-rot       x-rot vel   y-rot vel   z-rot vel   x-rot acc   y-rot acc   z-rot acc
    22626 -8.11376E-04 5.66823E-06 6.69719E-06-5.72523E-04-1.08065E-05-2.29174E-05-9.05071E-04-2.11949E-04-3.21962E-04



 n o d a l   p r i n t   o u t   f o r   t i m e  s t e p   12002                              ( at time 5.9998995E+00 )

 nodal point  x-disp     y-disp      z-disp      x-vel       y-vel       z-vel      x-accl      y-accl      z-accl      x-coor      y-coor      z-coor
    22626 -2.11980E-03 2.56369E-01-4.77802E-01 1.99693E-04 1.05982E-01-5.67382E-02-4.24375E-05 1.24068E-01 1.53473E-02 4.65726E+00-2.79345E+01-4.54595E+01



 n o d a l   p r i n t   o u t   f o r   t i m e  s t e p   12002                              ( at time 5.9998995E+00 )

 nodal point  x-rot      y-rot       z-rot       x-rot vel   y-rot vel   z-rot vel   x-rot acc   y-rot acc   z-rot acc
    22626 -8.73660E-04 4.83409E-06 4.04942E-06-6.69948E-04-3.07684E-06-2.17457E-05-9.74349E-04 7.73048E-05 1.17185E-05



 n o d a l   p r i n t   o u t   f o r   t i m e  s t e p   12202                              ( at time 6.0998895E+00 )

 nodal point  x-disp     y-disp      z-disp      x-vel       y-vel       z-vel      x-accl      y-accl      z-accl      x-coor      y-coor      z-coor
    22626 -2.02984E-03 2.67667E-01-4.83359E-01 1.31176E-03 1.19941E-01-5.37753E-02 1.11217E-02 1.39609E-01 2.96324E-02 4.65735E+00-2.79232E+01-4.54651E+01



 n o d a l   p r i n t   o u t   f o r   t i m e  s t e p   12202                              ( at time 6.0998895E+00 )

 nodal point  x-rot      y-rot       z-rot       x-rot vel   y-rot vel   z-rot vel   x-rot acc   y-rot acc   z-rot acc
    22626 -9.46738E-04 5.36414E-06 3.24753E-06-7.86110E-04 8.46056E-06 1.23838E-06-1.16173E-03 1.15385E-04 2.29863E-04



 n o d a l   p r i n t   o u t   f o r   t i m e  s t e p   12402                              ( at time 6.1998795E+00 )

 nodal point  x-disp     y-disp      z-disp      x-vel       y-vel       z-vel      x-accl      y-accl      z-accl      x-coor      y-coor      z-coor
    22626 -1.90999E-03 2.80433E-01-4.88644E-01 8.50087E-04 1.35813E-01-5.27073E-02-4.61720E-03 1.58736E-01 1.06812E-02 4.65746E+00-2.79104E+01-4.54704E+01



 n o d a l   p r i n t   o u t   f o r   t i m e  s t e p   12402                              ( at time 6.1998795E+00 )

 nodal point  x-rot      y-rot       z-rot       x-rot vel   y-rot vel   z-rot vel   x-rot acc   y-rot acc   z-rot acc
    22626 -1.03156E-03 5.60987E-06 2.57444E-06-9.08632E-04-5.55240E-06-1.77881E-05-1.22534E-03-1.40144E-04-1.90284E-04



 n o d a l   p r i n t   o u t   f o r   t i m e  s t e p   12602                              ( at time 6.2998695E+00 )

 nodal point  x-disp     y-disp      z-disp      x-vel       y-vel       z-vel      x-accl      y-accl      z-accl      x-coor      y-coor      z-coor
    22626 -1.90277E-03 2.94825E-01-4.93894E-01-3.65786E-04 1.51757E-01-5.23275E-02-1.21600E-02 1.59449E-01 3.79787E-03 4.65747E+00-2.78960E+01-4.54756E+01



 n o d a l   p r i n t   o u t   f o r   t i m e  s t e p   12602                              ( at time 6.2998695E+00 )

 nodal point  x-rot      y-rot       z-rot       x-rot vel   y-rot vel   z-rot vel   x-rot acc   y-rot acc   z-rot acc
    22626 -1.12768E-03 4.19536E-06-1.05466E-07-1.01873E-03-1.47247E-05-3.58085E-05-1.10112E-03-9.17319E-05-1.80222E-04



 n o d a l   p r i n t   o u t   f o r   t i m e  s t e p   12802                              ( at time 6.3998595E+00 )

 nodal point  x-disp     y-disp      z-disp      x-vel       y-vel       z-vel      x-accl      y-accl      z-accl      x-coor      y-coor      z-coor
    22626 -1.91413E-03 3.10928E-01-4.99056E-01 8.78166E-05 1.70247E-01-5.10763E-02 4.53649E-03 1.84926E-01 1.25137E-02 4.65746E+00-2.78799E+01-4.54808E+01



 n o d a l   p r i n t   o u t   f o r   t i m e  s t e p   12802                              ( at time 6.3998595E+00 )

 nodal point  x-rot      y-rot       z-rot       x-rot vel   y-rot vel   z-rot vel   x-rot acc   y-rot acc   z-rot acc
    22626 -1.23633E-03 3.18490E-06-3.49410E-06-1.15589E-03-6.66866E-06-3.04423E-05-1.37173E-03 8.05681E-05 5.36671E-05



 n o d a l   p r i n t   o u t   f o r   t i m e  s t e p   13002                              ( at time 6.4998495E+00 )

 nodal point  x-disp     y-disp      z-disp      x-vel       y-vel       z-vel      x-accl      y-accl      z-accl      x-coor      y-coor      z-coor
    22626 -1.85200E-03 3.28872E-01-5.04072E-01 4.61866E-04 1.88782E-01-4.88724E-02 3.74088E-03 1.85367E-01 2.20408E-02 4.65752E+00-2.78620E+01-4.54858E+01



 n o d a l   p r i n t   o u t   f o r   t i m e  s t e p   13002                              ( at time 6.4998495E+00 )

 nodal point  x-rot      y-rot       z-rot       x-rot vel   y-rot vel   z-rot vel   x-rot acc   y-rot acc   z-rot acc
    22626 -1.35971E-03 1.64839E-06-6.97226E-06-1.29704E-03-2.63750E-05-4.49906E-05-1.41158E-03-1.97083E-04-1.45498E-04



 n o d a l   p r i n t   o u t   f o r   t i m e  s t e p   13202                              ( at time 6.5998395E+00 )

 nodal point  x-disp     y-disp      z-disp      x-vel       y-vel       z-vel      x-accl      y-accl      z-accl      x-coor      y-coor      z-coor
    22626 -1.89226E-03 3.48707E-01-5.08920E-01-1.58970E-03 2.08140E-01-4.80764E-02-2.05176E-02 1.93596E-01 7.96112E-03 4.65748E+00-2.78421E+01-4.54906E+01



 n o d a l   p r i n t   o u t   f o r   t i m e  s t e p   13202                              ( at time 6.5998395E+00 )

 nodal point  x-rot      y-rot       z-rot       x-rot vel   y-rot vel   z-rot vel   x-rot acc   y-rot acc   z-rot acc
    22626 -1.49657E-03-2.53283E-06-1.32508E-05-1.42704E-03-4.65419E-05-8.48423E-05-1.30017E-03-2.01688E-04-3.98555E-04



 n o d a l   p r i n t   o u t   f o r   t i m e  s t e p   13402                              ( at time 6.6998295E+00 )

 nodal point  x-disp     y-disp      z-disp      x-vel       y-vel       z-vel      x-accl      y-accl      z-accl      x-coor      y-coor      z-coor
    22626 -2.06838E-03 3.70509E-01-5.13754E-01-1.51600E-03 2.27695E-01-4.82343E-02 7.37023E-04 1.95570E-01-1.57961E-03 4.65731E+00-2.78203E+01-4.54955E+01



 n o d a l   p r i n t   o u t   f o r   t i m e  s t e p   13402                              ( at time 6.6998295E+00 )

 nodal point  x-rot      y-rot       z-rot       x-rot vel   y-rot vel   z-rot vel   x-rot acc   y-rot acc   z-rot acc
    22626 -1.64672E-03-7.02251E-06-2.23101E-05-1.56425E-03-3.66192E-05-8.56026E-05-1.37222E-03 9.92363E-05-7.60356E-06



 n o d a l   p r i n t   o u t   f o r   t i m e  s t e p   13602                              ( at time 6.7998195E+00 )

 nodal point  x-disp     y-disp      z-disp      x-vel       y-vel       z-vel      x-accl      y-accl      z-accl      x-coor      y-coor      z-coor
    22626 -2.12460E-03 3.94358E-01-5.18614E-01-1.09754E-04 2.49840E-01-4.95162E-02 1.40639E-02 2.21469E-01-1.28203E-02 4.65725E+00-2.77965E+01-4.55003E+01



 n o d a l   p r i n t   o u t   f o r   t i m e  s t e p   13602                              ( at time 6.7998195E+00 )

 nodal point  x-rot      y-rot       z-rot       x-rot vel   y-rot vel   z-rot vel   x-rot acc   y-rot acc   z-rot acc
    22626 -1.81019E-03-1.02214E-05-2.89895E-05-1.72118E-03-4.04409E-05-5.86831E-05-1.56945E-03-3.82209E-05 2.69222E-04



 n o d a l   p r i n t   o u t   f o r   t i m e  s t e p   13802                              ( at time 6.8998095E+00 )

 nodal point  x-disp     y-disp      z-disp      x-vel       y-vel       z-vel      x-accl      y-accl      z-accl      x-coor      y-coor      z-coor
    22626 -2.20014E-03 4.20427E-01-5.23500E-01-1.77291E-03 2.70814E-01-4.78503E-02-1.66333E-02 2.09762E-01 1.66614E-02 4.65718E+00-2.77704E+01-4.55052E+01



 n o d a l   p r i n t   o u t   f o r   t i m e  s t e p   13802                              ( at time 6.8998095E+00 )

 nodal point  x-rot      y-rot       z-rot       x-rot vel   y-rot vel   z-rot vel   x-rot acc   y-rot acc   z-rot acc
    22626 -1.98999E-03-1.54415E-05-3.66348E-05-1.88731E-03-6.81611E-05-8.96569E-05-1.66148E-03-2.77230E-04-3.09769E-04



 n o d a l   p r i n t   o u t   f o r   t i m e  s t e p   14002                              ( at time 6.9997995E+00 )

 nodal point  x-disp     y-disp      z-disp      x-vel       y-vel       z-vel      x-accl      y-accl      z-accl      x-coor      y-coor      z-coor
    22626 -2.50221E-03 4.48672E-01-5.28201E-01-3.28425E-03 2.94813E-01-4.73423E-02-1.51149E-02 2.40020E-01 5.08058E-03 4.65687E+00-2.77422E+01-4.55099E+01



 n o d a l   p r i n t   o u t   f o r   t i m e  s t e p   14002                              ( at time 6.9997995E+00 )

 nodal point  x-rot      y-rot       z-rot       x-rot vel   y-rot vel   z-rot vel   x-rot acc   y-rot acc   z-rot acc
    22626 -2.18642E-03-2.11463E-05-4.60360E-05-2.05584E-03-4.70676E-05-8.44330E-05-1.68547E-03 2.10956E-04 5.22443E-05



 n o d a l   p r i n t   o u t   f o r   t i m e  s t e p   14202                              ( at time 7.0997895E+00 )

 nodal point  x-disp     y-disp      z-disp      x-vel       y-vel       z-vel      x-accl      y-accl      z-accl      x-coor      y-coor      z-coor
    22626 -2.78595E-03 4.79349E-01-5.32980E-01-2.02974E-03 3.18875E-01-4.73865E-02 1.25463E-02 2.40641E-01-4.42905E-04 4.65659E+00-2.77115E+01-4.55147E+01



 n o d a l   p r i n t   o u t   f o r   t i m e  s t e p   14202                              ( at time 7.0997895E+00 )

 nodal point  x-rot      y-rot       z-rot       x-rot vel   y-rot vel   z-rot vel   x-rot acc   y-rot acc   z-rot acc
    22626 -2.39926E-03-2.51223E-05-5.49347E-05-2.21114E-03-4.00878E-05-8.49241E-05-1.55314E-03 6.98048E-05-4.91124E-06



 n o d a l   p r i n t   o u t   f o r   t i m e  s t e p   14402                              ( at time 7.1997794E+00 )

 nodal point  x-disp     y-disp      z-disp      x-vel       y-vel       z-vel      x-accl      y-accl      z-accl      x-coor      y-coor      z-coor
    22626 -3.03681E-03 5.12438E-01-5.37694E-01-3.46925E-03 3.43041E-01-4.64467E-02-1.43965E-02 2.41680E-01 9.39934E-03 4.65634E+00-2.76784E+01-4.55194E+01



 n o d a l   p r i n t   o u t   f o r   t i m e  s t e p   14402                              ( at time 7.1997794E+00 )

 nodal point  x-rot      y-rot       z-rot       x-rot vel   y-rot vel   z-rot vel   x-rot acc   y-rot acc   z-rot acc
    22626 -2.62949E-03-2.98422E-05-6.40218E-05-2.38900E-03-5.66452E-05-9.87978E-05-1.77880E-03-1.65590E-04-1.38752E-04



 n o d a l   p r i n t   o u t   f o r   t i m e  s t e p   14602                              ( at time 7.2997694E+00 )

 nodal point  x-disp     y-disp      z-disp      x-vel       y-vel       z-vel      x-accl      y-accl      z-accl      x-coor      y-coor      z-coor
    22626 -3.47090E-03 5.47951E-01-5.42365E-01-4.36706E-03 3.68192E-01-4.60729E-02-8.97902E-03 2.51542E-01 3.73833E-03 4.65590E+00-2.76429E+01-4.55241E+01



 n o d a l   p r i n t   o u t   f o r   t i m e  s t e p   14602                              ( at time 7.2997694E+00 )

 nodal point  x-rot      y-rot       z-rot       x-rot vel   y-rot vel   z-rot vel   x-rot acc   y-rot acc   z-rot acc
    22626 -2.87907E-03-3.71096E-05-7.53858E-05-2.60268E-03-7.61201E-05-1.23109E-04-2.13698E-03-1.94769E-04-2.43134E-04



 n o d a l   p r i n t   o u t   f o r   t i m e  s t e p   14802                              ( at time 7.3997594E+00 )

 nodal point  x-disp     y-disp      z-disp      x-vel       y-vel       z-vel      x-accl      y-accl      z-accl      x-coor      y-coor      z-coor
    22626 -3.87406E-03 5.86102E-01-5.46887E-01-3.33112E-03 3.94453E-01-4.49220E-02 1.03605E-02 2.62634E-01 1.15100E-02 4.65550E+00-2.76047E+01-4.55286E+01



 n o d a l   p r i n t   o u t   f o r   t i m e  s t e p   14802                              ( at time 7.3997594E+00 )

 nodal point  x-rot      y-rot       z-rot       x-rot vel   y-rot vel   z-rot vel   x-rot acc   y-rot acc   z-rot acc
    22626 -3.14763E-03-4.34733E-05-8.72058E-05-2.78454E-03-4.76340E-05-1.10919E-04-1.81877E-03 2.84890E-04 1.21915E-04



 n o d a l   p r i n t   o u t   f o r   t i m e  s t e p   15002                              ( at time 7.4997494E+00 )

 nodal point  x-disp     y-disp      z-disp      x-vel       y-vel       z-vel      x-accl      y-accl      z-accl      x-coor      y-coor      z-coor
    22626 -4.22775E-03 6.26821E-01-5.51256E-01-4.05653E-03 4.19694E-01-4.30293E-02-7.25480E-03 2.52437E-01 1.89288E-02 4.65515E+00-2.75640E+01-4.55330E+01



 n o d a l   p r i n t   o u t   f o r   t i m e  s t e p   15002                              ( at time 7.4997494E+00 )

 nodal point  x-rot      y-rot       z-rot       x-rot vel   y-rot vel   z-rot vel   x-rot acc   y-rot acc   z-rot acc
    22626 -3.43411E-03-4.95419E-05-9.86460E-05-2.97457E-03-8.40982E-05-1.27190E-04-1.90057E-03-3.64677E-04-1.62730E-04



 n o d a l   p r i n t   o u t   f o r   t i m e  s t e p   15202                              ( at time 7.5997394E+00 )

 nodal point  x-disp     y-disp      z-disp      x-vel       y-vel       z-vel      x-accl      y-accl      z-accl      x-coor      y-coor      z-coor
    22626 -4.67077E-03 6.70108E-01-5.55519E-01-5.12015E-03 4.46695E-01-4.36546E-02-1.06373E-02 2.70030E-01-6.25327E-03 4.65470E+00-2.75207E+01-4.55372E+01



 n o d a l   p r i n t   o u t   f o r   t i m e  s t e p   15202                              ( at time 7.5997394E+00 )

 nodal point  x-rot      y-rot       z-rot       x-rot vel   y-rot vel   z-rot vel   x-rot acc   y-rot acc   z-rot acc
    22626 -3.73892E-03-5.79004E-05-1.11157E-04-3.15236E-03-7.73668E-05-1.22822E-04-1.77803E-03 6.73202E-05 4.36858E-05



 n o d a l   p r i n t   o u t   f o r   t i m e  s t e p   15402                              ( at time 7.6997294E+00 )

 nodal point  x-disp     y-disp      z-disp      x-vel       y-vel       z-vel      x-accl      y-accl      z-accl      x-coor      y-coor      z-coor
    22626 -5.18795E-03 7.16225E-01-5.59880E-01-5.13904E-03 4.74097E-01-4.29696E-02-1.88919E-04 2.74049E-01 6.85064E-03 4.65419E+00-2.74746E+01-4.55416E+01



 n o d a l   p r i n t   o u t   f o r   t i m e  s t e p   15402                              ( at time 7.6997294E+00 )

 nodal point  x-rot      y-rot       z-rot       x-rot vel   y-rot vel   z-rot vel   x-rot acc   y-rot acc   z-rot acc
    22626 -4.06278E-03-6.44198E-05-1.23273E-04-3.34109E-03-5.78805E-05-1.28506E-04-1.88750E-03 1.94883E-04-5.68464E-05



 n o d a l   p r i n t   o u t   f o r   t i m e  s t e p   15602                              ( at time 7.7997194E+00 )

 nodal point  x-disp     y-disp      z-disp      x-vel       y-vel       z-vel      x-accl      y-accl      z-accl      x-coor      y-coor      z-coor
    22626 -5.63252E-03 7.64998E-01-5.64045E-01-4.56991E-03 5.02037E-01-4.11540E-02 5.69189E-03 2.79428E-01 1.81574E-02 4.65374E+00-2.74258E+01-4.55458E+01



 n o d a l   p r i n t   o u t   f o r   t i m e  s t e p   15602                              ( at time 7.7997194E+00 )

 nodal point  x-rot      y-rot       z-rot       x-rot vel   y-rot vel   z-rot vel   x-rot acc   y-rot acc   z-rot acc
    22626 -4.40537E-03-7.05605E-05-1.35918E-04-3.52064E-03-6.67311E-05-1.17527E-04-1.79567E-03-8.85151E-05 1.09803E-04



 n o d a l   p r i n t   o u t   f o r   t i m e  s t e p   15802                              ( at time 7.8997094E+00 )

 nodal point  x-disp     y-disp      z-disp      x-vel       y-vel       z-vel      x-accl      y-accl      z-accl      x-coor      y-coor      z-coor
    22626 -6.08720E-03 8.16639E-01-5.68198E-01-4.49627E-03 5.31154E-01-4.09928E-02 7.36462E-04 2.91196E-01 1.61310E-03 4.65329E+00-2.73742E+01-4.55499E+01



 n o d a l   p r i n t   o u t   f o r   t i m e  s t e p   15802                              ( at time 7.8997094E+00 )

 nodal point  x-rot      y-rot       z-rot       x-rot vel   y-rot vel   z-rot vel   x-rot acc   y-rot acc   z-rot acc
    22626 -4.76627E-03-7.72245E-05-1.46918E-04-3.70263E-03-6.79838E-05-1.16695E-04-1.82012E-03-1.25284E-05 8.31537E-06



 n o d a l   p r i n t   o u t   f o r   t i m e  s t e p   16002                              ( at time 7.9996994E+00 )

 nodal point  x-disp     y-disp      z-disp      x-vel       y-vel       z-vel      x-accl      y-accl      z-accl      x-coor      y-coor      z-coor
    22626 -6.56320E-03 8.71139E-01-5.72217E-01-4.48420E-03 5.59734E-01-3.91747E-02 1.20678E-04 2.85831E-01 1.81821E-02 4.65281E+00-2.73197E+01-4.55539E+01



 n o d a l   p r i n t   o u t   f o r   t i m e  s t e p   16002                              ( at time 7.9996994E+00 )

 nodal point  x-rot      y-rot       z-rot       x-rot vel   y-rot vel   z-rot vel   x-rot acc   y-rot acc   z-rot acc
    22626 -5.14543E-03-8.35280E-05-1.58783E-04-3.89414E-03-5.98458E-05-1.17681E-04-1.91521E-03 8.13876E-05-9.86220E-06



 n o d a l   p r i n t   o u t   f o r   t i m e  s t e p   16202                              ( at time 8.0996894E+00 )

 nodal point  x-disp     y-disp      z-disp      x-vel       y-vel       z-vel      x-accl      y-accl      z-accl      x-coor      y-coor      z-coor
    22626 -7.00064E-03 9.28574E-01-5.76096E-01-4.51974E-03 5.88432E-01-3.83004E-02-3.55387E-04 2.87014E-01 8.74392E-03 4.65237E+00-2.72623E+01-4.55578E+01



 n o d a l   p r i n t   o u t   f o r   t i m e  s t e p   16202                              ( at time 8.0996894E+00 )

 nodal point  x-rot      y-rot       z-rot       x-rot vel   y-rot vel   z-rot vel   x-rot acc   y-rot acc   z-rot acc
    22626 -5.54485E-03-8.88439E-05-1.69568E-04-4.09931E-03-4.92398E-05-9.67514E-05-2.05192E-03 1.06070E-04 2.09320E-04



 n o d a l   p r i n t   o u t   f o r   t i m e  s t e p   16402                              ( at time 8.1996794E+00 )

 nodal point  x-disp     y-disp      z-disp      x-vel       y-vel       z-vel      x-accl      y-accl      z-accl      x-coor      y-coor      z-coor
    22626 -7.41975E-03 9.88880E-01-5.79812E-01-3.74359E-03 6.17791E-01-3.59472E-02 7.76225E-03 2.93618E-01 2.35342E-02 4.65196E+00-2.72020E+01-4.55615E+01



 n o d a l   p r i n t   o u t   f o r   t i m e  s t e p   16402                              ( at time 8.1996794E+00 )

 nodal point  x-rot      y-rot       z-rot       x-rot vel   y-rot vel   z-rot vel   x-rot acc   y-rot acc   z-rot acc
    22626 -5.96426E-03-9.37471E-05-1.79923E-04-4.29962E-03-4.38898E-05-1.02007E-04-2.00329E-03 5.35062E-05-5.25633E-05



 n o d a l   p r i n t   o u t   f o r   t i m e  s t e p   16602                              ( at time 8.2996694E+00 )

 nodal point  x-disp     y-disp      z-disp      x-vel       y-vel       z-vel      x-accl      y-accl      z-accl      x-coor      y-coor      z-coor
    22626 -7.81800E-03 1.05209E+00-5.83209E-01-3.75936E-03 6.46758E-01-3.16820E-02-1.57694E-04 2.89698E-01 4.26562E-02 4.65156E+00-2.71387E+01-4.55649E+01



 n o d a l   p r i n t   o u t   f o r   t i m e  s t e p   16602                              ( at time 8.2996694E+00 )

 nodal point  x-rot      y-rot       z-rot       x-rot vel   y-rot vel   z-rot vel   x-rot acc   y-rot acc   z-rot acc
    22626 -6.40329E-03-9.89310E-05-1.89559E-04-4.49611E-03-4.47419E-05-8.58203E-05-1.96511E-03-8.52250E-06 1.61886E-04



 n o d a l   p r i n t   o u t   f o r   t i m e  s t e p   16802                              ( at time 8.3996594E+00 )

 nodal point  x-disp     y-disp      z-disp      x-vel       y-vel       z-vel      x-accl      y-accl      z-accl      x-coor      y-coor      z-coor
    22626 -8.20642E-03 1.11821E+00-5.86201E-01-3.96637E-03 6.76382E-01-2.89294E-02-2.07026E-03 2.96273E-01 2.75296E-02 4.65117E+00-2.70726E+01-4.55679E+01



 n o d a l   p r i n t   o u t   f o r   t i m e  s t e p   16802                              ( at time 8.3996594E+00 )

 nodal point  x-rot      y-rot       z-rot       x-rot vel   y-rot vel   z-rot vel   x-rot acc   y-rot acc   z-rot acc
    22626 -6.86190E-03-1.02824E-04-1.98406E-04-4.69492E-03-3.68823E-05-9.64734E-05-1.98831E-03 7.86039E-05-1.06542E-04



 n o d a l   p r i n t   o u t   f o r   t i m e  s t e p   17002                              ( at time 8.4996494E+00 )

 nodal point  x-disp     y-disp      z-disp      x-vel       y-vel       z-vel      x-accl      y-accl      z-accl      x-coor      y-coor      z-coor
    22626 -8.58274E-03 1.18730E+00-5.88929E-01-3.72592E-03 7.05045E-01-2.51613E-02 2.40470E-03 2.86659E-01 3.76843E-02 4.65079E+00-2.70035E+01-4.55706E+01



 n o d a l   p r i n t   o u t   f o r   t i m e  s t e p   17002                              ( at time 8.4996494E+00 )

 nodal point  x-rot      y-rot       z-rot       x-rot vel   y-rot vel   z-rot vel   x-rot acc   y-rot acc   z-rot acc
    22626 -7.34071E-03-1.05702E-04-2.07510E-04-4.90113E-03-2.44791E-05-8.23614E-05-2.06230E-03 1.24045E-04 1.41134E-04



 n o d a l   p r i n t   o u t   f o r   t i m e  s t e p   17202                              ( at time 8.5996394E+00 )

 nodal point  x-disp     y-disp      z-disp      x-vel       y-vel       z-vel      x-accl      y-accl      z-accl      x-coor      y-coor      z-coor
    22626 -8.94221E-03 1.25927E+00-5.91147E-01-3.10307E-03 7.34495E-01-1.94612E-02 6.22912E-03 2.94525E-01 5.70072E-02 4.65043E+00-2.69316E+01-4.55729E+01



 n o d a l   p r i n t   o u t   f o r   t i m e  s t e p   17202                              ( at time 8.5996394E+00 )

 nodal point  x-rot      y-rot       z-rot       x-rot vel   y-rot vel   z-rot vel   x-rot acc   y-rot acc   z-rot acc
    22626 -7.84080E-03-1.08518E-04-2.14921E-04-5.10159E-03-3.59301E-05-7.39806E-05-2.00485E-03-1.14522E-04 8.38162E-05



 n o d a l   p r i n t   o u t   f o r   t i m e  s t e p   17402                              ( at time 8.6996293E+00 )

 nodal point  x-disp     y-disp      z-disp      x-vel       y-vel       z-vel      x-accl      y-accl      z-accl      x-coor      y-coor      z-coor
    22626 -9.30151E-03 1.33407E+00-5.92820E-01-3.89762E-03 7.60574E-01-1.20828E-02-7.94618E-03 2.60811E-01 7.37905E-02 4.65007E+00-2.68568E+01-4.55745E+01



 n o d a l   p r i n t   o u t   f o r   t i m e  s t e p   17402                              ( at time 8.6996293E+00 )

 nodal point  x-rot      y-rot       z-rot       x-rot vel   y-rot vel   z-rot vel   x-rot acc   y-rot acc   z-rot acc
    22626 -8.36092E-03-1.11556E-04-2.22851E-04-5.28976E-03-1.92061E-05-7.73581E-05-1.88184E-03 1.67255E-04-3.37777E-05



 n o d a l   p r i n t   o u t   f o r   t i m e  s t e p   17602                              ( at time 8.7996193E+00 )

 nodal point  x-disp     y-disp      z-disp      x-vel       y-vel       z-vel      x-accl      y-accl      z-accl      x-coor      y-coor      z-coor
    22626 -9.63150E-03 1.41152E+00-5.93670E-01-2.49263E-03 7.88376E-01-5.13882E-03 1.40513E-02 2.78049E-01 6.94469E-02 4.64974E+00-2.67793E+01-4.55754E+01



 n o d a l   p r i n t   o u t   f o r   t i m e  s t e p   17602                              ( at time 8.7996193E+00 )

 nodal point  x-rot      y-rot       z-rot       x-rot vel   y-rot vel   z-rot vel   x-rot acc   y-rot acc   z-rot acc
    22626 -8.90029E-03-1.12419E-04-2.29475E-04-5.48636E-03-1.31584E-05-6.15976E-05-1.96624E-03 6.04837E-05 1.57621E-04



 n o d a l   p r i n t   o u t   f o r   t i m e  s t e p   17802                              ( at time 8.8996093E+00 )

 nodal point  x-disp     y-disp      z-disp      x-vel       y-vel       z-vel      x-accl      y-accl      z-accl      x-coor      y-coor      z-coor
    22626 -9.91996E-03 1.49179E+00-5.93870E-01-3.64571E-03 8.15891E-01 1.03523E-03-1.15319E-02 2.75177E-01 6.17467E-02 4.64946E+00-2.66990E+01-4.55756E+01



 n o d a l   p r i n t   o u t   f o r   t i m e  s t e p   17802                              ( at time 8.8996093E+00 )

 nodal point  x-rot      y-rot       z-rot       x-rot vel   y-rot vel   z-rot vel   x-rot acc   y-rot acc   z-rot acc
    22626 -9.45950E-03-1.13471E-04-2.35544E-04-5.72027E-03-3.09926E-06-6.08182E-05-2.33931E-03 1.00601E-04 7.79421E-06



 n o d a l   p r i n t   o u t   f o r   t i m e  s t e p   18002                              ( at time 8.9995993E+00 )

 nodal point  x-disp     y-disp      z-disp      x-vel       y-vel       z-vel      x-accl      y-accl      z-accl      x-coor      y-coor      z-coor
    22626 -1.01720E-02 1.57483E+00-5.93149E-01-2.11904E-03 8.42901E-01 1.10083E-02 1.52682E-02 2.70128E-01 9.97410E-02 4.64920E+00-2.66160E+01-4.55749E+01



 n o d a l   p r i n t   o u t   f o r   t i m e  s t e p   18002                              ( at time 8.9995993E+00 )

 nodal point  x-rot      y-rot       z-rot       x-rot vel   y-rot vel   z-rot vel   x-rot acc   y-rot acc   z-rot acc
    22626 -1.00412E-02-1.12901E-04-2.40386E-04-5.94316E-03-3.00764E-07-4.32333E-05-2.22911E-03 2.79878E-05 1.75867E-04



 n o d a l   p r i n t   o u t   f o r   t i m e  s t e p   18202                              ( at time 9.0995893E+00 )

 nodal point  x-disp     y-disp      z-disp      x-vel       y-vel       z-vel      x-accl      y-accl      z-accl      x-coor      y-coor      z-coor
    22626 -1.04591E-02 1.66059E+00-5.91443E-01-2.67555E-03 8.71754E-01 2.02515E-02-5.56565E-03 2.88559E-01 9.24409E-02 4.64892E+00-2.65302E+01-4.55732E+01



 n o d a l   p r i n t   o u t   f o r   t i m e  s t e p   18202                              ( at time 9.0995893E+00 )

 nodal point  x-rot      y-rot       z-rot       x-rot vel   y-rot vel   z-rot vel   x-rot acc   y-rot acc   z-rot acc
    22626 -1.06418E-02-1.13315E-04-2.44522E-04-6.13573E-03 9.38546E-06-4.64120E-05-1.92590E-03 9.68720E-05-3.17901E-05



 n o d a l   p r i n t   o u t   f o r   t i m e  s t e p   18402                              ( at time 9.1995793E+00 )

 nodal point  x-disp     y-disp      z-disp      x-vel       y-vel       z-vel      x-accl      y-accl      z-accl      x-coor      y-coor      z-coor
    22626 -1.06513E-02 1.74917E+00-5.88787E-01-1.55228E-03 8.98385E-01 3.13485E-02 1.12338E-02 2.66345E-01 1.10982E-01 4.64872E+00-2.64417E+01-4.55705E+01



 n o d a l   p r i n t   o u t   f o r   t i m e  s t e p   18402                              ( at time 9.1995793E+00 )

 nodal point  x-rot      y-rot       z-rot       x-rot vel   y-rot vel   z-rot vel   x-rot acc   y-rot acc   z-rot acc
    22626 -1.12628E-02-1.11342E-04-2.48514E-04-6.32941E-03 2.65681E-05-2.60403E-05-1.93695E-03 1.71843E-04 2.03738E-04



 n o d a l   p r i n t   o u t   f o r   t i m e  s t e p   18602                              ( at time 9.2995693E+00 )

 nodal point  x-disp     y-disp      z-disp      x-vel       y-vel       z-vel      x-accl      y-accl      z-accl      x-coor      y-coor      z-coor
    22626 -1.07961E-02 1.84037E+00-5.85013E-01-1.52205E-03 9.25858E-01 4.32395E-02 3.02311E-04 2.74754E-01 1.18921E-01 4.64858E+00-2.63505E+01-4.55667E+01



 n o d a l   p r i n t   o u t   f o r   t i m e  s t e p   18602                              ( at time 9.2995693E+00 )

 nodal point  x-rot      y-rot       z-rot       x-rot vel   y-rot vel   z-rot vel   x-rot acc   y-rot acc   z-rot acc
    22626 -1.19046E-02-1.08802E-04-2.50410E-04-6.51615E-03 2.09795E-05-2.07740E-05-1.86762E-03-5.58918E-05 5.26682E-05



 n o d a l   p r i n t   o u t   f o r   t i m e  s t e p   18802                              ( at time 9.3995593E+00 )

 nodal point  x-disp     y-disp      z-disp      x-vel       y-vel       z-vel      x-accl      y-accl      z-accl      x-coor      y-coor      z-coor
    22626 -1.09210E-02 1.93442E+00-5.80153E-01-1.32676E-03 9.54738E-01 5.49864E-02 1.95313E-03 2.88824E-01 1.17481E-01 4.64845E+00-2.62564E+01-4.55619E+01



 n o d a l   p r i n t   o u t   f o r   t i m e  s t e p   18802                              ( at time 9.3995593E+00 )

 nodal point  x-rot      y-rot       z-rot       x-rot vel   y-rot vel   z-rot vel   x-rot acc   y-rot acc   z-rot acc
    22626 -1.25671E-02-1.06970E-04-2.52619E-04-6.72169E-03 2.52962E-05-1.33241E-05-2.05564E-03 4.31713E-05 7.45070E-05



 n o d a l   p r i n t   o u t   f o r   t i m e  s t e p   19002                              ( at time 9.4995493E+00 )

 nodal point  x-disp     y-disp      z-disp      x-vel       y-vel       z-vel      x-accl      y-accl      z-accl      x-coor      y-coor      z-coor
    22626 -1.11099E-02 2.03109E+00-5.74031E-01-1.03362E-03 9.79887E-01 6.81512E-02 2.93169E-03 2.51519E-01 1.31662E-01 4.64826E+00-2.61597E+01-4.55558E+01



 n o d a l   p r i n t   o u t   f o r   t i m e  s t e p   19002                              ( at time 9.4995493E+00 )

 nodal point  x-rot      y-rot       z-rot       x-rot vel   y-rot vel   z-rot vel   x-rot acc   y-rot acc   z-rot acc
    22626 -1.32495E-02-1.03930E-04-2.53616E-04-6.89635E-03 3.69077E-05-2.35219E-06-1.74672E-03 1.16127E-04 1.09730E-04



 n o d a l   p r i n t   o u t   f o r   t i m e  s t e p   19202                              ( at time 9.5995393E+00 )

 nodal point  x-disp     y-disp      z-disp      x-vel       y-vel       z-vel      x-accl      y-accl      z-accl      x-coor      y-coor      z-coor
    22626 -1.10729E-02 2.13041E+00-5.66685E-01 2.85085E-04 1.00786E+00 8.05185E-02 1.31883E-02 2.79770E-01 1.23683E-01 4.64830E+00-2.60604E+01-4.55484E+01



 n o d a l   p r i n t   o u t   f o r   t i m e  s t e p   19202                              ( at time 9.5995393E+00 )

 nodal point  x-rot      y-rot       z-rot       x-rot vel   y-rot vel   z-rot vel   x-rot acc   y-rot acc   z-rot acc
    22626 -1.39494E-02-9.94578E-05-2.53428E-04-7.10321E-03 5.31271E-05 1.32695E-05-2.06887E-03 1.62209E-04 1.56232E-04



 n o d a l   p r i n t   o u t   f o r   t i m e  s t e p   19402                              ( at time 9.6995293E+00 )

 nodal point  x-disp     y-disp      z-disp      x-vel       y-vel       z-vel      x-accl      y-accl      z-accl      x-coor      y-coor      z-coor
    22626 -1.11476E-02 2.23245E+00-5.57908E-01-1.06827E-03 1.03297E+00 9.41433E-02-1.35349E-02 2.51134E-01 1.36262E-01 4.64823E+00-2.59584E+01-4.55396E+01



 n o d a l   p r i n t   o u t   f o r   t i m e  s t e p   19402                              ( at time 9.6995293E+00 )

 nodal point  x-rot      y-rot       z-rot       x-rot vel   y-rot vel   z-rot vel   x-rot acc   y-rot acc   z-rot acc
    22626 -1.46693E-02-9.49044E-05-2.52897E-04-7.28897E-03 3.59447E-05-2.69795E-06-1.85771E-03-1.71841E-04-1.59691E-04



 n o d a l   p r i n t   o u t   f o r   t i m e  s t e p   19602                              ( at time 9.7995193E+00 )

 nodal point  x-disp     y-disp      z-disp      x-vel       y-vel       z-vel      x-accl      y-accl      z-accl      x-coor      y-coor      z-coor
    22626 -1.12198E-02 2.33708E+00-5.47865E-01-1.27143E-04 1.05895E+00 1.06532E-01 9.41218E-03 2.59850E-01 1.23895E-01 4.64816E+00-2.58537E+01-4.55296E+01



 n o d a l   p r i n t   o u t   f o r   t i m e  s t e p   19602                              ( at time 9.7995193E+00 )

 nodal point  x-rot      y-rot       z-rot       x-rot vel   y-rot vel   z-rot vel   x-rot acc   y-rot acc   z-rot acc
    22626 -1.54059E-02-9.15229E-05-2.52766E-04-7.45918E-03 4.94157E-05 1.57624E-05-1.70229E-03 1.34724E-04 1.84622E-04



 n o d a l   p r i n t   o u t   f o r   t i m e  s t e p   19802                              ( at time 9.8995093E+00 )

 nodal point  x-disp     y-disp      z-disp      x-vel       y-vel       z-vel      x-accl      y-accl      z-accl      x-coor      y-coor      z-coor
    22626 -1.12115E-02 2.44427E+00-5.36391E-01 1.28036E-04 1.08452E+00 1.22465E-01 2.55206E-03 2.55704E-01 1.59351E-01 4.64816E+00-2.57466E+01-4.55181E+01



 n o d a l   p r i n t   o u t   f o r   t i m e  s t e p   19802                              ( at time 9.8995093E+00 )

 nodal point  x-rot      y-rot       z-rot       x-rot vel   y-rot vel   z-rot vel   x-rot acc   y-rot acc   z-rot acc
    22626 -1.61598E-02-8.54267E-05-2.50401E-04-7.63958E-03 6.64013E-05 2.29216E-05-1.80420E-03 1.69873E-04 7.15995E-05



 n o d a l   p r i n t   o u t   f o r   t i m e  s t e p   20003                              ( at time 9.9999992E+00 )

 nodal point  x-disp     y-disp      z-disp      x-vel       y-vel       z-vel      x-accl      y-accl      z-accl      x-coor      y-coor      z-coor
[...]
    22626 -3.60407E-02 2.58207E-04 1.91507E-05-9.89852E-03 2.68602E-04 2.52404E-04-8.29799E-05-1.66972E-04-1.50589E-04



 n o d a l   p r i n t   o u t   f o r   t i m e  s t e p   24403                              ( at time 1.2199779E+01 )

 nodal point  x-disp     y-disp      z-disp      x-vel       y-vel       z-vel      x-accl      y-accl      z-accl      x-coor      y-coor      z-coor
    22626 -5.73924E-03 5.38991E+00 3.91704E-01 7.05458E-03 1.38608E+00 7.68421E-01 1.81556E-02 2.73074E-02 3.53964E-01 4.65364E+00-2.28009E+01-4.45900E+01



 n o d a l   p r i n t   o u t   f o r   t i m e  s t e p   24403                              ( at time 1.2199779E+01 )

 nodal point  x-rot      y-rot       z-rot       x-rot vel   y-rot vel   z-rot vel   x-rot acc   y-rot acc   z-rot acc
    22626 -3.70320E-02 2.85839E-04 4.52444E-05-9.90440E-03 2.89183E-04 2.80545E-04-5.87998E-05 2.05837E-04 2.81435E-04



 n o d a l   p r i n t   o u t   f o r   t i m e  s t e p   24603                              ( at time 1.2299769E+01 )

 nodal point  x-disp     y-disp      z-disp      x-vel       y-vel       z-vel      x-accl      y-accl      z-accl      x-coor      y-coor      z-coor
    22626 -5.03927E-03 5.52869E+00 4.70340E-01 7.06242E-03 1.38885E+00 8.03615E-01 7.83741E-05 2.77035E-02 3.51969E-01 4.65434E+00-2.26621E+01-4.45114E+01



 n o d a l   p r i n t   o u t   f o r   t i m e  s t e p   24603                              ( at time 1.2299769E+01 )

 nodal point  x-rot      y-rot       z-rot       x-rot vel   y-rot vel   z-rot vel   x-rot acc   y-rot acc   z-rot acc
    22626 -3.80235E-02 3.14636E-04 7.19488E-05-9.92241E-03 2.83116E-04 2.57474E-04-1.80183E-04-6.06783E-05-2.30732E-04



 n o d a l   p r i n t   o u t   f o r   t i m e  s t e p   24803                              ( at time 1.2399759E+01 )

 nodal point  x-disp     y-disp      z-disp      x-vel       y-vel       z-vel      x-accl      y-accl      z-accl      x-coor      y-coor      z-coor
    22626 -4.38900E-03 5.66768E+00 5.52461E-01 6.52160E-03 1.39100E+00 8.38403E-01-5.40874E-03 2.14503E-02 3.47920E-01 4.65499E+00-2.25232E+01-4.44293E+01



 n o d a l   p r i n t   o u t   f o r   t i m e  s t e p   24803                              ( at time 1.2399759E+01 )

 nodal point  x-rot      y-rot       z-rot       x-rot vel   y-rot vel   z-rot vel   x-rot acc   y-rot acc   z-rot acc
    22626 -3.90155E-02 3.42287E-04 9.74149E-05-9.92574E-03 2.81440E-04 2.64394E-04-3.32516E-05-1.67608E-05 6.92057E-05



 n o d a l   p r i n t   o u t   f o r   t i m e  s t e p   25003                              ( at time 1.2499749E+01 )

 nodal point  x-disp     y-disp      z-disp      x-vel       y-vel       z-vel      x-accl      y-accl      z-accl      x-coor      y-coor      z-coor
    22626 -3.70778E-03 5.80686E+00 6.38169E-01 6.71848E-03 1.39233E+00 8.75794E-01 1.96901E-03 1.33611E-02 3.73942E-01 4.65567E+00-2.23840E+01-4.43436E+01



 n o d a l   p r i n t   o u t   f o r   t i m e  s t e p   25003                              ( at time 1.2499749E+01 )

 nodal point  x-rot      y-rot       z-rot       x-rot vel   y-rot vel   z-rot vel   x-rot acc   y-rot acc   z-rot acc
    22626 -4.00073E-02 3.70133E-04 1.23390E-04-9.91773E-03 2.74632E-04 2.54621E-04 8.00925E-05-6.80874E-05-9.77338E-05



 n o d a l   p r i n t   o u t   f o r   t i m e  s t e p   25203                              ( at time 1.2599739E+01 )

 nodal point  x-disp     y-disp      z-disp      x-vel       y-vel       z-vel      x-accl      y-accl      z-accl      x-coor      y-coor      z-coor
    22626 -3.07300E-03 5.94613E+00 7.27597E-01 6.43848E-03 1.39321E+00 9.11955E-01-2.80024E-03 8.79734E-03 3.61648E-01 4.65630E+00-2.22447E+01-4.42541E+01



 n o d a l   p r i n t   o u t   f o r   t i m e  s t e p   25203                              ( at time 1.2599739E+01 )

 nodal point  x-rot      y-rot       z-rot       x-rot vel   y-rot vel   z-rot vel   x-rot acc   y-rot acc   z-rot acc
    22626 -4.09992E-02 3.97477E-04 1.48158E-04-9.93590E-03 2.82491E-04 2.41546E-04-1.81729E-04 7.85953E-05-1.30762E-04



 n o d a l   p r i n t   o u t   f o r   t i m e  s t e p   25403                              ( at time 1.2699729E+01 )

 nodal point  x-disp     y-disp      z-disp      x-vel       y-vel       z-vel      x-accl      y-accl      z-accl      x-coor      y-coor      z-coor
    22626 -2.44649E-03 6.08548E+00 8.20664E-01 5.95645E-03 1.39389E+00 9.49078E-01-4.82083E-03 6.76581E-03 3.71273E-01 4.65693E+00-2.21054E+01-4.41611E+01



 n o d a l   p r i n t   o u t   f o r   t i m e  s t e p   25403                              ( at time 1.2699729E+01 )

 nodal point  x-rot      y-rot       z-rot       x-rot vel   y-rot vel   z-rot vel   x-rot acc   y-rot acc   z-rot acc
    22626 -4.19917E-02 4.24882E-04 1.73104E-04-9.93833E-03 2.63097E-04 2.43264E-04-2.43100E-05-1.93963E-04 1.71819E-05



 n o d a l   p r i n t   o u t   f o r   t i m e  s t e p   25603                              ( at time 1.2799719E+01 )

 nodal point  x-disp     y-disp      z-disp      x-vel       y-vel       z-vel      x-accl      y-accl      z-accl      x-coor      y-coor      z-coor
    22626 -1.84016E-03 6.22480E+00 9.17435E-01 5.21858E-03 1.39337E+00 9.86442E-01-7.37945E-03-5.14798E-03 3.73675E-01 4.65754E+00-2.19660E+01-4.40643E+01



 n o d a l   p r i n t   o u t   f o r   t i m e  s t e p   25603                              ( at time 1.2799719E+01 )

 nodal point  x-rot      y-rot       z-rot       x-rot vel   y-rot vel   z-rot vel   x-rot acc   y-rot acc   z-rot acc
    22626 -4.29843E-02 4.51202E-04 1.96696E-04-9.94235E-03 2.57094E-04 2.24248E-04-4.01906E-05-6.00339E-05-1.90188E-04



 n o d a l   p r i n t   o u t   f o r   t i m e  s t e p   25803                              ( at time 1.2899709E+01 )

 nodal point  x-disp     y-disp      z-disp      x-vel       y-vel       z-vel      x-accl      y-accl      z-accl      x-coor      y-coor      z-coor
    22626 -1.28065E-03 6.36405E+00 1.01800E+00 6.33543E-03 1.39222E+00 1.02525E+00 1.11696E-02-1.15466E-02 3.88130E-01 4.65809E+00-2.18268E+01-4.39637E+01



 n o d a l   p r i n t   o u t   f o r   t i m e  s t e p   25803                              ( at time 1.2899709E+01 )

 nodal point  x-rot      y-rot       z-rot       x-rot vel   y-rot vel   z-rot vel   x-rot acc   y-rot acc   z-rot acc
    22626 -4.39788E-02 4.77462E-04 2.20403E-04-9.95706E-03 2.57454E-04 2.24402E-04-1.47108E-04 3.59760E-06 1.54179E-06



 n o d a l   p r i n t   o u t   f o r   t i m e  s t e p   26003                              ( at time 1.2999699E+01 )

 nodal point  x-disp     y-disp      z-disp      x-vel       y-vel       z-vel      x-accl      y-accl      z-accl      x-coor      y-coor      z-coor
    22626 -7.10492E-04 6.50319E+00 1.12238E+00 5.32644E-03 1.39063E+00 1.06237E+00-1.00909E-02-1.58946E-02 3.71230E-01 4.65866E+00-2.16876E+01-4.38593E+01



 n o d a l   p r i n t   o u t   f o r   t i m e  s t e p   26003                              ( at time 1.2999699E+01 )

 nodal point  x-rot      y-rot       z-rot       x-rot vel   y-rot vel   z-rot vel   x-rot acc   y-rot acc   z-rot acc
    22626 -4.49749E-02 5.02819E-04 2.43229E-04-9.96094E-03 2.42230E-04 2.24974E-04-3.88215E-05-1.52252E-04 5.71919E-06



 n o d a l   p r i n t   o u t   f o r   t i m e  s t e p   26203                              ( at time 1.3099689E+01 )

 nodal point  x-disp     y-disp      z-disp      x-vel       y-vel       z-vel      x-accl      y-accl      z-accl      x-coor      y-coor      z-coor
    22626 -1.47307E-04 6.64223E+00 1.23047E+00 5.48250E-03 1.39006E+00 1.09947E+00 1.56077E-03-5.71905E-03 3.71038E-01 4.65923E+00-2.15486E+01-4.37513E+01



 n o d a l   p r i n t   o u t   f o r   t i m e  s t e p   26203                              ( at time 1.3099689E+01 )

 nodal point  x-rot      y-rot       z-rot       x-rot vel   y-rot vel   z-rot vel   x-rot acc   y-rot acc   z-rot acc
    22626 -4.59715E-02 5.27509E-04 2.65129E-04-9.98978E-03 2.57363E-04 2.25538E-04-2.88404E-04 1.51345E-04 5.64104E-06



 n o d a l   p r i n t   o u t   f o r   t i m e  s t e p   26403                              ( at time 1.3199679E+01 )

 nodal point  x-disp     y-disp      z-disp      x-vel       y-vel       z-vel      x-accl      y-accl      z-accl      x-coor      y-coor      z-coor
    22626  3.68390E-04 6.78118E+00 1.34245E+00 5.48212E-03 1.38785E+00 1.13872E+00-3.81877E-06-2.21237E-02 3.92540E-01 4.65974E+00-2.14097E+01-4.36393E+01



 n o d a l   p r i n t   o u t   f o r   t i m e  s t e p   26403                              ( at time 1.3199679E+01 )

 nodal point  x-rot      y-rot       z-rot       x-rot vel   y-rot vel   z-rot vel   x-rot acc   y-rot acc   z-rot acc
    22626 -4.69713E-02 5.51410E-04 2.85910E-04-1.00259E-02 2.34221E-04 1.99997E-04-3.60846E-04-2.31436E-04-2.55429E-04



 n o d a l   p r i n t   o u t   f o r   t i m e  s t e p   26603                              ( at time 1.3299669E+01 )

 nodal point  x-disp     y-disp      z-disp      x-vel       y-vel       z-vel      x-accl      y-accl      z-accl      x-coor      y-coor      z-coor
    22626  8.88172E-04 6.91990E+00 1.45821E+00 5.02369E-03 1.38695E+00 1.17572E+00-4.58475E-03-9.00360E-03 3.70020E-01 4.66026E+00-2.12709E+01-4.35235E+01



 n o d a l   p r i n t   o u t   f o r   t i m e  s t e p   26603                              ( at time 1.3299669E+01 )

 nodal point  x-rot      y-rot       z-rot       x-rot vel   y-rot vel   z-rot vel   x-rot acc   y-rot acc   z-rot acc
    22626 -4.79734E-02 5.73682E-04 3.05204E-04-1.00350E-02 2.30171E-04 1.95084E-04-9.12882E-05-4.05111E-05-4.91370E-05



 n o d a l   p r i n t   o u t   f o r   t i m e  s t e p   26803                              ( at time 1.3399659E+01 )

 nodal point  x-disp     y-disp      z-disp      x-vel       y-vel       z-vel      x-accl      y-accl      z-accl      x-coor      y-coor      z-coor
    22626  1.37306E-03 7.05845E+00 1.57772E+00 3.76415E-03 1.38466E+00 1.21455E+00-1.25966E-02-2.28977E-02 3.88334E-01 4.66075E+00-2.11324E+01-4.34040E+01



 n o d a l   p r i n t   o u t   f o r   t i m e  s t e p   26803                              ( at time 1.3399659E+01 )

 nodal point  x-rot      y-rot       z-rot       x-rot vel   y-rot vel   z-rot vel   x-rot acc   y-rot acc   z-rot acc
    22626 -4.89777E-02 5.95594E-04 3.22931E-04-1.00644E-02 2.06297E-04 1.68267E-04-2.94356E-04-2.38765E-04-2.68195E-04



 n o d a l   p r i n t   o u t   f o r   t i m e  s t e p   27003                              ( at time 1.3499649E+01 )

 nodal point  x-disp     y-disp      z-disp      x-vel       y-vel       z-vel      x-accl      y-accl      z-accl      x-coor      y-coor      z-coor
    22626  1.75490E-03 7.19675E+00 1.70114E+00 4.51990E-03 1.38193E+00 1.25363E+00 7.55821E-03-2.72325E-02 3.90871E-01 4.66113E+00-2.09941E+01-4.32806E+01



 n o d a l   p r i n t   o u t   f o r   t i m e  s t e p   27003                              ( at time 1.3499649E+01 )

 nodal point  x-rot      y-rot       z-rot       x-rot vel   y-rot vel   z-rot vel   x-rot acc   y-rot acc   z-rot acc
    22626 -4.99862E-02 6.14791E-04 3.38256E-04-1.00915E-02 1.87119E-04 1.48131E-04-2.71173E-04-1.91795E-04-2.01380E-04



 n o d a l   p r i n t   o u t   f o r   t i m e  s t e p   27203                              ( at time 1.3599639E+01 )

 nodal point  x-disp     y-disp      z-disp      x-vel       y-vel       z-vel      x-accl      y-accl      z-accl      x-coor      y-coor      z-coor
    22626  2.13898E-03 7.33481E+00 1.82828E+00 2.94360E-03 1.38014E+00 1.29015E+00-1.57646E-02-1.79118E-02 3.65225E-01 4.66151E+00-2.08560E+01-4.31534E+01



 n o d a l   p r i n t   o u t   f o r   t i m e  s t e p   27203                              ( at time 1.3599639E+01 )

 nodal point  x-rot      y-rot       z-rot       x-rot vel   y-rot vel   z-rot vel   x-rot acc   y-rot acc   z-rot acc
    22626 -5.09966E-02 6.33276E-04 3.52061E-04-1.01038E-02 1.80047E-04 1.17430E-04-1.23115E-04-7.07312E-05-3.07046E-04



 n o d a l   p r i n t   o u t   f o r   t i m e  s t e p   27403                              ( at time 1.3699629E+01 )

 nodal point  x-disp     y-disp      z-disp      x-vel       y-vel       z-vel      x-accl      y-accl      z-accl      x-coor      y-coor      z-coor
    22626  2.33776E-03 7.47261E+00 1.95908E+00 1.49916E-03 1.37735E+00 1.32699E+00-1.44459E-02-2.78811E-02 3.68446E-01 4.66171E+00-2.07182E+01-4.30226E+01



 n o d a l   p r i n t   o u t   f o r   t i m e  s t e p   27403                              ( at time 1.3699629E+01 )

 nodal point  x-rot      y-rot       z-rot       x-rot vel   y-rot vel   z-rot vel   x-rot acc   y-rot acc   z-rot acc
    22626 -5.20100E-02 6.49675E-04 3.61111E-04-1.01631E-02 1.36464E-04 7.54750E-05-5.92362E-04-4.35867E-04-4.19589E-04



 n o d a l   p r i n t   o u t   f o r   t i m e  s t e p   27603                              ( at time 1.3799619E+01 )

 nodal point  x-disp     y-disp      z-disp      x-vel       y-vel       z-vel      x-accl      y-accl      z-accl      x-coor      y-coor      z-coor
    22626  2.49649E-03 7.61016E+00 2.09367E+00 1.07841E-03 1.37497E+00 1.36465E+00-4.20788E-03-2.38049E-02 3.76666E-01 4.66187E+00-2.05807E+01-4.28881E+01



 n o d a l   p r i n t   o u t   f o r   t i m e  s t e p   27603                              ( at time 1.3799619E+01 )

 nodal point  x-rot      y-rot       z-rot       x-rot vel   y-rot vel   z-rot vel   x-rot acc   y-rot acc   z-rot acc
    22626 -5.30280E-02 6.62860E-04 3.69241E-04-1.02126E-02 1.23602E-04 7.12101E-05-4.94862E-04-1.28632E-04-4.26533E-05



 n o d a l   p r i n t   o u t   f o r   t i m e  s t e p   27803                              ( at time 1.3899609E+01 )

 nodal point  x-disp     y-disp      z-disp      x-vel       y-vel       z-vel      x-accl      y-accl      z-accl      x-coor      y-coor      z-coor
    22626  2.54452E-03 7.74751E+00 2.23188E+00 3.00756E-04 1.37261E+00 1.39881E+00-7.77736E-03-2.36666E-02 3.41563E-01 4.66192E+00-2.04433E+01-4.27498E+01



 n o d a l   p r i n t   o u t   f o r   t i m e  s t e p   27803                              ( at time 1.3899609E+01 )

 nodal point  x-rot      y-rot       z-rot       x-rot vel   y-rot vel   z-rot vel   x-rot acc   y-rot acc   z-rot acc
    22626 -5.40493E-02 6.75370E-04 3.73830E-04-1.02313E-02 1.12760E-04 1.59463E-05-1.87587E-04-1.08430E-04-5.52694E-04



 n o d a l   p r i n t   o u t   f o r   t i m e  s t e p   28003                              ( at time 1.3999599E+01 )

 nodal point  x-disp     y-disp      z-disp      x-vel       y-vel       z-vel      x-accl      y-accl      z-accl      x-coor      y-coor      z-coor
    22626  2.51065E-03 7.88474E+00 2.37345E+00-1.81505E-03 1.37083E+00 1.43339E+00-2.11602E-02-1.77532E-02 3.45840E-01 4.66189E+00-2.03061E+01-4.26083E+01



 n o d a l   p r i n t   o u t   f o r   t i m e  s t e p   28003                              ( at time 1.3999599E+01 )

 nodal point  x-rot      y-rot       z-rot       x-rot vel   y-rot vel   z-rot vel   x-rot acc   y-rot acc   z-rot acc
    22626 -5.50734E-02 6.84754E-04 3.73384E-04-1.02485E-02 7.16127E-05-1.70999E-05-1.72284E-04-4.11518E-04-3.30495E-04



 n o d a l   p r i n t   o u t   f o r   t i m e  s t e p   28203                              ( at time 1.4099589E+01 )

 nodal point  x-disp     y-disp      z-disp      x-vel       y-vel       z-vel      x-accl      y-accl      z-accl      x-coor      y-coor      z-coor
    22626  2.23845E-03 8.02175E+00 2.51854E+00-2.86694E-03 1.36957E+00 1.46847E+00-1.05199E-02-1.26290E-02 3.50833E-01 4.66161E+00-2.01691E+01-4.24632E+01



 n o d a l   p r i n t   o u t   f o r   t i m e  s t e p   28203                              ( at time 1.4099589E+01 )

 nodal point  x-rot      y-rot       z-rot       x-rot vel   y-rot vel   z-rot vel   x-rot acc   y-rot acc   z-rot acc
    22626 -5.61007E-02 6.90062E-04 3.69799E-04-1.02906E-02 5.40705E-05-5.74005E-05-4.20745E-04-1.75438E-04-4.03043E-04



 n o d a l   p r i n t   o u t   f o r   t i m e  s t e p   28403                              ( at time 1.4199579E+01 )

 nodal point  x-disp     y-disp      z-disp      x-vel       y-vel       z-vel      x-accl      y-accl      z-accl      x-coor      y-coor      z-coor
    22626  1.92384E-03 8.15868E+00 2.66697E+00-3.63847E-03 1.37019E+00 1.50023E+00-7.71609E-03 6.18759E-03 3.17645E-01 4.66130E+00-2.00322E+01-4.23147E+01



 n o d a l   p r i n t   o u t   f o r   t i m e  s t e p   28403                              ( at time 1.4199579E+01 )

 nodal point  x-rot      y-rot       z-rot       x-rot vel   y-rot vel   z-rot vel   x-rot acc   y-rot acc   z-rot acc
    22626 -5.71342E-02 6.94615E-04 3.62302E-04-1.03596E-02 3.22845E-05-1.02330E-04-6.89854E-04-2.17882E-04-4.49340E-04



 n o d a l   p r i n t   o u t   f o r   t i m e  s t e p   28603                              ( at time 1.4299569E+01 )

 nodal point  x-disp     y-disp      z-disp      x-vel       y-vel       z-vel      x-accl      y-accl      z-accl      x-coor      y-coor      z-coor
    22626  1.43802E-03 8.29571E+00 2.81846E+00-6.76100E-03 1.37037E+00 1.53050E+00-3.12285E-02 1.84316E-03 3.02732E-01 4.66081E+00-1.98951E+01-4.21633E+01



 n o d a l   p r i n t   o u t   f o r   t i m e  s t e p   28603                              ( at time 1.4299569E+01 )

 nodal point  x-rot      y-rot       z-rot       x-rot vel   y-rot vel   z-rot vel   x-rot acc   y-rot acc   z-rot acc
    22626 -5.81717E-02 6.94930E-04 3.50369E-04-1.03746E-02-3.78755E-05-1.41518E-04-1.49977E-04-7.01671E-04-3.91921E-04



 n o d a l   p r i n t   o u t   f o r   t i m e  s t e p   28803                              ( at time 1.4399559E+01 )

 nodal point  x-disp     y-disp      z-disp      x-vel       y-vel       z-vel      x-accl      y-accl      z-accl      x-coor      y-coor      z-coor
    22626  6.77050E-04 8.43264E+00 2.97303E+00-8.15208E-03 1.36925E+00 1.56056E+00-1.39122E-02-1.12438E-02 3.00682E-01 4.66005E+00-1.97582E+01-4.20087E+01



 n o d a l   p r i n t   o u t   f o r   t i m e  s t e p   28803                              ( at time 1.4399559E+01 )

 nodal point  x-rot      y-rot       z-rot       x-rot vel   y-rot vel   z-rot vel   x-rot acc   y-rot acc   z-rot acc
    22626 -5.92102E-02 6.91378E-04 3.32981E-04-1.03973E-02-3.69548E-05-1.99906E-04-2.27480E-04 9.20804E-06-5.83935E-04



 n o d a l   p r i n t   o u t   f o r   t i m e  s t e p   29003                              ( at time 1.4499549E+01 )

 nodal point  x-disp     y-disp      z-disp      x-vel       y-vel       z-vel      x-accl      y-accl      z-accl      x-coor      y-coor      z-coor
    22626 -2.04249E-04 8.56963E+00 3.13046E+00-8.46995E-03 1.37087E+00 1.58873E+00-3.17896E-03 1.62546E-02 2.81716E-01 4.65917E+00-1.96212E+01-4.18513E+01



 n o d a l   p r i n t   o u t   f o r   t i m e  s t e p   29003                              ( at time 1.4499549E+01 )

 nodal point  x-rot      y-rot       z-rot       x-rot vel   y-rot vel   z-rot vel   x-rot acc   y-rot acc   z-rot acc
    22626 -6.02541E-02 6.87277E-04 3.11842E-04-1.04724E-02-5.18749E-05-2.20739E-04-7.50936E-04-1.49216E-04-2.08356E-04



 n o d a l   p r i n t   o u t   f o r   t i m e  s t e p   29203                              ( at time 1.4599539E+01 )

 nodal point  x-disp     y-disp      z-disp      x-vel       y-vel       z-vel      x-accl      y-accl      z-accl      x-coor      y-coor      z-coor
    22626 -1.20958E-03 8.70675E+00 3.29075E+00-1.20672E-02 1.37287E+00 1.61706E+00-3.59758E-02 1.99290E-02 2.83251E-01 4.65817E+00-1.94841E+01-4.16910E+01



 n o d a l   p r i n t   o u t   f o r   t i m e  s t e p   29203                              ( at time 1.4599539E+01 )

 nodal point  x-rot      y-rot       z-rot       x-rot vel   y-rot vel   z-rot vel   x-rot acc   y-rot acc   z-rot acc
    22626 -6.13047E-02 6.78875E-04 2.88442E-04-1.05293E-02-1.11384E-04-2.76839E-04-5.69077E-04-5.95154E-04-5.61058E-04
