 LSTC 50th% Full_FE H-III Dummy (Beta Version, February 17, 2019)        
                    ls-dyna smp s R16 R16.0_619_d222963 date 03/18/2025

{BEGIN LEGEND}
 Entity #        Title
        1     Upper_Neck_Force_INJURY                                              
{END LEGEND}



 line#1  section#     time        x-force     y-force     z-force    magnitude
 line#2  resultant  moments       x-moment    y-moment    z-moment   magnitude
 line#3  centroids                x           y           z            area  
           1    0.00000E+00     0.0000E+00  0.0000E+00  0.0000E+00  0.0000E+00
ac ID =   33377                 0.0000E+00  0.0000E+00  0.0000E+00  0.0000E+00
                               -3.7437E-01  1.0501E+01 -4.6940E+01  0.0000E+00

           1    1.00490E-01     1.3638E-04 -4.9877E-03  2.5982E-01  2.5987E-01
ac ID =   33377                 4.2550E-01 -1.2521E+00 -2.7103E-02  1.3227E+00
                               -3.7387E-01  1.0590E+01 -4.6886E+01  2.5147E+03

           1    2.00480E-01    -4.4320E-02  6.4131E-04  4.4130E-01  4.4352E-01
ac ID =   33377                 3.0704E-01 -1.5970E+00  2.0197E-02  1.6264E+00
                               -3.7386E-01  1.0591E+01 -4.6888E+01  2.5147E+03

           1    3.00470E-01     1.4795E-02 -3.1570E-03  2.1756E-01  2.1808E-01
ac ID =   33377                 2.7055E-02 -3.3599E-01  6.5301E-02  3.4334E-01
                               -3.7382E-01  1.0591E+01 -4.6889E+01  2.5147E+03

           1    4.00460E-01     3.1839E-03  1.0642E-02  8.8121E-02  8.8818E-02
ac ID =   33377                -4.9361E-01 -9.4325E-01 -1.5314E-03  1.0646E+00
                               -3.7384E-01  1.0592E+01 -4.6890E+01  2.5147E+03

           1    5.00450E-01    -4.0681E-02  4.3805E-03  1.6170E-01  1.6679E-01
ac ID =   33377                -3.9547E-01 -1.5041E+00 -1.0622E-01  1.5588E+00
                               -3.7385E-01  1.0594E+01 -4.6893E+01  2.5147E+03

           1    6.00440E-01    -1.0806E-02  3.9908E-03  3.4354E-01  3.4373E-01
ac ID =   33377                 9.2915E-02 -1.3270E+00 -4.2028E-02  1.3309E+00
                               -3.7385E-01  1.0595E+01 -4.6897E+01  2.5147E+03

           1    7.00430E-01     2.5769E-03 -5.4138E-03  2.9453E-01  2.9459E-01
ac ID =   33377                 1.3565E-01 -4.9709E-01  8.0684E-02  5.2155E-01
                               -3.7389E-01  1.0597E+01 -4.6901E+01  2.5147E+03

           1    8.00420E-01    -3.0752E-02 -1.0546E-03  1.0058E-01  1.0518E-01
ac ID =   33377                 8.6974E-02 -1.0559E+00  4.5819E-02  1.0605E+00
                               -3.7394E-01  1.0599E+01 -4.6905E+01  2.5147E+03

           1    9.00410E-01    -3.9239E-02  8.1496E-04  6.2588E-02  7.3876E-02
ac ID =   33377                 9.3353E-02 -1.0752E+00 -1.2328E-03  1.0793E+00
                               -3.7399E-01  1.0601E+01 -4.6909E+01  2.5147E+03

           1    1.00040E+00     1.5002E-02 -3.6885E-03  2.2061E-01  2.2115E-01
ac ID =   33377                 3.6814E-01 -2.8919E-01 -6.0887E-02  4.7209E-01
                               -3.7400E-01  1.0604E+01 -4.6915E+01  2.5147E+03

           1    1.10039E+00     4.2726E-04 -3.0156E-03  2.7132E-01  2.7134E-01
ac ID =   33377                 3.4439E-01 -8.8075E-01 -5.9227E-02  9.4754E-01
                               -3.7401E-01  1.0607E+01 -4.6921E+01  2.5147E+03

           1    1.20038E+00    -3.2485E-02 -1.9459E-04  1.2878E-01  1.3282E-01
ac ID =   33377                -1.5093E-01 -1.1797E+00  9.5699E-03  1.1894E+00
                               -3.7403E-01  1.0610E+01 -4.6927E+01  2.5147E+03

           1    1.30037E+00    -9.9822E-03  4.8252E-03  7.5010E-02  7.5825E-02
ac ID =   33377                -3.0012E-01 -8.8468E-01  1.2467E-02  9.3428E-01
                               -3.7407E-01  1.0612E+01 -4.6933E+01  2.5147E+03

           1    1.40036E+00     7.8739E-03  3.6792E-03  1.7393E-01  1.7415E-01
ac ID =   33377                -2.8766E-01 -8.3747E-01  3.0576E-02  8.8603E-01
                               -3.7409E-01  1.0616E+01 -4.6941E+01  2.5147E+03

           1    1.50035E+00    -2.6999E-02  1.1681E-03  3.2807E-01  3.2918E-01
ac ID =   33377                -2.3305E-02 -1.5835E+00 -4.5416E-02  1.5843E+00
                               -3.7413E-01  1.0620E+01 -4.6949E+01  2.5147E+03

           1    1.60034E+00    -1.9228E-02 -2.1767E-03  2.2178E-01  2.2262E-01
ac ID =   33377                -1.9050E-02 -1.3711E+00 -1.3861E-02  1.3713E+00
                               -3.7420E-01  1.0624E+01 -4.6957E+01  2.5147E+03

           1    1.70033E+00    -2.9297E-03  9.2191E-05  5.7843E-02  5.7917E-02
ac ID =   33377                -4.7074E-02 -6.7125E-01  8.0104E-02  6.7765E-01
                               -3.7427E-01  1.0627E+01 -4.6965E+01  2.5147E+03

           1    1.80032E+00    -2.0027E-02  9.5972E-04  7.7949E-02  8.0487E-02
ac ID =   33377                 8.4310E-02 -1.1163E+00  1.2602E-01  1.1265E+00
                               -3.7434E-01  1.0632E+01 -4.6974E+01  2.5147E+03

           1    1.90031E+00    -7.8972E-03 -2.7114E-03  1.9138E-01  1.9157E-01
ac ID =   33377                 2.6968E-01 -8.1945E-01 -7.4069E-02  8.6586E-01
                               -3.7439E-01  1.0636E+01 -4.6984E+01  2.5147E+03

           1    2.00030E+00    -2.2351E-03 -4.4482E-03  1.5644E-01  1.5652E-01
ac ID =   33377                 2.0649E-01 -4.4738E-01 -1.4508E-01  5.1365E-01
                               -3.7444E-01  1.0641E+01 -4.6993E+01  2.5147E+03

           1    2.10029E+00    -2.5467E-02  2.6351E-03  2.7659E-03  2.5752E-02
ac ID =   33377                -7.3141E-02 -6.9092E-01  4.3770E-02  6.9616E-01
                               -3.7450E-01  1.0645E+01 -4.7003E+01  2.5147E+03

           1    2.20028E+00    -1.2743E-02  5.2438E-03  3.3063E-03  1.4171E-02
ac ID =   33377                -2.3701E-01 -6.6671E-01  2.0859E-02  7.0789E-01
                               -3.7456E-01  1.0650E+01 -4.7013E+01  2.5147E+03

           1    2.30027E+00     1.4410E-03  4.8159E-03  1.4898E-01  1.4907E-01
ac ID =   33377                -1.4587E-01 -8.1467E-01 -6.3275E-02  8.3004E-01
                               -3.7462E-01  1.0655E+01 -4.7024E+01  2.5147E+03

           1    2.40026E+00    -1.7578E-02 -1.5180E-03  1.8859E-01  1.8942E-01
ac ID =   33377                -1.5073E-01 -1.1843E+00  7.5513E-02  1.1963E+00
                               -3.7469E-01  1.0661E+01 -4.7035E+01  2.5147E+03

           1    2.50025E+00    -1.8653E-02  1.1764E-03  6.0654E-04  1.8700E-02
ac ID =   33377                -1.9840E-01 -8.8933E-01  1.3294E-01  9.2084E-01
                               -3.7479E-01  1.0665E+01 -4.7045E+01  2.5147E+03

           1    2.60024E+00    -6.9392E-03  5.8277E-03 -7.7229E-02  7.7759E-02
ac ID =   33377                -2.1056E-01 -1.8321E-01  3.5039E-02  2.8130E-01
                               -3.7490E-01  1.0671E+01 -4.7056E+01  2.5147E+03

           1    2.70023E+00    -1.1763E-02 -1.9025E-03  1.0340E-02  1.5776E-02
ac ID =   33377                 3.8654E-02 -2.1787E-01  3.4420E-02  2.2393E-01
                               -3.7501E-01  1.0676E+01 -4.7068E+01  2.5147E+03

           1    2.80022E+00    -5.5467E-03 -4.6148E-03  6.3370E-02  6.3779E-02
ac ID =   33377                 3.6762E-01 -1.3789E-01 -1.7565E-02  3.9302E-01
                               -3.7510E-01  1.0682E+01 -4.7079E+01  2.5147E+03

           1    2.90021E+00     5.0001E-03 -2.4009E-03 -1.0177E-02  1.1590E-02
ac ID =   33377                 1.4802E-01  3.1357E-01 -8.2384E-02  3.5640E-01
                               -3.7520E-01  1.0687E+01 -4.7090E+01  2.5147E+03

           1    3.00020E+00    -7.2567E-03  2.0213E-03 -8.8410E-02  8.8730E-02
ac ID =   33377                -3.4332E-02  7.5161E-02 -5.2829E-02  9.8076E-02
                               -3.7530E-01  1.0692E+01 -4.7101E+01  2.5147E+03

           1    3.10019E+00    -2.6785E-03  4.8057E-04 -9.5361E-03  9.9168E-03
ac ID =   33377                 3.8559E-02 -2.5145E-01 -2.7609E-02  2.5588E-01
                               -3.7538E-01  1.0698E+01 -4.7113E+01  2.5147E+03

           1    3.20018E+00     3.5835E-03  1.7791E-03  7.0103E-02  7.0217E-02
ac ID =   33377                -2.0196E-02 -3.3911E-01  2.0630E-02  3.4034E-01
                               -3.7545E-01  1.0703E+01 -4.7125E+01  2.5147E+03

           1    3.30017E+00     5.2809E-04  1.0183E-03  1.2965E-02  1.3015E-02
ac ID =   33377                -2.3081E-01 -3.5653E-01  1.1199E-01  4.3923E-01
                               -3.7554E-01  1.0708E+01 -4.7137E+01  2.5147E+03

           1    3.40016E+00    -2.7856E-03  2.8065E-03 -1.0050E-01  1.0058E-01
ac ID =   33377                -3.0852E-01 -3.1425E-02  1.1504E-01  3.3077E-01
                               -3.7565E-01  1.0713E+01 -4.7148E+01  2.5147E+03

           1    3.50015E+00    -4.8342E-03  3.1120E-03 -1.3217E-01  1.3229E-01
ac ID =   33377                -1.5731E-01  2.7649E-01  4.6206E-02  3.2145E-01
                               -3.7576E-01  1.0719E+01 -4.7160E+01  2.5147E+03

           1    3.60014E+00     6.0478E-03 -3.0156E-03 -5.2714E-02  5.3146E-02
ac ID =   33377                 1.2140E-01  7.3844E-01 -9.5242E-02  7.5439E-01
                               -3.7586E-01  1.0724E+01 -4.7172E+01  2.5147E+03

           1    3.70013E+00     1.0792E-02 -5.0196E-03 -4.6194E-02  4.7703E-02
ac ID =   33377                 3.1166E-01  8.6205E-01 -1.6669E-01  9.3169E-01
                               -3.7595E-01  1.0729E+01 -4.7183E+01  2.5147E+03

           1    3.80012E+00     7.1610E-03 -2.8407E-03 -1.2929E-01  1.2952E-01
ac ID =   33377                 2.4833E-01  1.0784E+00 -6.7096E-02  1.1086E+00
                               -3.7605E-01  1.0734E+01 -4.7195E+01  2.5147E+03

           1    3.90011E+00     8.4855E-03 -4.7349E-04 -1.8931E-01  1.8950E-01
ac ID =   33377                 1.6971E-01  1.1294E+00 -5.1997E-02  1.1433E+00
                               -3.7613E-01  1.0739E+01 -4.7206E+01  2.5147E+03

           1    4.00010E+00     1.9913E-03 -9.4318E-04 -1.3637E-01  1.3639E-01
ac ID =   33377                -2.8493E-02  7.1001E-01 -2.0453E-02  7.1087E-01
                               -3.7618E-01  1.0744E+01 -4.7217E+01  2.5147E+03

           1    4.10009E+00     4.3288E-03 -4.7384E-04 -9.7218E-02  9.7316E-02
ac ID =   33377                -7.0220E-02  5.4288E-01  7.2995E-03  5.4745E-01
                               -3.7623E-01  1.0748E+01 -4.7228E+01  2.5147E+03

           1    4.20008E+00    -1.4705E-03  2.8675E-03 -1.4170E-01  1.4173E-01
ac ID =   33377                -2.2317E-01  5.2603E-01  9.3353E-02  5.7899E-01
                               -3.7629E-01  1.0753E+01 -4.7239E+01  2.5147E+03

           1    4.30007E+00     3.1537E-03  4.7768E-03 -2.3950E-01  2.3957E-01
ac ID =   33377                -3.3580E-01  9.3073E-01  8.9839E-02  9.9353E-01
                               -3.7637E-01  1.0757E+01 -4.7249E+01  2.5147E+03

           1    4.40006E+00     1.2711E-02  4.1392E-03 -2.0749E-01  2.0792E-01
ac ID =   33377                -1.3343E-01  1.2353E+00  3.4027E-02  1.2430E+00
                               -3.7644E-01  1.0761E+01 -4.7259E+01  2.5147E+03

           1    4.50005E+00     1.1454E-02 -2.0600E-03 -1.2783E-01  1.2836E-01
ac ID =   33377                 2.1690E-01  1.0601E+00 -4.1337E-02  1.0828E+00
                               -3.7650E-01  1.0765E+01 -4.7269E+01  2.5147E+03

           1    4.60004E+00     1.3470E-02 -4.7860E-03 -1.6552E-01  1.6614E-01
ac ID =   33377                 3.0780E-01  1.1459E+00 -1.1035E-01  1.1916E+00
                               -3.7657E-01  1.0768E+01 -4.7279E+01  2.5147E+03

           1    4.70003E+00     1.6517E-02  4.9137E-04 -2.4242E-01  2.4298E-01
ac ID =   33377                 2.1391E-01  1.1479E+00 -8.2735E-02  1.1706E+00
                               -3.7662E-01  1.0772E+01 -4.7288E+01  2.5147E+03

           1    4.80002E+00     1.8746E-02  6.6731E-04 -2.7125E-01  2.7189E-01
ac ID =   33377                 8.6151E-02  1.1854E+00  1.4491E-02  1.1886E+00
                               -3.7665E-01  1.0775E+01 -4.7297E+01  2.5147E+03

           1    4.90001E+00     1.7262E-02 -1.5349E-03 -2.1016E-01  2.1087E-01
ac ID =   33377                 7.5810E-02  1.1413E+00  9.3083E-04  1.1438E+00
                               -3.7665E-01  1.0779E+01 -4.7307E+01  2.5147E+03

           1    5.00000E+00     2.3684E-02  1.9668E-03 -1.9420E-01  1.9565E-01
ac ID =   33377                -2.4751E-01  1.2282E+00  6.6589E-02  1.2547E+00
                               -3.7665E-01  1.0783E+01 -4.7316E+01  2.5147E+03

           1    5.10049E+00     2.1804E-02  4.0258E-03 -2.6909E-01  2.7000E-01
ac ID =   33377                -2.7863E-01  1.3116E+00  6.6547E-02  1.3425E+00
                               -3.7665E-01  1.0787E+01 -4.7324E+01  2.5147E+03

           1    5.20048E+00     3.1129E-02  5.9704E-03 -2.9998E-01  3.0165E-01
ac ID =   33377                -3.0188E-01  1.6333E+00 -2.6136E-02  1.6612E+00
                               -3.7665E-01  1.0791E+01 -4.7332E+01  2.5147E+03

           1    5.30047E+00     3.5558E-02  1.5097E-03 -2.8534E-01  2.8755E-01
ac ID =   33377                -2.0261E-01  1.6848E+00  4.0144E-02  1.6974E+00
                               -3.7664E-01  1.0795E+01 -4.7341E+01  2.5147E+03

           1    5.40046E+00     4.3452E-02 -1.8687E-03 -2.6683E-01  2.7035E-01
ac ID =   33377                 1.7005E-01  1.7103E+00 -1.0692E-02  1.7188E+00
                               -3.7663E-01  1.0800E+01 -4.7349E+01  2.5147E+03

           1    5.50045E+00     4.8005E-02  3.7677E-04 -3.4371E-01  3.4704E-01
ac ID =   33377                 1.0040E-01  1.9855E+00 -1.0792E-01  1.9910E+00
                               -3.7660E-01  1.0805E+01 -4.7357E+01  2.5147E+03

           1    5.60044E+00     4.9140E-02 -8.9361E-05 -4.3028E-01  4.3307E-01
ac ID =   33377                 6.0578E-02  2.2155E+00 -5.8592E-02  2.2171E+00
                               -3.7656E-01  1.0811E+01 -4.7364E+01  2.5147E+03

           1    5.70043E+00     5.4314E-02  2.5199E-04 -4.3839E-01  4.4174E-01
ac ID =   33377                 6.6252E-02  2.2060E+00  1.2891E-01  2.2108E+00
                               -3.7650E-01  1.0817E+01 -4.7372E+01  2.5147E+03

           1    5.80042E+00     6.2276E-02 -1.0688E-03 -3.9291E-01  3.9781E-01
ac ID =   33377                 3.5911E-02  2.2665E+00  8.1742E-02  2.2683E+00
                               -3.7639E-01  1.0825E+01 -4.7380E+01  2.5147E+03

           1    5.90041E+00     7.8071E-02  8.0236E-03 -4.1521E-01  4.2257E-01
ac ID =   33377                -4.1779E-01  2.5960E+00 -6.9100E-02  2.6303E+00
                               -3.7628E-01  1.0834E+01 -4.7388E+01  2.5147E+03

           1    6.00040E+00     7.2152E-02  5.6059E-03 -4.8387E-01  4.8925E-01
ac ID =   33377                -3.9160E-01  2.6694E+00  2.7172E-02  2.6981E+00
                               -3.7619E-01  1.0843E+01 -4.7396E+01  2.5147E+03

           1    6.10039E+00     7.8764E-02  2.5002E-03 -4.8546E-01  4.9181E-01
ac ID =   33377                -1.1695E-01  2.5452E+00 -5.5620E-02  2.5485E+00
                               -3.7607E-01  1.0855E+01 -4.7404E+01  2.5147E+03

           1    6.20038E+00     8.1812E-02  7.5144E-03 -4.5572E-01  4.6307E-01
ac ID =   33377                -4.8730E-01  2.4676E+00  4.1357E-02  2.5156E+00
                               -3.7591E-01  1.0867E+01 -4.7413E+01  2.5147E+03

           1    6.30037E+00     8.4905E-02  5.6587E-03 -4.8315E-01  4.9059E-01
ac ID =   33377                -1.7326E-01  2.4478E+00  1.0770E-01  2.4563E+00
                               -3.7581E-01  1.0881E+01 -4.7422E+01  2.5147E+03

           1    6.40036E+00     9.2600E-02 -1.3574E-03 -5.7674E-01  5.8413E-01
ac ID =   33377                 1.2939E-01  2.8841E+00  7.4091E-02  2.8879E+00
                               -3.7568E-01  1.0897E+01 -4.7431E+01  2.5147E+03

           1    6.50035E+00     1.0717E-01  6.0352E-03 -6.2896E-01  6.3806E-01
ac ID =   33377                -3.5065E-01  3.4392E+00  8.0099E-02  3.4579E+00
                               -3.7546E-01  1.0915E+01 -4.7441E+01  2.5147E+03

           1    6.60034E+00     1.0463E-01  9.5328E-03 -6.1736E-01  6.2624E-01
ac ID =   33377                -3.7157E-01  3.6632E+00 -1.7061E-02  3.6821E+00
                               -3.7530E-01  1.0934E+01 -4.7451E+01  2.5147E+03

           1    6.70033E+00     1.0369E-01  1.8861E-03 -6.1453E-01  6.2322E-01
ac ID =   33377                -2.1679E-01  3.5990E+00  2.2808E-01  3.6128E+00
                               -3.7509E-01  1.0956E+01 -4.7462E+01  2.5147E+03

           1    6.80032E+00     1.1727E-01 -5.2131E-03 -6.4438E-01  6.5498E-01
ac ID =   33377                -2.3582E-01  3.8305E+00  1.9439E-01  3.8427E+00
                               -3.7484E-01  1.0979E+01 -4.7473E+01  2.5147E+03

           1    6.90031E+00     1.2026E-01  1.5758E-02 -7.2982E-01  7.3983E-01
ac ID =   33377                -8.2899E-01  4.0404E+00 -2.1361E-02  4.1246E+00
                               -3.7469E-01  1.1005E+01 -4.7484E+01  2.5147E+03

           1    7.00030E+00     1.1774E-01  1.4663E-03 -7.1623E-01  7.2585E-01
ac ID =   33377                -4.1342E-01  3.7464E+00 -2.5089E-01  3.7775E+00
                               -3.7459E-01  1.1033E+01 -4.7497E+01  2.5147E+03

           1    7.10029E+00     1.3558E-01 -5.1149E-03 -7.5169E-01  7.6384E-01
ac ID =   33377                -1.3316E-02  3.7818E+00 -3.4907E-01  3.7979E+00
                               -3.7448E-01  1.1063E+01 -4.7510E+01  2.5147E+03

           1    7.20028E+00     1.2927E-01  9.1717E-03 -8.2447E-01  8.3459E-01
ac ID =   33377                -7.2409E-01  4.3816E+00 -2.6123E-01  4.4487E+00
                               -3.7439E-01  1.1096E+01 -4.7523E+01  2.5147E+03

           1    7.30027E+00     1.1989E-01  1.1633E-02 -8.9819E-01  9.0623E-01
ac ID =   33377                -3.6558E-01  4.1359E+00  6.6846E-02  4.1525E+00
                               -3.7441E-01  1.1131E+01 -4.7537E+01  2.5147E+03

           1    7.40026E+00     1.5296E-01  6.6953E-03 -9.7474E-01  9.8669E-01
ac ID =   33377                -2.7393E-01  5.3124E+00 -1.3586E-01  5.3212E+00
                               -3.7431E-01  1.1168E+01 -4.7552E+01  2.5147E+03

           1    7.50025E+00     1.6013E-01 -1.9591E-03 -9.5504E-01  9.6837E-01
ac ID =   33377                -4.6487E-01  5.3234E+00 -3.3900E-01  5.3544E+00
                               -3.7418E-01  1.1208E+01 -4.7568E+01  2.5147E+03

           1    7.60024E+00     1.4179E-01  1.5594E-02 -9.6133E-01  9.7186E-01
ac ID =   33377                -4.8207E-01  5.2370E+00 -1.9354E-01  5.2627E+00
                               -3.7419E-01  1.1251E+01 -4.7584E+01  2.5147E+03

           1    7.70023E+00     1.7429E-01 -2.9115E-03 -1.0433E+00  1.0577E+00
ac ID =   33377                -4.9025E-01  5.7615E+00  1.4297E-01  5.7841E+00
                               -3.7415E-01  1.1296E+01 -4.7601E+01  2.5147E+03

           1    7.80022E+00     1.7626E-01  9.4169E-03 -1.0842E+00  1.0985E+00
ac ID =   33377                -3.4415E-01  5.8618E+00  3.3456E-01  5.8814E+00
                               -3.7416E-01  1.1344E+01 -4.7618E+01  2.5147E+03

           1    7.90021E+00     1.5759E-01  7.5936E-04 -1.1219E+00  1.1329E+00
ac ID =   33377                -6.0947E-01  5.7967E+00  1.5091E-01  5.8306E+00
                               -3.7411E-01  1.1395E+01 -4.7636E+01  2.5147E+03

           1    8.00020E+00     1.7833E-01  3.1521E-03 -1.1584E+00  1.1720E+00
ac ID =   33377                -3.4546E-01  6.2413E+00 -4.2340E-02  6.2510E+00
                               -3.7415E-01  1.1449E+01 -4.7655E+01  2.5147E+03

           1    8.10019E+00     1.9305E-01 -1.1051E-03 -1.2399E+00  1.2548E+00
ac ID =   33377                -2.0448E-01  6.8596E+00  1.7366E-02  6.8627E+00
                               -3.7414E-01  1.1506E+01 -4.7674E+01  2.5147E+03

           1    8.20018E+00     1.9252E-01  5.4790E-03 -1.3249E+00  1.3388E+00
ac ID =   33377                -5.0835E-01  7.1345E+00  1.5407E-02  7.1526E+00
                               -3.7415E-01  1.1565E+01 -4.7694E+01  2.5147E+03

           1    8.30017E+00     1.9406E-01  7.6320E-03 -1.3718E+00  1.3855E+00
ac ID =   33377                -6.3313E-01  7.5552E+00 -1.4437E-02  7.5817E+00
                               -3.7418E-01  1.1627E+01 -4.7714E+01  2.5147E+03

           1    8.40016E+00     2.1341E-01 -6.8142E-03 -1.3900E+00  1.4063E+00
ac ID =   33377                -7.7436E-02  8.1564E+00 -1.8115E-01  8.1587E+00
                               -3.7420E-01  1.1692E+01 -4.7735E+01  2.5147E+03

           1    8.50015E+00     2.1124E-01  7.3590E-03 -1.4624E+00  1.4776E+00
ac ID =   33377                -5.4216E-01  8.2125E+00  3.5117E-03  8.2304E+00
                               -3.7422E-01  1.1760E+01 -4.7756E+01  2.5147E+03

           1    8.60014E+00     2.1503E-01  4.4769E-03 -1.5334E+00  1.5485E+00
ac ID =   33377                -4.5106E-01  8.4968E+00 -1.5224E-01  8.5101E+00
                               -3.7429E-01  1.1831E+01 -4.7777E+01  2.5147E+03

           1    8.70013E+00     2.2324E-01  7.1774E-03 -1.5915E+00  1.6071E+00
ac ID =   33377                -5.0059E-01  8.8813E+00 -2.4766E-01  8.8989E+00
                               -3.7436E-01  1.1905E+01 -4.7799E+01  2.5147E+03

           1    8.80012E+00     2.1767E-01 -1.5615E-03 -1.6324E+00  1.6469E+00
ac ID =   33377                -4.6775E-01  8.6898E+00 -3.8043E-02  8.7024E+00
                               -3.7438E-01  1.1981E+01 -4.7821E+01  2.5147E+03

           1    8.90011E+00     2.2909E-01 -5.9939E-03 -1.7156E+00  1.7308E+00
ac ID =   33377                -1.9673E-01  9.2047E+00  4.1185E-02  9.2069E+00
                               -3.7445E-01  1.2060E+01 -4.7842E+01  2.5147E+03

           1    9.00010E+00     2.4527E-01  4.1335E-03 -1.8222E+00  1.8386E+00
ac ID =   33377                -5.8334E-01  9.6964E+00  2.4219E-01  9.7169E+00
                               -3.7453E-01  1.2141E+01 -4.7864E+01  2.5147E+03

           1    9.10009E+00     2.3811E-01  8.3866E-03 -1.8536E+00  1.8688E+00
ac ID =   33377                -3.4721E-01  9.6639E+00  1.0696E-01  9.6707E+00
                               -3.7465E-01  1.2226E+01 -4.7885E+01  2.5147E+03

           1    9.20008E+00     2.6856E-01 -1.5771E-02 -1.9237E+00  1.9424E+00
ac ID =   33377                -2.5922E-01  1.0725E+01  4.9421E-02  1.0729E+01
                               -3.7466E-01  1.2313E+01 -4.7907E+01  2.5147E+03

           1    9.30007E+00     2.5007E-01  6.9972E-04 -1.9742E+00  1.9899E+00
ac ID =   33377                -3.0473E-01  1.0723E+01 -1.4845E-01  1.0728E+01
                               -3.7476E-01  1.2402E+01 -4.7928E+01  2.5147E+03

           1    9.40006E+00     2.8013E-01  1.2665E-02 -2.0781E+00  2.0969E+00
ac ID =   33377                -5.8554E-01  1.1360E+01  6.7323E-02  1.1375E+01
                               -3.7484E-01  1.2495E+01 -4.7948E+01  2.5147E+03

           1    9.50005E+00     2.5175E-01 -1.0751E-02 -2.1707E+00  2.1853E+00
ac ID =   33377                -5.1186E-02  1.1786E+01  2.9195E-01  1.1790E+01
                               -3.7493E-01  1.2590E+01 -4.7968E+01  2.5147E+03

           1    9.60004E+00     2.7844E-01  7.9558E-03 -2.1980E+00  2.2155E+00
ac ID =   33377                -5.8160E-01  1.1918E+01  6.8706E-02  1.1932E+01
                               -3.7498E-01  1.2687E+01 -4.7988E+01  2.5147E+03

           1    9.70003E+00     2.8209E-01 -1.2154E-04 -2.2630E+00  2.2805E+00
ac ID =   33377                -3.2490E-01  1.2721E+01 -1.1863E-01  1.2725E+01
                               -3.7506E-01  1.2787E+01 -4.8007E+01  2.5147E+03

           1    9.80002E+00     2.9972E-01  6.9593E-03 -2.3420E+00  2.3611E+00
ac ID =   33377                -4.2822E-01  1.2629E+01  2.0008E-01  1.2638E+01
                               -3.7514E-01  1.2890E+01 -4.8025E+01  2.5147E+03

           1    9.90001E+00     3.0538E-01 -1.2940E-02 -2.4210E+00  2.4402E+00
ac ID =   33377                 6.3973E-02  1.3521E+01 -1.7911E-01  1.3523E+01
                               -3.7523E-01  1.2995E+01 -4.8043E+01  2.5147E+03

           1    1.00005E+01     3.1163E-01  5.8761E-03 -2.4989E+00  2.5183E+00
ac ID =   33377                -7.7965E-01  1.3760E+01  6.3846E-03  1.3782E+01
                               -3.7528E-01  1.3103E+01 -4.8059E+01  2.5147E+03

           1    1.01005E+01     3.3217E-01  8.8392E-04 -2.5698E+00  2.5912E+00
ac ID =   33377                -3.0889E-01  1.4769E+01 -1.0436E-01  1.4773E+01
                               -3.7543E-01  1.3213E+01 -4.8075E+01  2.5147E+03

           1    1.02005E+01     3.1520E-01 -1.0519E-02 -2.6573E+00  2.6760E+00
ac ID =   33377                -1.2546E-01  1.4754E+01  8.9029E-03  1.4755E+01
                               -3.7550E-01  1.3325E+01 -4.8090E+01  2.5147E+03

           1    1.03005E+01     3.4535E-01  7.8056E-03 -2.7500E+00  2.7716E+00
ac ID =   33377                -5.8089E-01  1.5709E+01  9.7791E-02  1.5720E+01
                               -3.7561E-01  1.3440E+01 -4.8103E+01  2.5147E+03

           1    1.04005E+01     3.4468E-01 -3.5593E-03 -2.8163E+00  2.8373E+00
ac ID =   33377                -3.9374E-01  1.6270E+01 -1.7137E-01  1.6275E+01
                               -3.7574E-01  1.3556E+01 -4.8114E+01  2.5147E+03

           1    1.05004E+01     3.1450E-01 -1.0522E-02 -2.8379E+00  2.8553E+00
ac ID =   33377                -6.2929E-02  1.5819E+01  6.2375E-02  1.5820E+01
                               -3.7586E-01  1.3674E+01 -4.8124E+01  2.5147E+03

           1    1.06004E+01     3.6658E-01 -1.9760E-03 -2.8983E+00  2.9214E+00
ac ID =   33377                -2.5196E-01  1.7169E+01  8.0223E-02  1.7171E+01
                               -3.7599E-01  1.3795E+01 -4.8133E+01  2.5147E+03

           1    1.07004E+01     3.8372E-01 -3.3595E-03 -2.9718E+00  2.9965E+00
ac ID =   33377                -2.7661E-01  1.7487E+01  1.2118E-02  1.7489E+01
                               -3.7621E-01  1.3917E+01 -4.8139E+01  2.5147E+03

           1    1.08004E+01     3.6137E-01 -6.7707E-03 -3.0341E+00  3.0556E+00
ac ID =   33377                -8.0827E-02  1.7543E+01 -8.9578E-03  1.7544E+01
                               -3.7644E-01  1.4040E+01 -4.8144E+01  2.5147E+03

           1    1.09004E+01     3.7174E-01 -9.7619E-03 -3.0906E+00  3.1129E+00
ac ID =   33377                -2.4584E-01  1.7871E+01 -2.9325E-01  1.7875E+01
                               -3.7664E-01  1.4165E+01 -4.8146E+01  2.5147E+03

           1    1.10004E+01     3.8692E-01 -6.8949E-03 -3.1447E+00  3.1684E+00
ac ID =   33377                -1.8853E-01  1.8975E+01 -4.7872E-01  1.8982E+01
                               -3.7698E-01  1.4292E+01 -4.8146E+01  2.5147E+03

           1    1.11004E+01     3.7584E-01 -1.8995E-04 -3.1986E+00  3.2206E+00
ac ID =   33377                -2.3938E-01  1.8953E+01 -2.1928E-01  1.8956E+01
                               -3.7733E-01  1.4420E+01 -4.8144E+01  2.5147E+03

           1    1.12004E+01     3.7769E-01 -1.4767E-02 -3.2633E+00  3.2851E+00
ac ID =   33377                -1.3000E-02  1.9620E+01 -1.0146E-01  1.9620E+01
                               -3.7769E-01  1.4549E+01 -4.8139E+01  2.5147E+03

           1    1.13004E+01     3.9060E-01 -6.9052E-03 -3.2890E+00  3.3122E+00
ac ID =   33377                 1.1488E-01  2.0165E+01 -3.0643E-01  2.0168E+01
                               -3.7816E-01  1.4678E+01 -4.8131E+01  2.5147E+03

           1    1.14004E+01     3.8257E-01 -6.5832E-03 -3.3064E+00  3.3285E+00
ac ID =   33377                 3.2367E-02  2.0177E+01 -4.5667E-03  2.0177E+01
                               -3.7859E-01  1.4809E+01 -4.8120E+01  2.5147E+03

           1    1.15003E+01     4.0156E-01 -9.8941E-03 -3.3634E+00  3.3873E+00
ac ID =   33377                -1.0808E-01  2.0900E+01  6.7493E-03  2.0900E+01
                               -3.7902E-01  1.4940E+01 -4.8106E+01  2.5147E+03

           1    1.16003E+01     4.2176E-01 -8.5226E-03 -3.4280E+00  3.4539E+00
ac ID =   33377                 1.8848E-01  2.1552E+01  2.3314E-02  2.1553E+01
                               -3.7952E-01  1.5072E+01 -4.8089E+01  2.5147E+03

           1    1.17003E+01     4.2107E-01 -3.1206E-03 -3.4868E+00  3.5121E+00
ac ID =   33377                -2.2767E-01  2.2168E+01  2.4383E-01  2.2170E+01
                               -3.7993E-01  1.5205E+01 -4.8069E+01  2.5147E+03

           1    1.18003E+01     4.2563E-01  1.0762E-03 -3.5280E+00  3.5536E+00
ac ID =   33377                -1.2935E-01  2.2640E+01 -2.2813E-02  2.2640E+01
                               -3.8042E-01  1.5338E+01 -4.8045E+01  2.5147E+03

           1    1.19003E+01     4.5174E-01 -1.0688E-02 -3.5641E+00  3.5926E+00
ac ID =   33377                -4.2328E-02  2.3533E+01 -7.0271E-02  2.3533E+01
                               -3.8088E-01  1.5472E+01 -4.8018E+01  2.5147E+03

           1    1.20003E+01     4.4745E-01 -1.0363E-02 -3.6135E+00  3.6411E+00
ac ID =   33377                 4.6777E-02  2.3999E+01 -1.0687E-01  2.3999E+01
                               -3.8136E-01  1.5606E+01 -4.7988E+01  2.5147E+03

           1    1.21003E+01     4.3197E-01  7.1755E-03 -3.6521E+00  3.6776E+00
ac ID =   33377                -6.6336E-02  2.4057E+01  2.6495E-01  2.4059E+01
                               -3.8184E-01  1.5741E+01 -4.7955E+01  2.5147E+03

           1    1.22003E+01     4.4818E-01 -8.8104E-03 -3.6311E+00  3.6587E+00
ac ID =   33377                 4.0492E-01  2.4594E+01  9.9463E-02  2.4598E+01
                               -3.8231E-01  1.5876E+01 -4.7918E+01  2.5147E+03

           1    1.23003E+01     4.7443E-01 -1.2393E-02 -3.6321E+00  3.6630E+00
ac ID =   33377                 3.5949E-01  2.4933E+01 -3.7689E-02  2.4936E+01
                               -3.8274E-01  1.6012E+01 -4.7878E+01  2.5147E+03

           1    1.24003E+01     4.5457E-01  4.7793E-03 -3.6620E+00  3.6901E+00
ac ID =   33377                -2.9815E-02  2.4822E+01 -3.2286E-01  2.4825E+01
                               -3.8318E-01  1.6147E+01 -4.7834E+01  2.5147E+03

           1    1.25002E+01     4.6179E-01 -2.8961E-03 -3.6974E+00  3.7261E+00
ac ID =   33377                 2.5128E-01  2.5406E+01 -3.6751E-01  2.5410E+01
                               -3.8360E-01  1.6283E+01 -4.7786E+01  2.5147E+03

           1    1.26002E+01     4.9352E-01 -3.3840E-03 -3.6848E+00  3.7177E+00
ac ID =   33377                 1.0267E-01  2.6367E+01  2.0110E-01  2.6368E+01
                               -3.8402E-01  1.6418E+01 -4.7735E+01  2.5147E+03

           1    1.27002E+01     4.8790E-01 -8.5464E-03 -3.6736E+00  3.7059E+00
ac ID =   33377                 1.7397E-01  2.6539E+01  7.0345E-02  2.6540E+01
                               -3.8444E-01  1.6554E+01 -4.7680E+01  2.5147E+03

           1    1.28002E+01     4.7360E-01  8.4743E-03 -3.6796E+00  3.7099E+00
ac ID =   33377                -1.4753E-02  2.6875E+01 -1.4568E-01  2.6875E+01
                               -3.8487E-01  1.6690E+01 -4.7622E+01  2.5147E+03

           1    1.29002E+01     4.8857E-01 -1.5993E-02 -3.6594E+00  3.6919E+00
ac ID =   33377                 4.8834E-01  2.7288E+01 -1.6453E-01  2.7293E+01
                               -3.8527E-01  1.6825E+01 -4.7559E+01  2.5147E+03

           1    1.30002E+01     4.8830E-01 -2.1535E-03 -3.6487E+00  3.6812E+00
ac ID =   33377                 4.1922E-01  2.7517E+01  1.9895E-01  2.7521E+01
                               -3.8568E-01  1.6961E+01 -4.7493E+01  2.5147E+03

           1    1.31002E+01     4.7433E-01  1.1820E-02 -3.6233E+00  3.6543E+00
ac ID =   33377                 1.5855E-01  2.7405E+01  4.1462E-01  2.7409E+01
                               -3.8609E-01  1.7096E+01 -4.7424E+01  2.5147E+03

           1    1.32002E+01     4.8482E-01 -1.3440E-02 -3.5920E+00  3.6246E+00
ac ID =   33377                 5.0572E-01  2.7814E+01  5.2775E-01  2.7824E+01
                               -3.8643E-01  1.7231E+01 -4.7350E+01  2.5147E+03

           1    1.33002E+01     4.9784E-01 -3.7817E-03 -3.5768E+00  3.6113E+00
ac ID =   33377                 1.7533E-01  2.7879E+01  1.1237E-01  2.7879E+01
                               -3.8676E-01  1.7366E+01 -4.7273E+01  2.5147E+03

           1    1.34002E+01     4.9600E-01  1.0052E-03 -3.5696E+00  3.6039E+00
ac ID =   33377                 4.1743E-02  2.8108E+01 -4.0914E-01  2.8111E+01
                               -3.8704E-01  1.7501E+01 -4.7193E+01  2.5147E+03

           1    1.35001E+01     4.8483E-01  1.0086E-02 -3.5302E+00  3.5634E+00
ac ID =   33377                -8.2981E-03  2.7980E+01 -4.8717E-01  2.7984E+01
                               -3.8737E-01  1.7635E+01 -4.7108E+01  2.5147E+03

           1    1.36001E+01     4.9904E-01  5.9997E-03 -3.4778E+00  3.5134E+00
ac ID =   33377                -7.4963E-02  2.8041E+01 -6.4505E-01  2.8049E+01
                               -3.8757E-01  1.7770E+01 -4.7020E+01  2.5147E+03

           1    1.37001E+01     4.9009E-01 -8.0389E-03 -3.4685E+00  3.5030E+00
ac ID =   33377                 1.4732E-01  2.8293E+01 -1.5034E-01  2.8294E+01
                               -3.8774E-01  1.7903E+01 -4.6928E+01  2.5147E+03

           1    1.38001E+01     4.8021E-01  1.1243E-02 -3.4147E+00  3.4483E+00
ac ID =   33377                 1.9809E-01  2.7876E+01  1.2375E-02  2.7877E+01
                               -3.8801E-01  1.8037E+01 -4.6833E+01  2.5147E+03

           1    1.39001E+01     4.9577E-01  3.2920E-03 -3.3589E+00  3.3952E+00
ac ID =   33377                 3.6545E-01  2.7763E+01  4.5515E-02  2.7766E+01
                               -3.8815E-01  1.8170E+01 -4.6734E+01  2.5147E+03

           1    1.40001E+01     4.9325E-01  1.0618E-02 -3.3272E+00  3.3636E+00
ac ID =   33377                -1.3648E-01  2.7432E+01  4.8579E-03  2.7433E+01
                               -3.8824E-01  1.8304E+01 -4.6632E+01  2.5147E+03

           1    1.41001E+01     4.8385E-01  2.7876E-04 -3.2410E+00  3.2769E+00
ac ID =   33377                 3.1483E-01  2.7148E+01 -4.2656E-01  2.7153E+01
                               -3.8836E-01  1.8437E+01 -4.6527E+01  2.5147E+03

           1    1.42001E+01     4.8067E-01 -1.6960E-03 -3.1651E+00  3.2013E+00
ac ID =   33377                -1.8212E-01  2.6818E+01  3.1422E-02  2.6819E+01
                               -3.8839E-01  1.8569E+01 -4.6419E+01  2.5147E+03

           1    1.43001E+01     4.9831E-01  2.1775E-02 -3.1598E+00  3.1989E+00
ac ID =   33377                -3.5782E-01  2.7276E+01 -2.4271E-01  2.7280E+01
                               -3.8848E-01  1.8702E+01 -4.6307E+01  2.5147E+03

           1    1.44001E+01     4.8934E-01  1.9292E-02 -3.0736E+00  3.1123E+00
ac ID =   33377                -5.6127E-01  2.7099E+01 -8.9406E-01  2.7120E+01
                               -3.8856E-01  1.8835E+01 -4.6193E+01  2.5147E+03

           1    1.45000E+01     4.7308E-01  2.3125E-04 -2.9600E+00  2.9976E+00
ac ID =   33377                -2.4052E-01  2.6574E+01 -4.8028E-01  2.6580E+01
                               -3.8854E-01  1.8968E+01 -4.6076E+01  2.5147E+03

           1    1.46000E+01     4.7769E-01  1.0377E-02 -2.9271E+00  2.9658E+00
ac ID =   33377                -5.4962E-01  2.6806E+01 -1.5172E-01  2.6812E+01
                               -3.8865E-01  1.9101E+01 -4.5957E+01  2.5147E+03

