 LSTC 50th% Full_FE H-III Dummy (Beta Version, February 17, 2019)        
                    ls-dyna smp s R16 R16.0_619_d222963 date 03/18/2025

{BEGIN LEGEND}
 Entity #        Title
    22626                                                                                     
{END LEGEND}




 n o d a l   p r i n t   o u t   f o r   t i m e  s t e p       1                              ( at time 0.0000000E+00 )

 nodal point  x-disp     y-disp      z-disp      x-vel       y-vel       z-vel      x-accl      y-accl      z-accl      x-coor      y-coor      z-coor
    22626  0.00000E+00 0.00000E+00 0.00000E+00 0.00000E+00 0.00000E+00-3.12000E+00 0.00000E+00 0.00000E+00 0.00000E+00 4.79642E+01-2.20298E+01 7.33850E+00



 n o d a l   p r i n t   o u t   f o r   t i m e  s t e p       1                              ( at time 0.0000000E+00 )

 nodal point  x-rot      y-rot       z-rot       x-rot vel   y-rot vel   z-rot vel   x-rot acc   y-rot acc   z-rot acc
    22626  0.00000E+00 0.00000E+00 0.00000E+00 0.00000E+00 0.00000E+00 0.00000E+00 0.00000E+00 0.00000E+00 0.00000E+00



 n o d a l   p r i n t   o u t   f o r   t i m e  s t e p     201                              ( at time 9.9989993E-02 )

 nodal point  x-disp     y-disp      z-disp      x-vel       y-vel       z-vel      x-accl      y-accl      z-accl      x-coor      y-coor      z-coor
    22626  8.34210E-07-4.04519E-06-3.12016E-01 4.76714E-05-4.96488E-04-3.12074E+00 4.76762E-04-4.96538E-03-7.42748E-03 4.79642E+01-2.20298E+01 7.02648E+00



 n o d a l   p r i n t   o u t   f o r   t i m e  s t e p     201                              ( at time 9.9989993E-02 )

 nodal point  x-rot      y-rot       z-rot       x-rot vel   y-rot vel   z-rot vel   x-rot acc   y-rot acc   z-rot acc
    22626  9.60798E-09 3.04062E-08 5.27022E-08 1.30683E-06 2.72236E-06 5.21200E-06 1.30696E-05 2.72263E-05 5.21252E-05



 n o d a l   p r i n t   o u t   f o r   t i m e  s t e p     401                              ( at time 1.9997999E-01 )

 nodal point  x-disp     y-disp      z-disp      x-vel       y-vel       z-vel      x-accl      y-accl      z-accl      x-coor      y-coor      z-coor
    22626 -5.12809E-05-5.21548E-04-6.23853E-01-1.09693E-03-1.11147E-02-3.11558E+00-1.14471E-02-1.06192E-01 5.16156E-02 4.79641E+01-2.20303E+01 6.71465E+00



 n o d a l   p r i n t   o u t   f o r   t i m e  s t e p     401                              ( at time 1.9997999E-01 )

 nodal point  x-rot      y-rot       z-rot       x-rot vel   y-rot vel   z-rot vel   x-rot acc   y-rot acc   z-rot acc
    22626  4.60292E-07 1.32975E-06 2.50213E-06 2.67911E-06 1.90493E-05 3.49639E-05 1.37242E-05 1.63286E-04 2.97549E-04



 n o d a l   p r i n t   o u t   f o r   t i m e  s t e p     601                              ( at time 2.9996998E-01 )

 nodal point  x-disp     y-disp      z-disp      x-vel       y-vel       z-vel      x-accl      y-accl      z-accl      x-coor      y-coor      z-coor
    22626 -2.45942E-05-1.97629E-03-9.35238E-01 1.65912E-03-1.60433E-02-3.11415E+00 2.75632E-02-4.92916E-02 1.43209E-02 4.79642E+01-2.20318E+01 6.40326E+00



 n o d a l   p r i n t   o u t   f o r   t i m e  s t e p     601                              ( at time 2.9996998E-01 )

 nodal point  x-rot      y-rot       z-rot       x-rot vel   y-rot vel   z-rot vel   x-rot acc   y-rot acc   z-rot acc
    22626  6.75459E-07 2.41165E-06 4.82746E-06 8.32224E-06 5.35287E-06 1.45999E-05 5.64370E-05-1.36978E-04-2.03660E-04



 n o d a l   p r i n t   o u t   f o r   t i m e  s t e p     801                              ( at time 3.9995997E-01 )

 nodal point  x-disp     y-disp      z-disp      x-vel       y-vel       z-vel      x-accl      y-accl      z-accl      x-coor      y-coor      z-coor
    22626  5.94654E-05-3.57407E-03-1.24663E+00 1.94373E-04-1.73898E-02-3.11353E+00-1.46490E-02-1.34665E-02 6.18043E-03 4.79642E+01-2.20334E+01 6.09187E+00



 n o d a l   p r i n t   o u t   f o r   t i m e  s t e p     801                              ( at time 3.9995997E-01 )

 nodal point  x-rot      y-rot       z-rot       x-rot vel   y-rot vel   z-rot vel   x-rot acc   y-rot acc   z-rot acc
    22626  1.58186E-06 3.68060E-06 6.68107E-06 6.22461E-06 2.42314E-05 3.82536E-05-2.09784E-05 1.88804E-04 2.36560E-04



 n o d a l   p r i n t   o u t   f o r   t i m e  s t e p    1001                              ( at time 4.9994997E-01 )

 nodal point  x-disp     y-disp      z-disp      x-vel       y-vel       z-vel      x-accl      y-accl      z-accl      x-coor      y-coor      z-coor
    22626  7.27281E-05-5.63145E-03-1.55782E+00 8.87220E-04-2.38466E-02-3.11085E+00 6.92917E-03-6.45741E-02 2.68272E-02 4.79643E+01-2.20354E+01 5.78068E+00



 n o d a l   p r i n t   o u t   f o r   t i m e  s t e p    1001                              ( at time 4.9994997E-01 )

 nodal point  x-rot      y-rot       z-rot       x-rot vel   y-rot vel   z-rot vel   x-rot acc   y-rot acc   z-rot acc
    22626  1.49422E-06 6.64840E-06 1.18360E-05-4.90197E-06 4.37100E-05 7.18756E-05-1.11277E-04 1.94805E-04 3.36254E-04



 n o d a l   p r i n t   o u t   f o r   t i m e  s t e p    1201                              ( at time 5.9993996E-01 )

 nodal point  x-disp     y-disp      z-disp      x-vel       y-vel       z-vel      x-accl      y-accl      z-accl      x-coor      y-coor      z-coor
    22626  5.29444E-05-8.13746E-03-1.86888E+00-5.65612E-04-2.61247E-02-3.11084E+00-1.45298E-02-2.27835E-02 9.53770E-05 4.79642E+01-2.20379E+01 5.46962E+00



 n o d a l   p r i n t   o u t   f o r   t i m e  s t e p    1201                              ( at time 5.9993996E-01 )

 nodal point  x-rot      y-rot       z-rot       x-rot vel   y-rot vel   z-rot vel   x-rot acc   y-rot acc   z-rot acc
    22626  1.26521E-06 9.87451E-06 1.77361E-05-2.17411E-06 2.63728E-05 5.29517E-05 2.72813E-05-1.73389E-04-1.89258E-04



 n o d a l   p r i n t   o u t   f o r   t i m e  s t e p    1401                              ( at time 6.9992995E-01 )

 nodal point  x-disp     y-disp      z-disp      x-vel       y-vel       z-vel      x-accl      y-accl      z-accl      x-coor      y-coor      z-coor
    22626  1.97075E-05-1.10207E-02-2.17976E+00 7.17661E-04-3.22441E-02-3.10770E+00 1.28340E-02-6.11998E-02 3.14362E-02 4.79642E+01-2.20408E+01 5.15874E+00



 n o d a l   p r i n t   o u t   f o r   t i m e  s t e p    1401                              ( at time 6.9992995E-01 )

 nodal point  x-rot      y-rot       z-rot       x-rot vel   y-rot vel   z-rot vel   x-rot acc   y-rot acc   z-rot acc
    22626  1.10189E-06 1.30698E-05 2.27052E-05-2.42467E-06 3.79585E-05 5.94455E-05-2.50579E-06 1.15868E-04 6.49443E-05



 n o d a l   p r i n t   o u t   f o r   t i m e  s t e p    1601                              ( at time 7.9991994E-01 )

 nodal point  x-disp     y-disp      z-disp      x-vel       y-vel       z-vel      x-accl      y-accl      z-accl      x-coor      y-coor      z-coor
    22626  1.33027E-04-1.45710E-02-2.49038E+00 1.36904E-03-3.68167E-02-3.10600E+00 6.51444E-03-4.57304E-02 1.69628E-02 4.79643E+01-2.20444E+01 4.84812E+00



 n o d a l   p r i n t   o u t   f o r   t i m e  s t e p    1601                              ( at time 7.9991994E-01 )

 nodal point  x-rot      y-rot       z-rot       x-rot vel   y-rot vel   z-rot vel   x-rot acc   y-rot acc   z-rot acc
    22626  1.00729E-06 1.72065E-05 2.96647E-05 3.04345E-06 4.87540E-05 7.64342E-05 5.46867E-05 1.07966E-04 1.69904E-04



 n o d a l   p r i n t   o u t   f o r   t i m e  s t e p    1801                              ( at time 8.9990994E-01 )

 nodal point  x-disp     y-disp      z-disp      x-vel       y-vel       z-vel      x-accl      y-accl      z-accl      x-coor      y-coor      z-coor
    22626  2.07431E-04-1.82141E-02-2.80104E+00-5.03068E-04-3.64307E-02-3.10742E+00-1.87230E-02 3.86009E-03-1.42016E-02 4.79644E+01-2.20480E+01 4.53746E+00



 n o d a l   p r i n t   o u t   f o r   t i m e  s t e p    1801                              ( at time 8.9990994E-01 )

 nodal point  x-rot      y-rot       z-rot       x-rot vel   y-rot vel   z-rot vel   x-rot acc   y-rot acc   z-rot acc
    22626  1.02440E-06 2.13204E-05 3.66582E-05-1.99778E-06 3.80539E-05 6.83685E-05-5.04174E-05-1.07011E-04-8.06649E-05



 n o d a l   p r i n t   o u t   f o r   t i m e  s t e p    2001                              ( at time 9.9989993E-01 )

 nodal point  x-disp     y-disp      z-disp      x-vel       y-vel       z-vel      x-accl      y-accl      z-accl      x-coor      y-coor      z-coor
    22626  1.09800E-04-2.19276E-02-3.11175E+00-8.16126E-04-3.83988E-02-3.10755E+00-3.13089E-03-1.96831E-02-1.33051E-03 4.79643E+01-2.20517E+01 4.22675E+00



 n o d a l   p r i n t   o u t   f o r   t i m e  s t e p    2001                              ( at time 9.9989993E-01 )

 nodal point  x-rot      y-rot       z-rot       x-rot vel   y-rot vel   z-rot vel   x-rot acc   y-rot acc   z-rot acc
    22626  8.56482E-07 2.55339E-05 4.38516E-05-9.83770E-07 4.62576E-05 8.59786E-05 1.01412E-05 8.20452E-05 1.76119E-04



 n o d a l   p r i n t   o u t   f o r   t i m e  s t e p    2201                              ( at time 1.0998899E+00 )

 nodal point  x-disp     y-disp      z-disp      x-vel       y-vel       z-vel      x-accl      y-accl      z-accl      x-coor      y-coor      z-coor
    22626  9.18805E-05-2.58760E-02-3.42246E+00-2.16680E-04-4.02565E-02-3.10712E+00 5.99507E-03-1.85791E-02 4.32058E-03 4.79643E+01-2.20557E+01 3.91605E+00



 n o d a l   p r i n t   o u t   f o r   t i m e  s t e p    2201                              ( at time 1.0998899E+00 )

 nodal point  x-rot      y-rot       z-rot       x-rot vel   y-rot vel   z-rot vel   x-rot acc   y-rot acc   z-rot acc
    22626  9.33723E-07 3.03129E-05 5.24806E-05 5.35048E-06 4.64567E-05 7.50566E-05 6.33489E-05 1.99156E-06-1.09231E-04



 n o d a l   p r i n t   o u t   f o r   t i m e  s t e p    2401                              ( at time 1.1998799E+00 )

 nodal point  x-disp     y-disp      z-disp      x-vel       y-vel       z-vel      x-accl      y-accl      z-accl      x-coor      y-coor      z-coor
    22626  1.34285E-04-2.98901E-02-3.73320E+00 7.34150E-04-3.98048E-02-3.10850E+00 9.50925E-03 4.51796E-03-1.37414E-02 4.79643E+01-2.20597E+01 3.60531E+00



 n o d a l   p r i n t   o u t   f o r   t i m e  s t e p    2401                              ( at time 1.1998799E+00 )

 nodal point  x-rot      y-rot       z-rot       x-rot vel   y-rot vel   z-rot vel   x-rot acc   y-rot acc   z-rot acc
    22626  1.33708E-06 3.44656E-05 5.93290E-05 5.01677E-06 3.99526E-05 6.55650E-05-3.33748E-06-6.50478E-05-9.49252E-05



 n o d a l   p r i n t   o u t   f o r   t i m e  s t e p    2601                              ( at time 1.2998699E+00 )

 nodal point  x-disp     y-disp      z-disp      x-vel       y-vel       z-vel      x-accl      y-accl      z-accl      x-coor      y-coor      z-coor
    22626  1.46185E-04-3.37303E-02-4.04413E+00-4.24448E-04-3.65916E-02-3.11132E+00-1.15871E-02 3.21353E-02-2.82888E-02 4.79643E+01-2.20635E+01 3.29437E+00



 n o d a l   p r i n t   o u t   f o r   t i m e  s t e p    2601                              ( at time 1.2998699E+00 )

 nodal point  x-rot      y-rot       z-rot       x-rot vel   y-rot vel   z-rot vel   x-rot acc   y-rot acc   z-rot acc
    22626  1.63951E-06 3.85432E-05 6.61333E-05-2.53269E-06 4.53347E-05 7.97424E-05-7.55021E-05 5.38263E-05 1.41788E-04



 n o d a l   p r i n t   o u t   f o r   t i m e  s t e p    2801                              ( at time 1.3998599E+00 )

 nodal point  x-disp     y-disp      z-disp      x-vel       y-vel       z-vel      x-accl      y-accl      z-accl      x-coor      y-coor      z-coor
    22626  3.22612E-05-3.71240E-02-4.35543E+00-1.30924E-03-3.14350E-02-3.11511E+00-8.84885E-03 5.15710E-02-3.78289E-02 4.79642E+01-2.20669E+01 2.98307E+00



 n o d a l   p r i n t   o u t   f o r   t i m e  s t e p    2801                              ( at time 1.3998599E+00 )

 nodal point  x-rot      y-rot       z-rot       x-rot vel   y-rot vel   z-rot vel   x-rot acc   y-rot acc   z-rot acc
    22626  1.20496E-06 4.29487E-05 7.39885E-05-4.54004E-06 4.45311E-05 7.33541E-05-2.00756E-05-8.03652E-06-6.38896E-05



 n o d a l   p r i n t   o u t   f o r   t i m e  s t e p    3001                              ( at time 1.4998499E+00 )

 nodal point  x-disp     y-disp      z-disp      x-vel       y-vel       z-vel      x-accl      y-accl      z-accl      x-coor      y-coor      z-coor
    22626 -7.75519E-05-4.01687E-02-4.66702E+00-4.92649E-04-2.97683E-02-3.11713E+00 8.16677E-03 1.66682E-02-2.02366E-02 4.79641E+01-2.20700E+01 2.67148E+00



 n o d a l   p r i n t   o u t   f o r   t i m e  s t e p    3001                              ( at time 1.4998499E+00 )

 nodal point  x-rot      y-rot       z-rot       x-rot vel   y-rot vel   z-rot vel   x-rot acc   y-rot acc   z-rot acc
    22626  8.27437E-07 4.68515E-05 8.05204E-05-1.58582E-06 3.19717E-05 5.71730E-05 2.95452E-05-1.25606E-04-1.61827E-04



 n o d a l   p r i n t   o u t   f o r   t i m e  s t e p    3201                              ( at time 1.5998399E+00 )

 nodal point  x-disp     y-disp      z-disp      x-vel       y-vel       z-vel      x-accl      y-accl      z-accl      x-coor      y-coor      z-coor
    22626 -1.24294E-04-4.30593E-02-4.97879E+00-6.97752E-04-2.75128E-02-3.11940E+00-2.05123E-03 2.25576E-02-2.26830E-02 4.79641E+01-2.20728E+01 2.35971E+00



 n o d a l   p r i n t   o u t   f o r   t i m e  s t e p    3201                              ( at time 1.5998399E+00 )

 nodal point  x-rot      y-rot       z-rot       x-rot vel   y-rot vel   z-rot vel   x-rot acc   y-rot acc   z-rot acc
    22626  5.15807E-07 4.99110E-05 8.53960E-05-1.52156E-06 3.25988E-05 4.78549E-05 6.42661E-07 6.27097E-06-9.31910E-05



 n o d a l   p r i n t   o u t   f o r   t i m e  s t e p    3401                              ( at time 1.6998299E+00 )

 nodal point  x-disp     y-disp      z-disp      x-vel       y-vel       z-vel      x-accl      y-accl      z-accl      x-coor      y-coor      z-coor
    22626 -2.11005E-04-4.55737E-02-5.29088E+00-1.12954E-03-2.24404E-02-3.12325E+00-4.31827E-03 5.07286E-02-3.85490E-02 4.79640E+01-2.20754E+01 2.04762E+00



 n o d a l   p r i n t   o u t   f o r   t i m e  s t e p    3401                              ( at time 1.6998299E+00 )

 nodal point  x-rot      y-rot       z-rot       x-rot vel   y-rot vel   z-rot vel   x-rot acc   y-rot acc   z-rot acc
    22626  3.01463E-07 5.29927E-05 9.04294E-05-3.76936E-06 2.97852E-05 4.77927E-05-2.24803E-05-2.81386E-05-6.21502E-07



 n o d a l   p r i n t   o u t   f o r   t i m e  s t e p    3601                              ( at time 1.7998199E+00 )

 nodal point  x-disp     y-disp      z-disp      x-vel       y-vel       z-vel      x-accl      y-accl      z-accl      x-coor      y-coor      z-coor
    22626 -3.12543E-04-4.75644E-02-5.60339E+00-1.32600E-03-1.77184E-02-3.12732E+00-1.96487E-03 4.72249E-02-4.06354E-02 4.79639E+01-2.20774E+01 1.73511E+00



 n o d a l   p r i n t   o u t   f o r   t i m e  s t e p    3601                              ( at time 1.7998199E+00 )

 nodal point  x-rot      y-rot       z-rot       x-rot vel   y-rot vel   z-rot vel   x-rot acc   y-rot acc   z-rot acc
    22626  1.54489E-07 5.57822E-05 9.51892E-05-4.49016E-07 2.14559E-05 4.21271E-05 3.32068E-05-8.33012E-05-5.66623E-05



 n o d a l   p r i n t   o u t   f o r   t i m e  s t e p    3801                              ( at time 1.8998099E+00 )

 nodal point  x-disp     y-disp      z-disp      x-vel       y-vel       z-vel      x-accl      y-accl      z-accl      x-coor      y-coor      z-coor
    22626 -5.00045E-04-4.92023E-02-5.91621E+00-2.16293E-03-1.51663E-02-3.12982E+00-8.37012E-03 2.55239E-02-2.50293E-02 4.79637E+01-2.20790E+01 1.42229E+00



 n o d a l   p r i n t   o u t   f o r   t i m e  s t e p    3801                              ( at time 1.8998099E+00 )

 nodal point  x-rot      y-rot       z-rot       x-rot vel   y-rot vel   z-rot vel   x-rot acc   y-rot acc   z-rot acc
    22626 -9.12760E-08 5.76810E-05 9.86051E-05 1.57420E-06 1.54102E-05 2.73568E-05 2.02342E-05-6.04629E-05-1.47718E-04



 n o d a l   p r i n t   o u t   f o r   t i m e  s t e p    4001                              ( at time 1.9997999E+00 )

 nodal point  x-disp     y-disp      z-disp      x-vel       y-vel       z-vel      x-accl      y-accl      z-accl      x-coor      y-coor      z-coor
    22626 -6.73652E-04-5.05926E-02-6.22929E+00-1.64792E-03-1.28106E-02-3.13210E+00 5.15060E-03 2.35597E-02-2.28213E-02 4.79635E+01-2.20804E+01 1.10922E+00



 n o d a l   p r i n t   o u t   f o r   t i m e  s t e p    4001                              ( at time 1.9997999E+00 )

 nodal point  x-rot      y-rot       z-rot       x-rot vel   y-rot vel   z-rot vel   x-rot acc   y-rot acc   z-rot acc
    22626  1.14640E-07 5.90153E-05 1.00914E-04 3.38083E-06 1.32325E-05 2.02539E-05 1.80681E-05-2.17789E-05-7.10361E-05



 n o d a l   p r i n t   o u t   f o r   t i m e  s t e p    4201                              ( at time 2.0997899E+00 )

 nodal point  x-disp     y-disp      z-disp      x-vel       y-vel       z-vel      x-accl      y-accl      z-accl      x-coor      y-coor      z-coor
    22626 -8.42777E-04-5.16837E-02-6.54262E+00-1.86149E-03-9.15594E-03-3.13518E+00-2.13591E-03 3.65499E-02-3.07901E-02 4.79633E+01-2.20815E+01 7.95878E-01



 n o d a l   p r i n t   o u t   f o r   t i m e  s t e p    4201                              ( at time 2.0997899E+00 )

 nodal point  x-rot      y-rot       z-rot       x-rot vel   y-rot vel   z-rot vel   x-rot acc   y-rot acc   z-rot acc
    22626  3.99314E-07 5.96605E-05 1.02005E-04-1.42491E-06 3.34016E-06 1.48684E-06-4.80621E-05-9.89337E-05-1.87689E-04



 n o d a l   p r i n t   o u t   f o r   t i m e  s t e p    4401                              ( at time 2.1997798E+00 )

 nodal point  x-disp     y-disp      z-disp      x-vel       y-vel       z-vel      x-accl      y-accl      z-accl      x-coor      y-coor      z-coor
    22626 -1.08484E-03-5.23704E-02-6.85629E+00-2.77431E-03-4.41388E-03-3.13894E+00-9.12907E-03 4.74254E-02-3.76644E-02 4.79631E+01-2.20822E+01 4.82213E-01



 n o d a l   p r i n t   o u t   f o r   t i m e  s t e p    4401                              ( at time 2.1997798E+00 )

 nodal point  x-rot      y-rot       z-rot       x-rot vel   y-rot vel   z-rot vel   x-rot acc   y-rot acc   z-rot acc
    22626  2.20844E-07 5.96512E-05 1.01935E-04-1.20448E-06-2.10601E-06-3.05029E-06 2.20449E-06-5.44671E-05-4.53758E-05



 n o d a l   p r i n t   o u t   f o r   t i m e  s t e p    4601                              ( at time 2.2997698E+00 )

 nodal point  x-disp     y-disp      z-disp      x-vel       y-vel       z-vel      x-accl      y-accl      z-accl      x-coor      y-coor      z-coor
    22626 -1.39396E-03-5.25656E-02-7.17034E+00-3.50877E-03-8.57422E-05-3.14228E+00-7.34534E-03 4.32856E-02-3.33127E-02 4.79628E+01-2.20824E+01 1.68164E-01



 n o d a l   p r i n t   o u t   f o r   t i m e  s t e p    4601                              ( at time 2.2997698E+00 )

 nodal point  x-rot      y-rot       z-rot       x-rot vel   y-rot vel   z-rot vel   x-rot acc   y-rot acc   z-rot acc
    22626 -1.69636E-07 5.93377E-05 1.01561E-04-4.55677E-06-9.71986E-06-1.28637E-05-3.35262E-05-7.61461E-05-9.81441E-05



 n o d a l   p r i n t   o u t   f o r   t i m e  s t e p    4801                              ( at time 2.3997598E+00 )

 nodal point  x-disp     y-disp      z-disp      x-vel       y-vel       z-vel      x-accl      y-accl      z-accl      x-coor      y-coor      z-coor
    22626 -1.76287E-03-5.24788E-02-7.48463E+00-3.61159E-03 1.86762E-03-3.14440E+00-1.02837E-03 1.95356E-02-2.12142E-02 4.79624E+01-2.20823E+01-1.46134E-01



 n o d a l   p r i n t   o u t   f o r   t i m e  s t e p    4801                              ( at time 2.3997598E+00 )

 nodal point  x-rot      y-rot       z-rot       x-rot vel   y-rot vel   z-rot vel   x-rot acc   y-rot acc   z-rot acc
    22626 -7.18903E-07 5.80739E-05 9.90765E-05-6.00962E-06-1.61803E-05-3.37934E-05-1.45300E-05-6.46112E-05-2.09318E-04



 n o d a l   p r i n t   o u t   f o r   t i m e  s t e p    5001                              ( at time 2.4997498E+00 )

 nodal point  x-disp     y-disp      z-disp      x-vel       y-vel       z-vel      x-accl      y-accl      z-accl      x-coor      y-coor      z-coor
    22626 -2.15592E-03-5.21713E-02-7.79916E+00-4.24901E-03 4.96473E-03-3.14711E+00-6.37482E-03 3.09741E-02-2.70894E-02 4.79620E+01-2.20820E+01-4.60660E-01



 n o d a l   p r i n t   o u t   f o r   t i m e  s t e p    5001                              ( at time 2.4997498E+00 )

 nodal point  x-rot      y-rot       z-rot       x-rot vel   y-rot vel   z-rot vel   x-rot acc   y-rot acc   z-rot acc
    22626 -1.16891E-06 5.58392E-05 9.51094E-05-4.10417E-06-2.63358E-05-4.86458E-05 1.90564E-05-1.01565E-04-1.48539E-04



 n o d a l   p r i n t   o u t   f o r   t i m e  s t e p    5201                              ( at time 2.5997398E+00 )

 nodal point  x-disp     y-disp      z-disp      x-vel       y-vel       z-vel      x-accl      y-accl      z-accl      x-coor      y-coor      z-coor
    22626 -2.63030E-03-5.14569E-02-8.11403E+00-5.26355E-03 9.26791E-03-3.15070E+00-1.01463E-02 4.30361E-02-3.59047E-02 4.79615E+01-2.20812E+01-7.75525E-01



 n o d a l   p r i n t   o u t   f o r   t i m e  s t e p    5201                              ( at time 2.5997398E+00 )

 nodal point  x-rot      y-rot       z-rot       x-rot vel   y-rot vel   z-rot vel   x-rot acc   y-rot acc   z-rot acc
    22626 -1.54250E-06 5.27359E-05 8.96688E-05-4.80463E-06-3.58047E-05-6.22666E-05-7.00528E-06-9.46987E-05-1.36221E-04



 n o d a l   p r i n t   o u t   f o r   t i m e  s t e p    5401                              ( at time 2.6997298E+00 )

 nodal point  x-disp     y-disp      z-disp      x-vel       y-vel       z-vel      x-accl      y-accl      z-accl      x-coor      y-coor      z-coor
    22626 -3.20017E-03-5.03223E-02-8.42924E+00-6.43479E-03 1.29761E-02-3.15421E+00-1.17136E-02 3.70861E-02-3.51583E-02 4.79610E+01-2.20801E+01-1.09074E+00



 n o d a l   p r i n t   o u t   f o r   t i m e  s t e p    5401                              ( at time 2.6997298E+00 )

 nodal point  x-rot      y-rot       z-rot       x-rot vel   y-rot vel   z-rot vel   x-rot acc   y-rot acc   z-rot acc
    22626 -1.84322E-06 4.89857E-05 8.31619E-05-1.86554E-06-4.13532E-05-6.69192E-05 2.93938E-05-5.54907E-05-4.65308E-05



 n o d a l   p r i n t   o u t   f o r   t i m e  s t e p    5601                              ( at time 2.7997198E+00 )

 nodal point  x-disp     y-disp      z-disp      x-vel       y-vel       z-vel      x-accl      y-accl      z-accl      x-coor      y-coor      z-coor
    22626 -3.91416E-03-4.88979E-02-8.74475E+00-7.68583E-03 1.51502E-02-3.15635E+00-1.25117E-02 2.17422E-02-2.13692E-02 4.79603E+01-2.20787E+01-1.40625E+00



 n o d a l   p r i n t   o u t   f o r   t i m e  s t e p    5601                              ( at time 2.7997198E+00 )

 nodal point  x-rot      y-rot       z-rot       x-rot vel   y-rot vel   z-rot vel   x-rot acc   y-rot acc   z-rot acc
    22626 -1.97947E-06 4.40883E-05 7.50518E-05 3.02100E-07-5.74496E-05-9.86475E-05 2.16786E-05-1.60980E-04-3.17315E-04



 n o d a l   p r i n t   o u t   f o r   t i m e  s t e p    5801                              ( at time 2.8997098E+00 )

 nodal point  x-disp     y-disp      z-disp      x-vel       y-vel       z-vel      x-accl      y-accl      z-accl      x-coor      y-coor      z-coor
    22626 -4.68609E-03-4.73295E-02-9.06044E+00-7.82337E-03 1.61416E-02-3.15804E+00-1.37553E-03 9.91565E-03-1.69366E-02 4.79595E+01-2.20771E+01-1.72194E+00



 n o d a l   p r i n t   o u t   f o r   t i m e  s t e p    5801                              ( at time 2.8997098E+00 )

 nodal point  x-rot      y-rot       z-rot       x-rot vel   y-rot vel   z-rot vel   x-rot acc   y-rot acc   z-rot acc
    22626 -1.78415E-06 3.76485E-05 6.41392E-05 2.33567E-06-6.64636E-05-1.15337E-04 2.03378E-05-9.01489E-05-1.66915E-04



 n o d a l   p r i n t   o u t   f o r   t i m e  s t e p    6001                              ( at time 2.9996998E+00 )

 nodal point  x-disp     y-disp      z-disp      x-vel       y-vel       z-vel      x-accl      y-accl      z-accl      x-coor      y-coor      z-coor
    22626 -5.50685E-03-4.55978E-02-9.37632E+00-8.82783E-03 1.86357E-02-3.16040E+00-1.00456E-02 2.49435E-02-2.36368E-02 4.79587E+01-2.20754E+01-2.03782E+00



 n o d a l   p r i n t   o u t   f o r   t i m e  s t e p    6001                              ( at time 2.9996998E+00 )

 nodal point  x-rot      y-rot       z-rot       x-rot vel   y-rot vel   z-rot vel   x-rot acc   y-rot acc   z-rot acc
    22626 -1.55303E-06 3.07847E-05 5.25715E-05 5.08512E-07-7.09121E-05-1.20921E-04-1.82734E-05-4.44894E-05-5.58406E-05



 n o d a l   p r i n t   o u t   f o r   t i m e  s t e p    6201                              ( at time 3.0996898E+00 )

 nodal point  x-disp     y-disp      z-disp      x-vel       y-vel       z-vel      x-accl      y-accl      z-accl      x-coor      y-coor      z-coor
    22626 -6.47233E-03-4.36167E-02-9.69244E+00-1.04087E-02 2.05586E-02-3.16240E+00-1.58101E-02 1.92306E-02-1.99720E-02 4.79577E+01-2.20734E+01-2.35394E+00



 n o d a l   p r i n t   o u t   f o r   t i m e  s t e p    6201                              ( at time 3.0996898E+00 )

 nodal point  x-rot      y-rot       z-rot       x-rot vel   y-rot vel   z-rot vel   x-rot acc   y-rot acc   z-rot acc
    22626 -1.60347E-06 2.34235E-05 3.99375E-05-1.93272E-06-7.57760E-05-1.33453E-04-2.44148E-05-4.86445E-05-1.25332E-04



 n o d a l   p r i n t   o u t   f o r   t i m e  s t e p    6401                              ( at time 3.1996798E+00 )

 nodal point  x-disp     y-disp      z-disp      x-vel       y-vel       z-vel      x-accl      y-accl      z-accl      x-coor      y-coor      z-coor
    22626 -7.54384E-03-4.15859E-02-1.00087E+01-1.09268E-02 1.97677E-02-3.16298E+00-5.18183E-03-7.90924E-03-5.79891E-03 4.79566E+01-2.20714E+01-2.67019E+00



 n o d a l   p r i n t   o u t   f o r   t i m e  s t e p    6401                              ( at time 3.1996798E+00 )

 nodal point  x-rot      y-rot       z-rot       x-rot vel   y-rot vel   z-rot vel   x-rot acc   y-rot acc   z-rot acc
    22626 -1.73705E-06 1.53484E-05 2.63356E-05-1.54325E-06-8.52701E-05-1.43927E-04 3.89503E-06-9.49501E-05-1.04756E-04



 n o d a l   p r i n t   o u t   f o r   t i m e  s t e p    6601                              ( at time 3.2996698E+00 )

 nodal point  x-disp     y-disp      z-disp      x-vel       y-vel       z-vel      x-accl      y-accl      z-accl      x-coor      y-coor      z-coor
    22626 -8.64985E-03-3.97063E-02-1.03249E+01-1.11934E-02 1.78256E-02-3.16269E+00-2.66654E-03-1.94239E-02 2.90662E-03 4.79555E+01-2.20695E+01-2.98644E+00



 n o d a l   p r i n t   o u t   f o r   t i m e  s t e p    6601                              ( at time 3.2996698E+00 )

 nodal point  x-rot      y-rot       z-rot       x-rot vel   y-rot vel   z-rot vel   x-rot acc   y-rot acc   z-rot acc
    22626 -2.00398E-06 6.65486E-06 1.15768E-05-2.43791E-06-8.94360E-05-1.51595E-04-8.94750E-06-4.16627E-05-7.66824E-05



 n o d a l   p r i n t   o u t   f o r   t i m e  s t e p    6801                              ( at time 3.3996598E+00 )

 nodal point  x-disp     y-disp      z-disp      x-vel       y-vel       z-vel      x-accl      y-accl      z-accl      x-coor      y-coor      z-coor
    22626 -9.80018E-03-3.80152E-02-1.06412E+01-1.17059E-02 1.60341E-02-3.16262E+00-5.12541E-03-1.79161E-02 6.96251E-04 4.79544E+01-2.20678E+01-3.30268E+00



 n o d a l   p r i n t   o u t   f o r   t i m e  s t e p    6801                              ( at time 3.3996598E+00 )

 nodal point  x-rot      y-rot       z-rot       x-rot vel   y-rot vel   z-rot vel   x-rot acc   y-rot acc   z-rot acc
    22626 -2.05247E-06-2.23654E-06-3.71874E-06-2.61050E-06-8.81767E-05-1.53252E-04-1.72599E-06 1.25941E-05-1.65700E-05



 n o d a l   p r i n t   o u t   f o r   t i m e  s t e p    7001                              ( at time 3.4996498E+00 )

 nodal point  x-disp     y-disp      z-disp      x-vel       y-vel       z-vel      x-accl      y-accl      z-accl      x-coor      y-coor      z-coor
    22626 -1.09980E-02-3.64852E-02-1.09574E+01-1.23326E-02 1.44943E-02-3.16282E+00-6.26725E-03-1.53999E-02-1.93854E-03 4.79532E+01-2.20663E+01-3.61892E+00



 n o d a l   p r i n t   o u t   f o r   t i m e  s t e p    7001                              ( at time 3.4996498E+00 )

 nodal point  x-rot      y-rot       z-rot       x-rot vel   y-rot vel   z-rot vel   x-rot acc   y-rot acc   z-rot acc
    22626 -2.04326E-06-1.08994E-05-1.85512E-05 6.76535E-07-8.72812E-05-1.47492E-04 3.28736E-05 8.95608E-06 5.76024E-05



 n o d a l   p r i n t   o u t   f o r   t i m e  s t e p    7201                              ( at time 3.5996397E+00 )

 nodal point  x-disp     y-disp      z-disp      x-vel       y-vel       z-vel      x-accl      y-accl      z-accl      x-coor      y-coor      z-coor
    22626 -1.22524E-02-3.51424E-02-1.12737E+01-1.24148E-02 1.20910E-02-3.16260E+00-8.21985E-04-2.40353E-02 2.13168E-03 4.79519E+01-2.20649E+01-3.93517E+00



 n o d a l   p r i n t   o u t   f o r   t i m e  s t e p    7201                              ( at time 3.5996397E+00 )

 nodal point  x-rot      y-rot       z-rot       x-rot vel   y-rot vel   z-rot vel   x-rot acc   y-rot acc   z-rot acc
    22626 -2.05201E-06-1.95228E-05-3.30311E-05 2.04475E-06-8.47959E-05-1.38815E-04 1.36836E-05 2.48550E-05 8.67794E-05



 n o d a l   p r i n t   o u t   f o r   t i m e  s t e p    7401                              ( at time 3.6996297E+00 )

 nodal point  x-disp     y-disp      z-disp      x-vel       y-vel       z-vel      x-accl      y-accl      z-accl      x-coor      y-coor      z-coor
    22626 -1.34823E-02-3.40990E-02-1.15898E+01-1.21510E-02 8.70229E-03-3.16159E+00 2.63809E-03-3.38905E-02 1.01219E-02 4.79507E+01-2.20639E+01-4.25135E+00



 n o d a l   p r i n t   o u t   f o r   t i m e  s t e p    7401                              ( at time 3.6996297E+00 )

 nodal point  x-rot      y-rot       z-rot       x-rot vel   y-rot vel   z-rot vel   x-rot acc   y-rot acc   z-rot acc
    22626 -1.79571E-06-2.78111E-05-4.68274E-05 3.84280E-06-8.13319E-05-1.36418E-04 1.79823E-05 3.46434E-05 2.39758E-05



 n o d a l   p r i n t   o u t   f o r   t i m e  s t e p    7601                              ( at time 3.7996197E+00 )

 nodal point  x-disp     y-disp      z-disp      x-vel       y-vel       z-vel      x-accl      y-accl      z-accl      x-coor      y-coor      z-coor
    22626 -1.46673E-02-3.33660E-02-1.19059E+01-1.15870E-02 6.00477E-03-3.16088E+00 5.64016E-03-2.69780E-02 7.10321E-03 4.79495E+01-2.20632E+01-4.56744E+00



 n o d a l   p r i n t   o u t   f o r   t i m e  s t e p    7601                              ( at time 3.7996197E+00 )

 nodal point  x-rot      y-rot       z-rot       x-rot vel   y-rot vel   z-rot vel   x-rot acc   y-rot acc   z-rot acc
    22626 -1.33170E-06-3.56278E-05-6.00988E-05 5.22200E-06-7.24009E-05-1.21882E-04 1.37933E-05 8.93195E-05 1.45366E-04



 n o d a l   p r i n t   o u t   f o r   t i m e  s t e p    7801                              ( at time 3.8996097E+00 )

 nodal point  x-disp     y-disp      z-disp      x-vel       y-vel       z-vel      x-accl      y-accl      z-accl      x-coor      y-coor      z-coor
    22626 -1.57946E-02-3.28652E-02-1.22220E+01-1.09344E-02 4.22293E-03-3.16081E+00 6.52754E-03-1.78201E-02 7.12942E-04 4.79484E+01-2.20627E+01-4.88348E+00



 n o d a l   p r i n t   o u t   f o r   t i m e  s t e p    7801                              ( at time 3.8996097E+00 )

 nodal point  x-rot      y-rot       z-rot       x-rot vel   y-rot vel   z-rot vel   x-rot acc   y-rot acc   z-rot acc
    22626 -9.69698E-07-4.22295E-05-7.12171E-05 5.97721E-07-5.76828E-05-9.61914E-05-4.62473E-05 1.47195E-04 2.56936E-04



 n o d a l   p r i n t   o u t   f o r   t i m e  s t e p    8001                              ( at time 3.9995997E+00 )

 nodal point  x-disp     y-disp      z-disp      x-vel       y-vel       z-vel      x-accl      y-accl      z-accl      x-coor      y-coor      z-coor
    22626 -1.68624E-02-3.24948E-02-1.25381E+01-1.03847E-02 3.14426E-03-3.16114E+00 5.49663E-03-1.07878E-02-3.30482E-03 4.79473E+01-2.20623E+01-5.19956E+00



 n o d a l   p r i n t   o u t   f o r   t i m e  s t e p    8001                              ( at time 3.9995997E+00 )

 nodal point  x-rot      y-rot       z-rot       x-rot vel   y-rot vel   z-rot vel   x-rot acc   y-rot acc   z-rot acc
    22626 -8.39706E-07-4.74796E-05-7.99040E-05-1.91301E-07-4.66669E-05-7.98542E-05-7.89101E-06 1.10170E-04 1.63389E-04



 n o d a l   p r i n t   o u t   f o r   t i m e  s t e p    8201                              ( at time 4.0995897E+00 )

 nodal point  x-disp     y-disp      z-disp      x-vel       y-vel       z-vel      x-accl      y-accl      z-accl      x-coor      y-coor      z-coor
    22626 -1.78190E-02-3.22953E-02-1.28541E+01-8.59770E-03 6.40393E-04-3.16064E+00 1.78722E-02-2.50412E-02 5.01444E-03 4.79464E+01-2.20621E+01-5.51561E+00



 n o d a l   p r i n t   o u t   f o r   t i m e  s t e p    8201                              ( at time 4.0995897E+00 )

 nodal point  x-rot      y-rot       z-rot       x-rot vel   y-rot vel   z-rot vel   x-rot acc   y-rot acc   z-rot acc
    22626 -8.47129E-07-5.16091E-05-8.68777E-05-2.17227E-07-3.22354E-05-5.65827E-05-2.59290E-07 1.44328E-04 2.32738E-04



 n o d a l   p r i n t   o u t   f o r   t i m e  s t e p    8401                              ( at time 4.1995797E+00 )

 nodal point  x-disp     y-disp      z-disp      x-vel       y-vel       z-vel      x-accl      y-accl      z-accl      x-coor      y-coor      z-coor
    22626 -1.86001E-02-3.23577E-02-1.31701E+01-6.97389E-03-1.79159E-03-3.16004E+00 1.62397E-02-2.43223E-02 5.95153E-03 4.79456E+01-2.20621E+01-5.83161E+00



 n o d a l   p r i n t   o u t   f o r   t i m e  s t e p    8401                              ( at time 4.1995797E+00 )

 nodal point  x-rot      y-rot       z-rot       x-rot vel   y-rot vel   z-rot vel   x-rot acc   y-rot acc   z-rot acc
    22626 -8.32843E-07-5.39862E-05-9.08286E-05-2.42248E-07-1.41528E-05-2.30436E-05-2.50228E-07 1.80845E-04 3.35425E-04



 n o d a l   p r i n t   o u t   f o r   t i m e  s t e p    8601                              ( at time 4.2995697E+00 )

 nodal point  x-disp     y-disp      z-disp      x-vel       y-vel       z-vel      x-accl      y-accl      z-accl      x-coor      y-coor      z-coor
    22626 -1.92332E-02-3.26562E-02-1.34861E+01-5.56256E-03-3.88064E-03-3.15987E+00 1.41147E-02-2.08926E-02 1.67625E-03 4.79449E+01-2.20624E+01-6.14757E+00



 n o d a l   p r i n t   o u t   f o r   t i m e  s t e p    8601                              ( at time 4.2995697E+00 )

 nodal point  x-rot      y-rot       z-rot       x-rot vel   y-rot vel   z-rot vel   x-rot acc   y-rot acc   z-rot acc
    22626 -8.53614E-07-5.44251E-05-9.16825E-05-4.06582E-07 2.80473E-06 4.50021E-06-1.64351E-06 1.69592E-04 2.75466E-04



 n o d a l   p r i n t   o u t   f o r   t i m e  s t e p    8801                              ( at time 4.3995597E+00 )

 nodal point  x-disp     y-disp      z-disp      x-vel       y-vel       z-vel      x-accl      y-accl      z-accl      x-coor      y-coor      z-coor
    22626 -1.96996E-02-3.30848E-02-1.38021E+01-3.80978E-03-4.73874E-03-3.16048E+00 1.75296E-02-8.58184E-03-6.00637E-03 4.79445E+01-2.20629E+01-6.46355E+00



 n o d a l   p r i n t   o u t   f o r   t i m e  s t e p    8801                              ( at time 4.3995597E+00 )

 nodal point  x-rot      y-rot       z-rot       x-rot vel   y-rot vel   z-rot vel   x-rot acc   y-rot acc   z-rot acc
    22626 -8.30024E-07-5.31466E-05-8.93627E-05 7.65955E-07 2.21712E-05 3.99597E-05 1.17266E-05 1.93685E-04 3.54631E-04



 n o d a l   p r i n t   o u t   f o r   t i m e  s t e p    9001                              ( at time 4.4995497E+00 )

 nodal point  x-disp     y-disp      z-disp      x-vel       y-vel       z-vel      x-accl      y-accl      z-accl      x-coor      y-coor      z-coor
    22626 -1.99972E-02-3.36541E-02-1.41181E+01-2.05065E-03-6.99533E-03-3.16009E+00 1.75930E-02-2.25681E-02 3.84845E-03 4.79442E+01-2.20634E+01-6.77956E+00



 n o d a l   p r i n t   o u t   f o r   t i m e  s t e p    9001                              ( at time 4.4995497E+00 )

 nodal point  x-rot      y-rot       z-rot       x-rot vel   y-rot vel   z-rot vel   x-rot acc   y-rot acc   z-rot acc
    22626 -6.93901E-07-4.96839E-05-8.32582E-05 3.43950E-06 4.38655E-05 7.64964E-05 2.67380E-05 2.16964E-04 3.65402E-04



 n o d a l   p r i n t   o u t   f o r   t i m e  s t e p    9201                              ( at time 4.5995397E+00 )

 nodal point  x-disp     y-disp      z-disp      x-vel       y-vel       z-vel      x-accl      y-accl      z-accl      x-coor      y-coor      z-coor
    22626 -2.01080E-02-3.45078E-02-1.44340E+01-1.24411E-04-9.88880E-03-3.15951E+00 1.92643E-02-2.89375E-02 5.80131E-03 4.79441E+01-2.20643E+01-7.09550E+00



 n o d a l   p r i n t   o u t   f o r   t i m e  s t e p    9201                              ( at time 4.5995397E+00 )

 nodal point  x-rot      y-rot       z-rot       x-rot vel   y-rot vel   z-rot vel   x-rot acc   y-rot acc   z-rot acc
    22626 -3.87322E-07-4.44642E-05-7.41456E-05 4.13890E-06 5.98838E-05 1.02710E-04 6.99465E-06 1.60199E-04 2.62162E-04



 n o d a l   p r i n t   o u t   f o r   t i m e  s t e p    9401                              ( at time 4.6995297E+00 )

 nodal point  x-disp     y-disp      z-disp      x-vel       y-vel       z-vel      x-accl      y-accl      z-accl      x-coor      y-coor      z-coor
    22626 -2.00035E-02-3.55779E-02-1.47499E+01 2.11956E-03-1.14994E-02-3.15936E+00 2.24419E-02-1.61077E-02 1.49265E-03 4.79442E+01-2.20654E+01-7.41141E+00



 n o d a l   p r i n t   o u t   f o r   t i m e  s t e p    9401                              ( at time 4.6995297E+00 )

 nodal point  x-rot      y-rot       z-rot       x-rot vel   y-rot vel   z-rot vel   x-rot acc   y-rot acc   z-rot acc
    22626 -1.23565E-08-3.73120E-05-6.17116E-05 2.75520E-06 8.46647E-05 1.45686E-04-1.38384E-05 2.47834E-04 4.29805E-04



 n o d a l   p r i n t   o u t   f o r   t i m e  s t e p    9601                              ( at time 4.7995197E+00 )

 nodal point  x-disp     y-disp      z-disp      x-vel       y-vel       z-vel      x-accl      y-accl      z-accl      x-coor      y-coor      z-coor
    22626 -1.96923E-02-3.67995E-02-1.50658E+01 4.00515E-03-1.27502E-02-3.15961E+00 1.88579E-02-1.25097E-02-2.50365E-03 4.79445E+01-2.20666E+01-7.72732E+00



 n o d a l   p r i n t   o u t   f o r   t i m e  s t e p    9601                              ( at time 4.7995197E+00 )

 nodal point  x-rot      y-rot       z-rot       x-rot vel   y-rot vel   z-rot vel   x-rot acc   y-rot acc   z-rot acc
    22626  2.85961E-07-2.76009E-05-4.50661E-05-2.78405E-07 1.09425E-04 1.87550E-04-3.03391E-05 2.47625E-04 4.18677E-04



 n o d a l   p r i n t   o u t   f o r   t i m e  s t e p    9801                              ( at time 4.8995097E+00 )

 nodal point  x-disp     y-disp      z-disp      x-vel       y-vel       z-vel      x-accl      y-accl      z-accl      x-coor      y-coor      z-coor
    22626 -1.92028E-02-3.81257E-02-1.53818E+01 5.78369E-03-1.38654E-02-3.15986E+00 1.77871E-02-1.11529E-02-2.47742E-03 4.79450E+01-2.20679E+01-8.04327E+00



 n o d a l   p r i n t   o u t   f o r   t i m e  s t e p    9801                              ( at time 4.8995097E+00 )

 nodal point  x-rot      y-rot       z-rot       x-rot vel   y-rot vel   z-rot vel   x-rot acc   y-rot acc   z-rot acc
    22626  3.09296E-07-1.57633E-05-2.47112E-05-9.34985E-07 1.26250E-04 2.16639E-04-6.56647E-06 1.68274E-04 2.90921E-04



 n o d a l   p r i n t   o u t   f o r   t i m e  s t e p   10001                              ( at time 4.9994997E+00 )

 nodal point  x-disp     y-disp      z-disp      x-vel       y-vel       z-vel      x-accl      y-accl      z-accl      x-coor      y-coor      z-coor
    22626 -1.85098E-02-3.96041E-02-1.56977E+01 8.02343E-03-1.57792E-02-3.15969E+00 2.23995E-02-1.91393E-02 1.66432E-03 4.79457E+01-2.20694E+01-8.35922E+00



 n o d a l   p r i n t   o u t   f o r   t i m e  s t e p   10001                              ( at time 4.9994997E+00 )

 nodal point  x-rot      y-rot       z-rot       x-rot vel   y-rot vel   z-rot vel   x-rot acc   y-rot acc   z-rot acc
    22626  1.95246E-07-2.21396E-06-1.47605E-06-7.14696E-07 1.44067E-04 2.47558E-04 2.20310E-06 1.78183E-04 3.09227E-04



 n o d a l   p r i n t   o u t   f o r   t i m e  s t e p   10202                              ( at time 5.0999896E+00 )

 nodal point  x-disp     y-disp      z-disp      x-vel       y-vel       z-vel      x-accl      y-accl      z-accl      x-coor      y-coor      z-coor
    22626 -1.75990E-02-4.12618E-02-1.60152E+01 1.00325E-02-1.70311E-02-3.15982E+00 1.99930E-02-1.24588E-02-1.23136E-03 4.79466E+01-2.20711E+01-8.67674E+00



 n o d a l   p r i n t   o u t   f o r   t i m e  s t e p   10202                              ( at time 5.0999896E+00 )

 nodal point  x-rot      y-rot       z-rot       x-rot vel   y-rot vel   z-rot vel   x-rot acc   y-rot acc   z-rot acc
    22626  5.88452E-08 1.34927E-05 2.52890E-05-2.79505E-06 1.65144E-04 2.82595E-04-2.07021E-05 2.09746E-04 3.48662E-04



 n o d a l   p r i n t   o u t   f o r   t i m e  s t e p   10402                              ( at time 5.1999796E+00 )

 nodal point  x-disp     y-disp      z-disp      x-vel       y-vel       z-vel      x-accl      y-accl      z-accl      x-coor      y-coor      z-coor
    22626 -1.65121E-02-4.29737E-02-1.63312E+01 1.17667E-02-1.70530E-02-3.16058E+00 1.73430E-02-2.18621E-04-7.60867E-03 4.79477E+01-2.20728E+01-8.99273E+00



 n o d a l   p r i n t   o u t   f o r   t i m e  s t e p   10402                              ( at time 5.1999796E+00 )

 nodal point  x-rot      y-rot       z-rot       x-rot vel   y-rot vel   z-rot vel   x-rot acc   y-rot acc   z-rot acc
    22626 -2.21777E-07 3.10229E-05 5.51829E-05-7.08240E-06 1.83770E-04 3.17273E-04-4.28777E-05 1.86271E-04 3.46808E-04



 n o d a l   p r i n t   o u t   f o r   t i m e  s t e p   10602                              ( at time 5.2999696E+00 )

 nodal point  x-disp     y-disp      z-disp      x-vel       y-vel       z-vel      x-accl      y-accl      z-accl      x-coor      y-coor      z-coor
    22626 -1.52678E-02-4.46466E-02-1.66472E+01 1.29779E-02-1.62788E-02-3.15951E+00 1.21139E-02 7.74285E-03 1.07085E-02 4.79489E+01-2.20744E+01-9.30872E+00



 n o d a l   p r i n t   o u t   f o r   t i m e  s t e p   10602                              ( at time 5.2999696E+00 )

 nodal point  x-rot      y-rot       z-rot       x-rot vel   y-rot vel   z-rot vel   x-rot acc   y-rot acc   z-rot acc
    22626 -9.51054E-07 5.11401E-05 8.78143E-05-3.99344E-06 2.19886E-04 3.34993E-04 3.08928E-05 3.61198E-04 1.77218E-04



 n o d a l   p r i n t   o u t   f o r   t i m e  s t e p   10802                              ( at time 5.3999596E+00 )

 nodal point  x-disp     y-disp      z-disp      x-vel       y-vel       z-vel      x-accl      y-accl      z-accl      x-coor      y-coor      z-coor
    22626 -1.39075E-02-4.62031E-02-1.69630E+01 1.43837E-02-1.50275E-02-3.15447E+00 1.40590E-02 1.25146E-02 5.03472E-02 4.79503E+01-2.20760E+01-9.62446E+00



 n o d a l   p r i n t   o u t   f o r   t i m e  s t e p   10802                              ( at time 5.3999596E+00 )

 nodal point  x-rot      y-rot       z-rot       x-rot vel   y-rot vel   z-rot vel   x-rot acc   y-rot acc   z-rot acc
    22626 -1.89943E-07 7.65483E-05 1.21852E-04 1.14944E-05 3.00579E-04 3.48273E-04 1.54894E-04 8.07017E-04 1.32816E-04



 n o d a l   p r i n t   o u t   f o r   t i m e  s t e p   11002                              ( at time 5.4999496E+00 )

 nodal point  x-disp     y-disp      z-disp      x-vel       y-vel       z-vel      x-accl      y-accl      z-accl      x-coor      y-coor      z-coor
    22626 -1.24001E-02-4.75600E-02-1.72779E+01 1.60607E-02-1.25577E-02-3.14394E+00 1.67719E-02 2.47000E-02 1.05308E-01 4.79518E+01-2.20774E+01-9.93939E+00



 n o d a l   p r i n t   o u t   f o r   t i m e  s t e p   11002                              ( at time 5.4999496E+00 )

 nodal point  x-rot      y-rot       z-rot       x-rot vel   y-rot vel   z-rot vel   x-rot acc   y-rot acc   z-rot acc
    22626  3.42460E-06 1.12465E-04 1.55734E-04 5.66433E-05 4.34415E-04 3.49529E-04 4.51535E-04 1.33849E-03 1.25622E-05



 n o d a l   p r i n t   o u t   f o r   t i m e  s t e p   11202                              ( at time 5.5999396E+00 )

 nodal point  x-disp     y-disp      z-disp      x-vel       y-vel       z-vel      x-accl      y-accl      z-accl      x-coor      y-coor      z-coor
    22626 -1.08093E-02-4.84964E-02-1.75915E+01 1.64571E-02-7.06624E-03-3.12937E+00 3.96435E-03 5.49201E-02 1.45715E-01 4.79534E+01-2.20783E+01-1.02530E+01



 n o d a l   p r i n t   o u t   f o r   t i m e  s t e p   11202                              ( at time 5.5999396E+00 )

 nodal point  x-rot      y-rot       z-rot       x-rot vel   y-rot vel   z-rot vel   x-rot acc   y-rot acc   z-rot acc
    22626  1.46575E-05 1.64056E-04 1.87118E-04 1.53059E-04 6.00924E-04 3.10421E-04 9.64252E-04 1.66526E-03-3.91124E-04



 n o d a l   p r i n t   o u t   f o r   t i m e  s t e p   11402                              ( at time 5.6999296E+00 )

 nodal point  x-disp     y-disp      z-disp      x-vel       y-vel       z-vel      x-accl      y-accl      z-accl      x-coor      y-coor      z-coor
    22626 -9.07160E-03-4.90042E-02-1.79034E+01 1.74829E-02-1.84462E-03-3.10800E+00 1.02586E-02 5.22213E-02 2.13725E-01 4.79551E+01-2.20788E+01-1.05649E+01



 n o d a l   p r i n t   o u t   f o r   t i m e  s t e p   11402                              ( at time 5.6999296E+00 )

 nodal point  x-rot      y-rot       z-rot       x-rot vel   y-rot vel   z-rot vel   x-rot acc   y-rot acc   z-rot acc
    22626  3.29156E-05 2.34856E-04 2.16661E-04 2.34347E-04 8.16593E-04 2.57720E-04 8.12963E-04 2.15690E-03-5.27057E-04



 n o d a l   p r i n t   o u t   f o r   t i m e  s t e p   11602                              ( at time 5.7999195E+00 )

 nodal point  x-disp     y-disp      z-disp      x-vel       y-vel       z-vel      x-accl      y-accl      z-accl      x-coor      y-coor      z-coor
    22626 -7.24421E-03-4.89283E-02-1.82132E+01 1.82650E-02 4.30340E-03-3.08605E+00 7.82213E-03 6.14864E-02 2.19539E-01 4.79569E+01-2.20787E+01-1.08747E+01



 n o d a l   p r i n t   o u t   f o r   t i m e  s t e p   11602                              ( at time 5.7999195E+00 )

 nodal point  x-rot      y-rot       z-rot       x-rot vel   y-rot vel   z-rot vel   x-rot acc   y-rot acc   z-rot acc
    22626  6.20626E-05 3.28012E-04 2.41450E-04 3.60425E-04 1.05891E-03 2.12081E-04 1.26091E-03 2.42345E-03-4.56439E-04



 n o d a l   p r i n t   o u t   f o r   t i m e  s t e p   11802                              ( at time 5.8999095E+00 )

 nodal point  x-disp     y-disp      z-disp      x-vel       y-vel       z-vel      x-accl      y-accl      z-accl      x-coor      y-coor      z-coor
    22626 -5.36324E-03-4.83246E-02-1.85204E+01 1.97857E-02 8.39205E-03-3.05869E+00 1.52085E-02 4.08906E-02 2.73639E-01 4.79588E+01-2.20781E+01-1.11819E+01



 n o d a l   p r i n t   o u t   f o r   t i m e  s t e p   11802                              ( at time 5.8999095E+00 )

 nodal point  x-rot      y-rot       z-rot       x-rot vel   y-rot vel   z-rot vel   x-rot acc   y-rot acc   z-rot acc
    22626  1.02386E-04 4.46918E-04 2.60624E-04 4.72404E-04 1.32941E-03 1.61766E-04 1.11990E-03 2.70525E-03-5.03196E-04



 n o d a l   p r i n t   o u t   f o r   t i m e  s t e p   12002                              ( at time 5.9998995E+00 )

 nodal point  x-disp     y-disp      z-disp      x-vel       y-vel       z-vel      x-accl      y-accl      z-accl      x-coor      y-coor      z-coor
    22626 -3.30241E-03-4.72351E-02-1.88247E+01 2.12335E-02 1.29928E-02-3.02845E+00 1.44797E-02 4.60124E-02 3.02457E-01 4.79609E+01-2.20770E+01-1.14862E+01



 n o d a l   p r i n t   o u t   f o r   t i m e  s t e p   12002                              ( at time 5.9998995E+00 )

 nodal point  x-rot      y-rot       z-rot       x-rot vel   y-rot vel   z-rot vel   x-rot acc   y-rot acc   z-rot acc
    22626  1.56159E-04 5.95219E-04 2.73043E-04 6.11440E-04 1.64151E-03 1.01488E-04 1.39050E-03 3.12125E-03-6.02840E-04



 n o d a l   p r i n t   o u t   f o r   t i m e  s t e p   12202                              ( at time 6.0998895E+00 )

 nodal point  x-disp     y-disp      z-disp      x-vel       y-vel       z-vel      x-accl      y-accl      z-accl      x-coor      y-coor      z-coor
    22626 -1.15852E-03-4.55426E-02-1.91259E+01 2.19627E-02 1.97492E-02-2.99648E+00 7.29236E-03 6.75707E-02 3.19745E-01 4.79630E+01-2.20753E+01-1.17874E+01



 n o d a l   p r i n t   o u t   f o r   t i m e  s t e p   12202                              ( at time 6.0998895E+00 )

 nodal point  x-rot      y-rot       z-rot       x-rot vel   y-rot vel   z-rot vel   x-rot acc   y-rot acc   z-rot acc
    22626  2.25160E-04 7.73346E-04 2.77464E-04 7.61245E-04 1.94007E-03 1.09375E-05 1.49819E-03 2.98592E-03-9.05596E-04



 n o d a l   p r i n t   o u t   f o r   t i m e  s t e p   12402                              ( at time 6.1998795E+00 )

 nodal point  x-disp     y-disp      z-disp      x-vel       y-vel       z-vel      x-accl      y-accl      z-accl      x-coor      y-coor      z-coor
    22626  1.08162E-03-4.32386E-02-1.94238E+01 2.27123E-02 2.63006E-02-2.96141E+00 7.49641E-03 6.55204E-02 3.50682E-01 4.79653E+01-2.20730E+01-1.20853E+01



 n o d a l   p r i n t   o u t   f o r   t i m e  s t e p   12402                              ( at time 6.1998795E+00 )

 nodal point  x-rot      y-rot       z-rot       x-rot vel   y-rot vel   z-rot vel   x-rot acc   y-rot acc   z-rot acc
    22626  3.09379E-04 9.84272E-04 2.73316E-04 9.12330E-04 2.26499E-03-9.19685E-05 1.51101E-03 3.24951E-03-1.02916E-03



 n o d a l   p r i n t   o u t   f o r   t i m e  s t e p   12602                              ( at time 6.2998695E+00 )

 nodal point  x-disp     y-disp      z-disp      x-vel       y-vel       z-vel      x-accl      y-accl      z-accl      x-coor      y-coor      z-coor
    22626  3.53369E-03-4.03655E-02-1.97183E+01 2.60016E-02 3.11881E-02-2.92646E+00 3.28966E-02 4.88799E-02 3.49526E-01 4.79677E+01-2.20702E+01-1.23798E+01



 n o d a l   p r i n t   o u t   f o r   t i m e  s t e p   12602                              ( at time 6.2998695E+00 )

 nodal point  x-rot      y-rot       z-rot       x-rot vel   y-rot vel   z-rot vel   x-rot acc   y-rot acc   z-rot acc
    22626  4.09276E-04 1.22636E-03 2.59591E-04 1.06030E-03 2.60903E-03-1.82197E-04 1.47981E-03 3.44076E-03-9.02379E-04



 n o d a l   p r i n t   o u t   f o r   t i m e  s t e p   12802                              ( at time 6.3998595E+00 )

 nodal point  x-disp     y-disp      z-disp      x-vel       y-vel       z-vel      x-accl      y-accl      z-accl      x-coor      y-coor      z-coor
    22626  6.26350E-03-3.69492E-02-2.00089E+01 2.89263E-02 3.78464E-02-2.88841E+00 2.92504E-02 6.65897E-02 3.80600E-01 4.79704E+01-2.20667E+01-1.26704E+01



 n o d a l   p r i n t   o u t   f o r   t i m e  s t e p   12802                              ( at time 6.3998595E+00 )

 nodal point  x-rot      y-rot       z-rot       x-rot vel   y-rot vel   z-rot vel   x-rot acc   y-rot acc   z-rot acc
    22626  5.24579E-04 1.50298E-03 2.35540E-04 1.23598E-03 2.91477E-03-2.94706E-04 1.75705E-03 3.05769E-03-1.12521E-03



 n o d a l   p r i n t   o u t   f o r   t i m e  s t e p   13002                              ( at time 6.4998495E+00 )

 nodal point  x-disp     y-disp      z-disp      x-vel       y-vel       z-vel      x-accl      y-accl      z-accl      x-coor      y-coor      z-coor
    22626  9.34985E-03-3.28432E-02-2.02958E+01 3.17876E-02 4.34658E-02-2.84921E+00 2.86154E-02 5.61996E-02 3.92019E-01 4.79735E+01-2.20626E+01-1.29573E+01



 n o d a l   p r i n t   o u t   f o r   t i m e  s t e p   13002                              ( at time 6.4998495E+00 )

 nodal point  x-rot      y-rot       z-rot       x-rot vel   y-rot vel   z-rot vel   x-rot acc   y-rot acc   z-rot acc
    22626  6.57156E-04 1.81282E-03 2.01998E-04 1.40296E-03 3.27353E-03-3.82066E-04 1.66994E-03 3.58803E-03-8.73679E-04



 n o d a l   p r i n t   o u t   f o r   t i m e  s t e p   13202                              ( at time 6.5998395E+00 )

 nodal point  x-disp     y-disp      z-disp      x-vel       y-vel       z-vel      x-accl      y-accl      z-accl      x-coor      y-coor      z-coor
    22626  1.28054E-02-2.81177E-02-2.05786E+01 3.66887E-02 5.17712E-02-2.80686E+00 4.90154E-02 8.30622E-02 4.23565E-01 4.79770E+01-2.20579E+01-1.32401E+01



 n o d a l   p r i n t   o u t   f o r   t i m e  s t e p   13202                              ( at time 6.5998395E+00 )

 nodal point  x-rot      y-rot       z-rot       x-rot vel   y-rot vel   z-rot vel   x-rot acc   y-rot acc   z-rot acc
    22626  8.05704E-04 2.15660E-03 1.57805E-04 1.57515E-03 3.60618E-03-5.19273E-04 1.72204E-03 3.32679E-03-1.37220E-03



 n o d a l   p r i n t   o u t   f o r   t i m e  s t e p   13402                              ( at time 6.6998295E+00 )

 nodal point  x-disp     y-disp      z-disp      x-vel       y-vel       z-vel      x-accl      y-accl      z-accl      x-coor      y-coor      z-coor
    22626  1.67736E-02-2.25717E-02-2.08571E+01 4.22456E-02 5.88463E-02-2.76331E+00 5.55755E-02 7.07576E-02 4.35542E-01 4.79810E+01-2.20524E+01-1.35186E+01



 n o d a l   p r i n t   o u t   f o r   t i m e  s t e p   13402                              ( at time 6.6998295E+00 )

 nodal point  x-rot      y-rot       z-rot       x-rot vel   y-rot vel   z-rot vel   x-rot acc   y-rot acc   z-rot acc
    22626  9.75144E-04 2.53412E-03 1.00715E-04 1.81501E-03 3.93146E-03-6.26104E-04 2.39891E-03 3.25313E-03-1.06843E-03



 n o d a l   p r i n t   o u t   f o r   t i m e  s t e p   13602                              ( at time 6.7998195E+00 )

 nodal point  x-disp     y-disp      z-disp      x-vel       y-vel       z-vel      x-accl      y-accl      z-accl      x-coor      y-coor      z-coor
    22626  2.13170E-02-1.63659E-02-2.11310E+01 4.95576E-02 6.55624E-02-2.71655E+00 7.31270E-02 6.71685E-02 4.67565E-01 4.79855E+01-2.20462E+01-1.37925E+01



 n o d a l   p r i n t   o u t   f o r   t i m e  s t e p   13602                              ( at time 6.7998195E+00 )

 nodal point  x-rot      y-rot       z-rot       x-rot vel   y-rot vel   z-rot vel   x-rot acc   y-rot acc   z-rot acc
    22626  1.16363E-03 2.94433E-03 3.18704E-05 1.99269E-03 4.27085E-03-7.43723E-04 1.77692E-03 3.39424E-03-1.17630E-03



 n o d a l   p r i n t   o u t   f o r   t i m e  s t e p   13802                              ( at time 6.8998095E+00 )

 nodal point  x-disp     y-disp      z-disp      x-vel       y-vel       z-vel      x-accl      y-accl      z-accl      x-coor      y-coor      z-coor
    22626  2.65165E-02-9.54748E-03-2.14003E+01 5.58851E-02 7.21915E-02-2.67051E+00 6.32816E-02 6.62973E-02 4.60438E-01 4.79907E+01-2.20393E+01-1.40618E+01



 n o d a l   p r i n t   o u t   f o r   t i m e  s t e p   13802                              ( at time 6.8998095E+00 )

 nodal point  x-rot      y-rot       z-rot       x-rot vel   y-rot vel   z-rot vel   x-rot acc   y-rot acc   z-rot acc
    22626  1.37237E-03 3.38787E-03-4.80781E-05 2.21467E-03 4.57364E-03-8.65404E-04 2.22004E-03 3.02823E-03-1.21694E-03



 n o d a l   p r i n t   o u t   f o r   t i m e  s t e p   14002                              ( at time 6.9997995E+00 )

 nodal point  x-disp     y-disp      z-disp      x-vel       y-vel       z-vel      x-accl      y-accl      z-accl      x-coor      y-coor      z-coor
    22626  3.24402E-02-1.90841E-03-2.16648E+01 6.31144E-02 8.01293E-02-2.61937E+00 7.22998E-02 7.93858E-02 5.11533E-01 4.79966E+01-2.20317E+01-1.43263E+01



 n o d a l   p r i n t   o u t   f o r   t i m e  s t e p   14002                              ( at time 6.9997995E+00 )

 nodal point  x-rot      y-rot       z-rot       x-rot vel   y-rot vel   z-rot vel   x-rot acc   y-rot acc   z-rot acc
    22626  1.60432E-03 3.86178E-03-1.40862E-04 2.42256E-03 4.90389E-03-9.97841E-04 2.07906E-03 3.30281E-03-1.32451E-03



 n o d a l   p r i n t   o u t   f o r   t i m e  s t e p   14202                              ( at time 7.0997895E+00 )

 nodal point  x-disp     y-disp      z-disp      x-vel       y-vel       z-vel      x-accl      y-accl      z-accl      x-coor      y-coor      z-coor
    22626  3.91167E-02 6.41688E-03-2.19242E+01 7.10334E-02 8.63841E-02-2.56740E+00 7.91976E-02 6.25543E-02 5.19719E-01 4.80033E+01-2.20234E+01-1.45857E+01



 n o d a l   p r i n t   o u t   f o r   t i m e  s t e p   14202                              ( at time 7.0997895E+00 )

 nodal point  x-rot      y-rot       z-rot       x-rot vel   y-rot vel   z-rot vel   x-rot acc   y-rot acc   z-rot acc
    22626  1.85852E-03 4.36782E-03-2.46870E-04 2.64797E-03 5.21963E-03-1.11683E-03 2.25440E-03 3.15771E-03-1.18997E-03



 n o d a l   p r i n t   o u t   f o r   t i m e  s t e p   14402                              ( at time 7.1997794E+00 )

 nodal point  x-disp     y-disp      z-disp      x-vel       y-vel       z-vel      x-accl      y-accl      z-accl      x-coor      y-coor      z-coor
    22626  4.66423E-02 1.53908E-02-2.21782E+01 7.95136E-02 9.22821E-02-2.51272E+00 8.48111E-02 5.89863E-02 5.46806E-01 4.80108E+01-2.20144E+01-1.48397E+01



 n o d a l   p r i n t   o u t   f o r   t i m e  s t e p   14402                              ( at time 7.1997794E+00 )

 nodal point  x-rot      y-rot       z-rot       x-rot vel   y-rot vel   z-rot vel   x-rot acc   y-rot acc   z-rot acc
    22626  2.13659E-03 4.90428E-03-3.65068E-04 2.89699E-03 5.52723E-03-1.23857E-03 2.49044E-03 3.07631E-03-1.21755E-03



 n o d a l   p r i n t   o u t   f o r   t i m e  s t e p   14602                              ( at time 7.2997694E+00 )

 nodal point  x-disp     y-disp      z-disp      x-vel       y-vel       z-vel      x-accl      y-accl      z-accl      x-coor      y-coor      z-coor
    22626  5.50313E-02 2.50728E-02-2.24265E+01 8.83334E-02 9.95598E-02-2.45621E+00 8.82063E-02 7.27839E-02 5.65195E-01 4.80192E+01-2.20047E+01-1.50880E+01



 n o d a l   p r i n t   o u t   f o r   t i m e  s t e p   14602                              ( at time 7.2997694E+00 )

 nodal point  x-rot      y-rot       z-rot       x-rot vel   y-rot vel   z-rot vel   x-rot acc   y-rot acc   z-rot acc
    22626  2.43920E-03 5.47367E-03-4.96105E-04 3.14932E-03 5.84250E-03-1.36529E-03 2.52350E-03 3.15302E-03-1.26736E-03



 n o d a l   p r i n t   o u t   f o r   t i m e  s t e p   14802                              ( at time 7.3997594E+00 )

 nodal point  x-disp     y-disp      z-disp      x-vel       y-vel       z-vel      x-accl      y-accl      z-accl      x-coor      y-coor      z-coor
    22626  6.43244E-02 3.53122E-02-2.26691E+01 9.72592E-02 1.06074E-01-2.39683E+00 8.92674E-02 6.51486E-02 5.93827E-01 4.80285E+01-2.19945E+01-1.53306E+01



 n o d a l   p r i n t   o u t   f o r   t i m e  s t e p   14802                              ( at time 7.3997594E+00 )

 nodal point  x-rot      y-rot       z-rot       x-rot vel   y-rot vel   z-rot vel   x-rot acc   y-rot acc   z-rot acc
    22626  2.76681E-03 6.07303E-03-6.38682E-04 3.40396E-03 6.13640E-03-1.51267E-03 2.54667E-03 2.93927E-03-1.47389E-03



 n o d a l   p r i n t   o u t   f o r   t i m e  s t e p   15002                              ( at time 7.4997494E+00 )

 nodal point  x-disp     y-disp      z-disp      x-vel       y-vel       z-vel      x-accl      y-accl      z-accl      x-coor      y-coor      z-coor
    22626  7.45764E-02 4.61851E-02-2.29058E+01 1.06942E-01 1.11441E-01-2.33795E+00 9.68363E-02 5.36797E-02 5.88867E-01 4.80388E+01-2.19836E+01-1.55673E+01



 n o d a l   p r i n t   o u t   f o r   t i m e  s t e p   15002                              ( at time 7.4997494E+00 )

 nodal point  x-rot      y-rot       z-rot       x-rot vel   y-rot vel   z-rot vel   x-rot acc   y-rot acc   z-rot acc
    22626  3.12069E-03 6.70085E-03-7.93022E-04 3.66169E-03 6.41161E-03-1.60513E-03 2.57752E-03 2.75240E-03-9.24756E-04



 n o d a l   p r i n t   o u t   f o r   t i m e  s t e p   15202                              ( at time 7.5997394E+00 )

 nodal point  x-disp     y-disp      z-disp      x-vel       y-vel       z-vel      x-accl      y-accl      z-accl      x-coor      y-coor      z-coor
    22626  8.57432E-02 5.75502E-02-2.31365E+01 1.16437E-01 1.16087E-01-2.27591E+00 9.49596E-02 4.64653E-02 6.20538E-01 4.80499E+01-2.19722E+01-1.57980E+01



 n o d a l   p r i n t   o u t   f o r   t i m e  s t e p   15202                              ( at time 7.5997394E+00 )

 nodal point  x-rot      y-rot       z-rot       x-rot vel   y-rot vel   z-rot vel   x-rot acc   y-rot acc   z-rot acc
    22626  3.50220E-03 7.35668E-03-9.58021E-04 3.94935E-03 6.70508E-03-1.70539E-03 2.87689E-03 2.93502E-03-1.00264E-03



 n o d a l   p r i n t   o u t   f o r   t i m e  s t e p   15402                              ( at time 7.6997294E+00 )

 nodal point  x-disp     y-disp      z-disp      x-vel       y-vel       z-vel      x-accl      y-accl      z-accl      x-coor      y-coor      z-coor
    22626  9.78148E-02 6.92863E-02-2.33609E+01 1.25954E-01 1.19302E-01-2.21229E+00 9.51809E-02 3.21449E-02 6.36187E-01 4.80620E+01-2.19605E+01-1.60224E+01



 n o d a l   p r i n t   o u t   f o r   t i m e  s t e p   15402                              ( at time 7.6997294E+00 )

 nodal point  x-rot      y-rot       z-rot       x-rot vel   y-rot vel   z-rot vel   x-rot acc   y-rot acc   z-rot acc
    22626  3.91193E-03 8.04098E-03-1.13363E-03 4.25603E-03 6.97939E-03-1.80309E-03 3.06715E-03 2.74335E-03-9.77133E-04



 n o d a l   p r i n t   o u t   f o r   t i m e  s t e p   15602                              ( at time 7.7997194E+00 )

 nodal point  x-disp     y-disp      z-disp      x-vel       y-vel       z-vel      x-accl      y-accl      z-accl      x-coor      y-coor      z-coor
    22626  1.10830E-01 8.13913E-02-2.35790E+01 1.35344E-01 1.23047E-01-2.14870E+00 9.39089E-02 3.74601E-02 6.35998E-01 4.80750E+01-2.19484E+01-1.62405E+01



 n o d a l   p r i n t   o u t   f o r   t i m e  s t e p   15602                              ( at time 7.7997194E+00 )

 nodal point  x-rot      y-rot       z-rot       x-rot vel   y-rot vel   z-rot vel   x-rot acc   y-rot acc   z-rot acc
    22626  4.35233E-03 8.75029E-03-1.31891E-03 4.56184E-03 7.21343E-03-1.90670E-03 3.05844E-03 2.34067E-03-1.03622E-03



 n o d a l   p r i n t   o u t   f o r   t i m e  s t e p   15802                              ( at time 7.8997094E+00 )

 nodal point  x-disp     y-disp      z-disp      x-vel       y-vel       z-vel      x-accl      y-accl      z-accl      x-coor      y-coor      z-coor
    22626  1.24728E-01 9.38560E-02-2.37904E+01 1.43168E-01 1.25953E-01-2.08226E+00 7.82454E-02 2.90624E-02 6.64514E-01 4.80889E+01-2.19359E+01-1.64519E+01



 n o d a l   p r i n t   o u t   f o r   t i m e  s t e p   15802                              ( at time 7.8997094E+00 )

 nodal point  x-rot      y-rot       z-rot       x-rot vel   y-rot vel   z-rot vel   x-rot acc   y-rot acc   z-rot acc
    22626  4.82274E-03 9.48520E-03-1.51374E-03 4.87843E-03 7.47467E-03-2.00318E-03 3.16617E-03 2.61259E-03-9.64845E-04



 n o d a l   p r i n t   o u t   f o r   t i m e  s t e p   16002                              ( at time 7.9996994E+00 )

 nodal point  x-disp     y-disp      z-disp      x-vel       y-vel       z-vel      x-accl      y-accl      z-accl      x-coor      y-coor      z-coor
    22626  1.39451E-01 1.06522E-01-2.39953E+01 1.51483E-01 1.27899E-01-2.01525E+00 8.31593E-02 1.94592E-02 6.70066E-01 4.81036E+01-2.19233E+01-1.66568E+01



 n o d a l   p r i n t   o u t   f o r   t i m e  s t e p   16002                              ( at time 7.9996994E+00 )

 nodal point  x-rot      y-rot       z-rot       x-rot vel   y-rot vel   z-rot vel   x-rot acc   y-rot acc   z-rot acc
    22626  5.32610E-03 1.02446E-02-1.71770E-03 5.18776E-03 7.70347E-03-2.08389E-03 3.09363E-03 2.28828E-03-8.07227E-04



 n o d a l   p r i n t   o u t   f o r   t i m e  s t e p   16202                              ( at time 8.0996894E+00 )

 nodal point  x-disp     y-disp      z-disp      x-vel       y-vel       z-vel      x-accl      y-accl      z-accl      x-coor      y-coor      z-coor
    22626  1.55098E-01 1.19422E-01-2.41934E+01 1.60907E-01 1.29284E-01-1.94724E+00 9.42463E-02 1.38477E-02 6.80219E-01 4.81193E+01-2.19104E+01-1.68549E+01



 n o d a l   p r i n t   o u t   f o r   t i m e  s t e p   16202                              ( at time 8.0996894E+00 )

 nodal point  x-rot      y-rot       z-rot       x-rot vel   y-rot vel   z-rot vel   x-rot acc   y-rot acc   z-rot acc
    22626  5.86079E-03 1.10253E-02-1.93067E-03 5.51238E-03 7.91650E-03-2.15760E-03 3.24650E-03 2.13052E-03-7.37114E-04



 n o d a l   p r i n t   o u t   f o r   t i m e  s t e p   16402                              ( at time 8.1996794E+00 )

 nodal point  x-disp     y-disp      z-disp      x-vel       y-vel       z-vel      x-accl      y-accl      z-accl      x-coor      y-coor      z-coor
    22626  1.71588E-01 1.32413E-01-2.43846E+01 1.68992E-01 1.30097E-01-1.87876E+00 8.08598E-02 8.13552E-03 6.84844E-01 4.81358E+01-2.18974E+01-1.70461E+01



 n o d a l   p r i n t   o u t   f o r   t i m e  s t e p   16402                              ( at time 8.1996794E+00 )

 nodal point  x-rot      y-rot       z-rot       x-rot vel   y-rot vel   z-rot vel   x-rot acc   y-rot acc   z-rot acc
    22626  6.42885E-03 1.18279E-02-2.15124E-03 5.84431E-03 8.11462E-03-2.23158E-03 3.31959E-03 1.98137E-03-7.39887E-04



 n o d a l   p r i n t   o u t   f o r   t i m e  s t e p   16602                              ( at time 8.2996694E+00 )

 nodal point  x-disp     y-disp      z-disp      x-vel       y-vel       z-vel      x-accl      y-accl      z-accl      x-coor      y-coor      z-coor
    22626  1.88933E-01 1.45528E-01-2.45689E+01 1.77623E-01 1.32449E-01-1.80850E+00 8.63261E-02 2.35239E-02 7.02688E-01 4.81531E+01-2.18843E+01-1.72304E+01



 n o d a l   p r i n t   o u t   f o r   t i m e  s t e p   16602                              ( at time 8.2996694E+00 )

 nodal point  x-rot      y-rot       z-rot       x-rot vel   y-rot vel   z-rot vel   x-rot acc   y-rot acc   z-rot acc
    22626  7.02933E-03 1.26487E-02-2.37904E-03 6.18705E-03 8.29814E-03-2.33204E-03 3.42784E-03 1.83543E-03-1.00474E-03



 n o d a l   p r i n t   o u t   f o r   t i m e  s t e p   16802                              ( at time 8.3996594E+00 )

 nodal point  x-disp     y-disp      z-disp      x-vel       y-vel       z-vel      x-accl      y-accl      z-accl      x-coor      y-coor      z-coor
    22626  2.07140E-01 1.58652E-01-2.47463E+01 1.86648E-01 1.31117E-01-1.73832E+00 9.02547E-02-1.33285E-02 7.01899E-01 4.81713E+01-2.18711E+01-1.74078E+01



 n o d a l   p r i n t   o u t   f o r   t i m e  s t e p   16802                              ( at time 8.3996594E+00 )

 nodal point  x-rot      y-rot       z-rot       x-rot vel   y-rot vel   z-rot vel   x-rot acc   y-rot acc   z-rot acc
    22626  7.66534E-03 1.34851E-02-2.61496E-03 6.52985E-03 8.42625E-03-2.39742E-03 3.42831E-03 1.28116E-03-6.53871E-04



 n o d a l   p r i n t   o u t   f o r   t i m e  s t e p   17002                              ( at time 8.4996494E+00 )

 nodal point  x-disp     y-disp      z-disp      x-vel       y-vel       z-vel      x-accl      y-accl      z-accl      x-coor      y-coor      z-coor
    22626  2.26260E-01 1.71637E-01-2.49166E+01 1.94574E-01 1.28294E-01-1.66845E+00 7.92649E-02-2.82315E-02 6.98781E-01 4.81904E+01-2.18582E+01-1.75781E+01



 n o d a l   p r i n t   o u t   f o r   t i m e  s t e p   17002                              ( at time 8.4996494E+00 )

 nodal point  x-rot      y-rot       z-rot       x-rot vel   y-rot vel   z-rot vel   x-rot acc   y-rot acc   z-rot acc
    22626  8.33617E-03 1.43370E-02-2.85781E-03 6.87386E-03 8.60255E-03-2.45978E-03 3.44046E-03 1.76323E-03-6.23677E-04



 n o d a l   p r i n t   o u t   f o r   t i m e  s t e p   17202                              ( at time 8.5996394E+00 )

 nodal point  x-disp     y-disp      z-disp      x-vel       y-vel       z-vel      x-accl      y-accl      z-accl      x-coor      y-coor      z-coor
    22626  2.46112E-01 1.84309E-01-2.50797E+01 2.02697E-01 1.25020E-01-1.59441E+00 8.12446E-02-3.27409E-02 7.40402E-01 4.82103E+01-2.18455E+01-1.77412E+01



 n o d a l   p r i n t   o u t   f o r   t i m e  s t e p   17202                              ( at time 8.5996394E+00 )

 nodal point  x-rot      y-rot       z-rot       x-rot vel   y-rot vel   z-rot vel   x-rot acc   y-rot acc   z-rot acc
    22626  9.04338E-03 1.52040E-02-3.10782E-03 7.25879E-03 8.72974E-03-2.53766E-03 3.84968E-03 1.27197E-03-7.78848E-04



 n o d a l   p r i n t   o u t   f o r   t i m e  s t e p   17402                              ( at time 8.6996293E+00 )

 nodal point  x-disp     y-disp      z-disp      x-vel       y-vel       z-vel      x-accl      y-accl      z-accl      x-coor      y-coor      z-coor
    22626  2.66787E-01 1.96586E-01-2.52355E+01 2.11251E-01 1.20433E-01-1.52069E+00 8.55471E-02-4.58703E-02 7.37354E-01 4.82310E+01-2.18332E+01-1.78970E+01



 n o d a l   p r i n t   o u t   f o r   t i m e  s t e p   17402                              ( at time 8.6996293E+00 )

 nodal point  x-rot      y-rot       z-rot       x-rot vel   y-rot vel   z-rot vel   x-rot acc   y-rot acc   z-rot acc
    22626  9.78798E-03 1.60809E-02-3.36619E-03 7.63076E-03 8.82373E-03-2.63070E-03 3.72004E-03 9.40079E-04-9.30483E-04



 n o d a l   p r i n t   o u t   f o r   t i m e  s t e p   17602                              ( at time 8.7996193E+00 )

 nodal point  x-disp     y-disp      z-disp      x-vel       y-vel       z-vel      x-accl      y-accl      z-accl      x-coor      y-coor      z-coor
    22626  2.88277E-01 2.08377E-01-2.53837E+01 2.18333E-01 1.15771E-01-1.44522E+00 7.08297E-02-4.66275E-02 7.54778E-01 4.82525E+01-2.18214E+01-1.80452E+01



 n o d a l   p r i n t   o u t   f o r   t i m e  s t e p   17602                              ( at time 8.7996193E+00 )

 nodal point  x-rot      y-rot       z-rot       x-rot vel   y-rot vel   z-rot vel   x-rot acc   y-rot acc   z-rot acc
    22626  1.05695E-02 1.69691E-02-3.63198E-03 8.00500E-03 8.94492E-03-2.68574E-03 3.74281E-03 1.21201E-03-5.50435E-04



 n o d a l   p r i n t   o u t   f o r   t i m e  s t e p   17802                              ( at time 8.8996093E+00 )

 nodal point  x-disp     y-disp      z-disp      x-vel       y-vel       z-vel      x-accl      y-accl      z-accl      x-coor      y-coor      z-coor
    22626  3.10426E-01 2.19718E-01-2.55244E+01 2.24014E-01 1.11653E-01-1.36847E+00 5.68075E-02-4.11823E-02 7.67515E-01 4.82746E+01-2.18101E+01-1.81859E+01



 n o d a l   p r i n t   o u t   f o r   t i m e  s t e p   17802                              ( at time 8.8996093E+00 )

 nodal point  x-rot      y-rot       z-rot       x-rot vel   y-rot vel   z-rot vel   x-rot acc   y-rot acc   z-rot acc
    22626  1.13903E-02 1.78686E-02-3.90164E-03 8.41994E-03 9.04468E-03-2.72802E-03 4.14982E-03 9.97696E-04-4.22828E-04



 n o d a l   p r i n t   o u t   f o r   t i m e  s t e p   18002                              ( at time 8.9995993E+00 )

 nodal point  x-disp     y-disp      z-disp      x-vel       y-vel       z-vel      x-accl      y-accl      z-accl      x-coor      y-coor      z-coor
    22626  3.33257E-01 2.30479E-01-2.56573E+01 2.32643E-01 1.03704E-01-1.28929E+00 8.62973E-02-7.95009E-02 7.91910E-01 4.82974E+01-2.17993E+01-1.83188E+01



 n o d a l   p r i n t   o u t   f o r   t i m e  s t e p   18002                              ( at time 8.9995993E+00 )

 nodal point  x-rot      y-rot       z-rot       x-rot vel   y-rot vel   z-rot vel   x-rot acc   y-rot acc   z-rot acc
    22626  1.22523E-02 1.87774E-02-4.17787E-03 8.80983E-03 9.11816E-03-2.80205E-03 3.89927E-03 7.34813E-04-7.40444E-04



 n o d a l   p r i n t   o u t   f o r   t i m e  s t e p   18202                              ( at time 9.0995893E+00 )

 nodal point  x-disp     y-disp      z-disp      x-vel       y-vel       z-vel      x-accl      y-accl      z-accl      x-coor      y-coor      z-coor
    22626  3.56950E-01 2.40552E-01-2.57823E+01 2.40760E-01 9.84583E-02-1.21065E+00 8.11873E-02-5.24610E-02 7.86420E-01 4.83211E+01-2.17892E+01-1.84438E+01



 n o d a l   p r i n t   o u t   f o r   t i m e  s t e p   18202                              ( at time 9.0995893E+00 )

 nodal point  x-rot      y-rot       z-rot       x-rot vel   y-rot vel   z-rot vel   x-rot acc   y-rot acc   z-rot acc
    22626  1.31524E-02 1.96929E-02-4.46072E-03 9.21200E-03 9.19198E-03-2.85895E-03 4.02209E-03 7.38353E-04-5.69042E-04



 n o d a l   p r i n t   o u t   f o r   t i m e  s t e p   18402                              ( at time 9.1995793E+00 )

 nodal point  x-disp     y-disp      z-disp      x-vel       y-vel       z-vel      x-accl      y-accl      z-accl      x-coor      y-coor      z-coor
    22626  3.81230E-01 2.50108E-01-2.58995E+01 2.45693E-01 9.23731E-02-1.13288E+00 4.93356E-02-6.08586E-02 7.77795E-01 4.83454E+01-2.17797E+01-1.85610E+01



 n o d a l   p r i n t   o u t   f o r   t i m e  s t e p   18402                              ( at time 9.1995793E+00 )

 nodal point  x-rot      y-rot       z-rot       x-rot vel   y-rot vel   z-rot vel   x-rot acc   y-rot acc   z-rot acc
    22626  1.40954E-02 2.06172E-02-4.74850E-03 9.64191E-03 9.28345E-03-2.90612E-03 4.29950E-03 9.14791E-04-4.71742E-04



 n o d a l   p r i n t   o u t   f o r   t i m e  s t e p   18602                              ( at time 9.2995693E+00 )

 nodal point  x-disp     y-disp      z-disp      x-vel       y-vel       z-vel      x-accl      y-accl      z-accl      x-coor      y-coor      z-coor
    22626  4.06130E-01 2.59077E-01-2.60088E+01 2.53078E-01 8.58550E-02-1.05612E+00 7.38485E-02-6.51875E-02 7.67663E-01 4.83703E+01-2.17707E+01-1.86703E+01



 n o d a l   p r i n t   o u t   f o r   t i m e  s t e p   18602                              ( at time 9.2995693E+00 )

 nodal point  x-rot      y-rot       z-rot       x-rot vel   y-rot vel   z-rot vel   x-rot acc   y-rot acc   z-rot acc
    22626  1.50792E-02 2.15498E-02-5.04275E-03 1.00266E-02 9.35839E-03-2.98029E-03 3.84738E-03 7.49483E-04-7.41771E-04



 n o d a l   p r i n t   o u t   f o r   t i m e  s t e p   18802                              ( at time 9.3995593E+00 )

 nodal point  x-disp     y-disp      z-disp      x-vel       y-vel       z-vel      x-accl      y-accl      z-accl      x-coor      y-coor      z-coor
    22626  4.31784E-01 2.67249E-01-2.61106E+01 2.60034E-01 7.80040E-02-9.79472E-01 6.95710E-02-7.85182E-02 7.66598E-01 4.83960E+01-2.17625E+01-1.87721E+01



 n o d a l   p r i n t   o u t   f o r   t i m e  s t e p   18802                              ( at time 9.3995593E+00 )

 nodal point  x-rot      y-rot       z-rot       x-rot vel   y-rot vel   z-rot vel   x-rot acc   y-rot acc   z-rot acc
    22626  1.61011E-02 2.24891E-02-5.34291E-03 1.04154E-02 9.43533E-03-3.01734E-03 3.88853E-03 7.69425E-04-3.70559E-04



 n o d a l   p r i n t   o u t   f o r   t i m e  s t e p   19002                              ( at time 9.4995493E+00 )

 nodal point  x-disp     y-disp      z-disp      x-vel       y-vel       z-vel      x-accl      y-accl      z-accl      x-coor      y-coor      z-coor
    22626  4.58013E-01 2.74852E-01-2.62047E+01 2.66104E-01 7.46714E-02-9.03974E-01 6.07033E-02-3.33294E-02 7.55065E-01 4.84222E+01-2.17549E+01-1.88662E+01



 n o d a l   p r i n t   o u t   f o r   t i m e  s t e p   19002                              ( at time 9.4995493E+00 )

 nodal point  x-rot      y-rot       z-rot       x-rot vel   y-rot vel   z-rot vel   x-rot acc   y-rot acc   z-rot acc
    22626  1.71647E-02 2.34362E-02-5.64732E-03 1.08577E-02 9.51031E-03-3.07004E-03 4.42290E-03 7.49921E-04-5.27026E-04



 n o d a l   p r i n t   o u t   f o r   t i m e  s t e p   19202                              ( at time 9.5995393E+00 )

 nodal point  x-disp     y-disp      z-disp      x-vel       y-vel       z-vel      x-accl      y-accl      z-accl      x-coor      y-coor      z-coor
    22626  4.84847E-01 2.82134E-01-2.62914E+01 2.71808E-01 6.94677E-02-8.31571E-01 5.70472E-02-5.20410E-02 7.24089E-01 4.84490E+01-2.17477E+01-1.89529E+01



 n o d a l   p r i n t   o u t   f o r   t i m e  s t e p   19202                              ( at time 9.5995393E+00 )

 nodal point  x-rot      y-rot       z-rot       x-rot vel   y-rot vel   z-rot vel   x-rot acc   y-rot acc   z-rot acc
    22626  1.82692E-02 2.43923E-02-5.95800E-03 1.12218E-02 9.58675E-03-3.12434E-03 3.64151E-03 7.64472E-04-5.43034E-04



 n o d a l   p r i n t   o u t   f o r   t i m e  s t e p   19402                              ( at time 9.6995293E+00 )

 nodal point  x-disp     y-disp      z-disp      x-vel       y-vel       z-vel      x-accl      y-accl      z-accl      x-coor      y-coor      z-coor
    22626  5.12303E-01 2.88811E-01-2.63708E+01 2.78221E-01 6.45831E-02-7.58496E-01 6.41381E-02-4.88517E-02 7.30821E-01 4.84765E+01-2.17410E+01-1.90323E+01



 n o d a l   p r i n t   o u t   f o r   t i m e  s t e p   19402                              ( at time 9.6995293E+00 )

 nodal point  x-rot      y-rot       z-rot       x-rot vel   y-rot vel   z-rot vel   x-rot acc   y-rot acc   z-rot acc
    22626  1.94109E-02 2.53550E-02-6.27341E-03 1.16335E-02 9.66728E-03-3.16887E-03 4.11709E-03 8.05349E-04-4.45357E-04



 n o d a l   p r i n t   o u t   f o r   t i m e  s t e p   19602                              ( at time 9.7995193E+00 )

 nodal point  x-disp     y-disp      z-disp      x-vel       y-vel       z-vel      x-accl      y-accl      z-accl      x-coor      y-coor      z-coor
    22626  5.40494E-01 2.95152E-01-2.64431E+01 2.85360E-01 6.21021E-02-6.86464E-01 7.13972E-02-2.48119E-02 7.20401E-01 4.85047E+01-2.17346E+01-1.91046E+01



 n o d a l   p r i n t   o u t   f o r   t i m e  s t e p   19602                              ( at time 9.7995193E+00 )

 nodal point  x-rot      y-rot       z-rot       x-rot vel   y-rot vel   z-rot vel   x-rot acc   y-rot acc   z-rot acc
    22626  2.05931E-02 2.63244E-02-6.59265E-03 1.20240E-02 9.72939E-03-3.21929E-03 3.90609E-03 6.21115E-04-5.04288E-04



 n o d a l   p r i n t   o u t   f o r   t i m e  s t e p   19802                              ( at time 9.8995093E+00 )

 nodal point  x-disp     y-disp      z-disp      x-vel       y-vel       z-vel      x-accl      y-accl      z-accl      x-coor      y-coor      z-coor
    22626  5.69290E-01 3.01289E-01-2.65083E+01 2.90319E-01 6.21594E-02-6.18641E-01 4.95898E-02 5.72560E-04 6.78297E-01 4.85335E+01-2.17285E+01-1.91698E+01



 n o d a l   p r i n t   o u t   f o r   t i m e  s t e p   19802                              ( at time 9.8995093E+00 )

 nodal point  x-rot      y-rot       z-rot       x-rot vel   y-rot vel   z-rot vel   x-rot acc   y-rot acc   z-rot acc
    22626  2.18160E-02 2.73025E-02-6.91942E-03 1.24673E-02 9.81160E-03-3.32224E-03 4.43358E-03 8.22189E-04-1.02954E-03



 n o d a l   p r i n t   o u t   f o r   t i m e  s t e p   20003                              ( at time 9.9999992E+00 )

 nodal point  x-disp     y-disp      z-disp      x-vel       y-vel       z-vel      x-accl      y-accl      z-accl      x-coor      y-coor      z-coor
[...]
    22626  2.49192E-01 1.50104E-01-6.87480E-02 1.80107E-02 8.06137E-03-6.01589E-03 3.16492E-05 9.32060E-05 3.28554E-04



 n o d a l   p r i n t   o u t   f o r   t i m e  s t e p   45205                              ( at time 2.2599738E+01 )

 nodal point  x-disp     y-disp      z-disp      x-vel       y-vel       z-vel      x-accl      y-accl      z-accl      x-coor      y-coor      z-coor
    22626  4.52411E+00 3.95025E-01-2.13043E+01 2.63826E-01-1.03243E-01 4.46439E-01 1.84273E-02-1.49598E-02 1.64852E-03 5.24883E+01-2.16348E+01-1.39658E+01



 n o d a l   p r i n t   o u t   f o r   t i m e  s t e p   45205                              ( at time 2.2599738E+01 )

 nodal point  x-rot      y-rot       z-rot       x-rot vel   y-rot vel   z-rot vel   x-rot acc   y-rot acc   z-rot acc
    22626  2.50994E-01 1.50911E-01-6.93475E-02 1.80157E-02 8.07945E-03-5.97432E-03 4.90852E-05 1.80824E-04 4.15725E-04



 n o d a l   p r i n t   o u t   f o r   t i m e  s t e p   45405                              ( at time 2.2699728E+01 )

 nodal point  x-disp     y-disp      z-disp      x-vel       y-vel       z-vel      x-accl      y-accl      z-accl      x-coor      y-coor      z-coor
    22626  4.55057E+00 3.84601E-01-2.12597E+01 2.65669E-01-1.05352E-01 4.46049E-01 1.84348E-02-2.10908E-02-3.90305E-03 5.25147E+01-2.16452E+01-1.39212E+01



 n o d a l   p r i n t   o u t   f o r   t i m e  s t e p   45405                              ( at time 2.2699728E+01 )

 nodal point  x-rot      y-rot       z-rot       x-rot vel   y-rot vel   z-rot vel   x-rot acc   y-rot acc   z-rot acc
    22626  2.52795E-01 1.51719E-01-6.99428E-02 1.80138E-02 8.08648E-03-5.93100E-03-1.86471E-05 7.03599E-05 4.33304E-04



 n o d a l   p r i n t   o u t   f o r   t i m e  s t e p   45605                              ( at time 2.2799718E+01 )

 nodal point  x-disp     y-disp      z-disp      x-vel       y-vel       z-vel      x-accl      y-accl      z-accl      x-coor      y-coor      z-coor
    22626  4.57720E+00 3.73972E-01-2.12151E+01 2.67153E-01-1.07278E-01 4.45817E-01 1.48358E-02-1.92620E-02-2.32062E-03 5.25414E+01-2.16558E+01-1.38766E+01



 n o d a l   p r i n t   o u t   f o r   t i m e  s t e p   45605                              ( at time 2.2799718E+01 )

 nodal point  x-rot      y-rot       z-rot       x-rot vel   y-rot vel   z-rot vel   x-rot acc   y-rot acc   z-rot acc
    22626  2.54595E-01 1.52529E-01-7.05341E-02 1.80007E-02 8.09940E-03-5.89399E-03-1.30807E-04 1.29205E-04 3.70109E-04



 n o d a l   p r i n t   o u t   f o r   t i m e  s t e p   45805                              ( at time 2.2899708E+01 )

 nodal point  x-disp     y-disp      z-disp      x-vel       y-vel       z-vel      x-accl      y-accl      z-accl      x-coor      y-coor      z-coor
    22626  4.60395E+00 3.63171E-01-2.11706E+01 2.68346E-01-1.08931E-01 4.45435E-01 1.19360E-02-1.65344E-02-3.82048E-03 5.25681E+01-2.16666E+01-1.38321E+01



 n o d a l   p r i n t   o u t   f o r   t i m e  s t e p   45805                              ( at time 2.2899708E+01 )

 nodal point  x-rot      y-rot       z-rot       x-rot vel   y-rot vel   z-rot vel   x-rot acc   y-rot acc   z-rot acc
    22626  2.56395E-01 1.53340E-01-7.11218E-02 1.80053E-02 8.12093E-03-5.85392E-03 4.61987E-05 2.15308E-04 4.00671E-04



 n o d a l   p r i n t   o u t   f o r   t i m e  s t e p   46005                              ( at time 2.2999698E+01 )

 nodal point  x-disp     y-disp      z-disp      x-vel       y-vel       z-vel      x-accl      y-accl      z-accl      x-coor      y-coor      z-coor
    22626  4.63089E+00 3.52217E-01-2.11260E+01 2.70283E-01-1.10364E-01 4.44847E-01 1.93652E-02-1.43279E-02-5.87547E-03 5.25951E+01-2.16776E+01-1.37875E+01



 n o d a l   p r i n t   o u t   f o r   t i m e  s t e p   46005                              ( at time 2.2999698E+01 )

 nodal point  x-rot      y-rot       z-rot       x-rot vel   y-rot vel   z-rot vel   x-rot acc   y-rot acc   z-rot acc
    22626  2.58196E-01 1.54152E-01-7.17048E-02 1.80026E-02 8.12991E-03-5.81719E-03-2.73834E-05 8.97505E-05 3.67380E-04



 n o d a l   p r i n t   o u t   f o r   t i m e  s t e p   46205                              ( at time 2.3099688E+01 )

 nodal point  x-disp     y-disp      z-disp      x-vel       y-vel       z-vel      x-accl      y-accl      z-accl      x-coor      y-coor      z-coor
    22626  4.65799E+00 3.41050E-01-2.10816E+01 2.71669E-01-1.12498E-01 4.44227E-01 1.38635E-02-2.13462E-02-6.19927E-03 5.26222E+01-2.16887E+01-1.37431E+01



 n o d a l   p r i n t   o u t   f o r   t i m e  s t e p   46205                              ( at time 2.3099688E+01 )

 nodal point  x-rot      y-rot       z-rot       x-rot vel   y-rot vel   z-rot vel   x-rot acc   y-rot acc   z-rot acc
    22626  2.59996E-01 1.54966E-01-7.22839E-02 1.80058E-02 8.13592E-03-5.77514E-03 3.20038E-05 6.01049E-05 4.20585E-04



 n o d a l   p r i n t   o u t   f o r   t i m e  s t e p   46405                              ( at time 2.3199678E+01 )

 nodal point  x-disp     y-disp      z-disp      x-vel       y-vel       z-vel      x-accl      y-accl      z-accl      x-coor      y-coor      z-coor
    22626  4.68525E+00 3.29722E-01-2.10372E+01 2.73142E-01-1.14109E-01 4.43368E-01 1.47353E-02-1.61057E-02-8.59309E-03 5.26494E+01-2.17001E+01-1.36987E+01



 n o d a l   p r i n t   o u t   f o r   t i m e  s t e p   46405                              ( at time 2.3199678E+01 )

 nodal point  x-rot      y-rot       z-rot       x-rot vel   y-rot vel   z-rot vel   x-rot acc   y-rot acc   z-rot acc
    22626  2.61797E-01 1.55780E-01-7.28590E-02 1.80187E-02 8.16373E-03-5.72821E-03 1.29335E-04 2.78128E-04 4.69262E-04



 n o d a l   p r i n t   o u t   f o r   t i m e  s t e p   46605                              ( at time 2.3299668E+01 )

 nodal point  x-disp     y-disp      z-disp      x-vel       y-vel       z-vel      x-accl      y-accl      z-accl      x-coor      y-coor      z-coor
    22626  4.71267E+00 3.18230E-01-2.09929E+01 2.75030E-01-1.15511E-01 4.42272E-01 1.88839E-02-1.40224E-02-1.09557E-02 5.26768E+01-2.17116E+01-1.36544E+01



 n o d a l   p r i n t   o u t   f o r   t i m e  s t e p   46605                              ( at time 2.3299668E+01 )

 nodal point  x-rot      y-rot       z-rot       x-rot vel   y-rot vel   z-rot vel   x-rot acc   y-rot acc   z-rot acc
    22626  2.63599E-01 1.56597E-01-7.34296E-02 1.80258E-02 8.16483E-03-5.68775E-03 7.05648E-05 1.10467E-05 4.04667E-04



 n o d a l   p r i n t   o u t   f o r   t i m e  s t e p   46805                              ( at time 2.3399658E+01 )

 nodal point  x-disp     y-disp      z-disp      x-vel       y-vel       z-vel      x-accl      y-accl      z-accl      x-coor      y-coor      z-coor
    22626  4.74023E+00 3.06604E-01-2.09488E+01 2.76412E-01-1.17253E-01 4.41413E-01 1.38146E-02-1.74284E-02-8.59220E-03 5.27044E+01-2.17232E+01-1.36103E+01



 n o d a l   p r i n t   o u t   f o r   t i m e  s t e p   46805                              ( at time 2.3399658E+01 )

 nodal point  x-rot      y-rot       z-rot       x-rot vel   y-rot vel   z-rot vel   x-rot acc   y-rot acc   z-rot acc
    22626  2.65402E-01 1.57413E-01-7.39970E-02 1.80463E-02 8.17000E-03-5.65404E-03 2.05133E-04 5.16838E-05 3.37151E-04



 n o d a l   p r i n t   o u t   f o r   t i m e  s t e p   47005                              ( at time 2.3499648E+01 )

 nodal point  x-disp     y-disp      z-disp      x-vel       y-vel       z-vel      x-accl      y-accl      z-accl      x-coor      y-coor      z-coor
    22626  4.76796E+00 2.94822E-01-2.09047E+01 2.77888E-01-1.18403E-01 4.39629E-01 1.47684E-02-1.14963E-02-1.78461E-02 5.27321E+01-2.17350E+01-1.35662E+01



 n o d a l   p r i n t   o u t   f o r   t i m e  s t e p   47005                              ( at time 2.3499648E+01 )

 nodal point  x-rot      y-rot       z-rot       x-rot vel   y-rot vel   z-rot vel   x-rot acc   y-rot acc   z-rot acc
    22626  2.67207E-01 1.58231E-01-7.45601E-02 1.80546E-02 8.17620E-03-5.61479E-03 8.31188E-05 6.20504E-05 3.92528E-04



 n o d a l   p r i n t   o u t   f o r   t i m e  s t e p   47205                              ( at time 2.3599638E+01 )

 nodal point  x-disp     y-disp      z-disp      x-vel       y-vel       z-vel      x-accl      y-accl      z-accl      x-coor      y-coor      z-coor
    22626  4.79580E+00 2.82904E-01-2.08608E+01 2.78979E-01-1.19552E-01 4.38375E-01 1.09065E-02-1.14874E-02-1.25374E-02 5.27600E+01-2.17469E+01-1.35223E+01



 n o d a l   p r i n t   o u t   f o r   t i m e  s t e p   47205                              ( at time 2.3599638E+01 )

 nodal point  x-rot      y-rot       z-rot       x-rot vel   y-rot vel   z-rot vel   x-rot acc   y-rot acc   z-rot acc
    22626  2.69014E-01 1.59049E-01-7.51198E-02 1.80803E-02 8.19070E-03-5.58631E-03 2.57111E-04 1.44995E-04 2.84849E-04



 n o d a l   p r i n t   o u t   f o r   t i m e  s t e p   47405                              ( at time 2.3699628E+01 )

 nodal point  x-disp     y-disp      z-disp      x-vel       y-vel       z-vel      x-accl      y-accl      z-accl      x-coor      y-coor      z-coor
    22626  4.82378E+00 2.70911E-01-2.08170E+01 2.80693E-01-1.20596E-01 4.37721E-01 1.71421E-02-1.04450E-02-6.54161E-03 5.27880E+01-2.17589E+01-1.34785E+01



 n o d a l   p r i n t   o u t   f o r   t i m e  s t e p   47405                              ( at time 2.3699628E+01 )

 nodal point  x-rot      y-rot       z-rot       x-rot vel   y-rot vel   z-rot vel   x-rot acc   y-rot acc   z-rot acc
    22626  2.70822E-01 1.59868E-01-7.56764E-02 1.80908E-02 8.18793E-03-5.54293E-03 1.05119E-04-2.77094E-05 4.33789E-04



 n o d a l   p r i n t   o u t   f o r   t i m e  s t e p   47605                              ( at time 2.3799618E+01 )

 nodal point  x-disp     y-disp      z-disp      x-vel       y-vel       z-vel      x-accl      y-accl      z-accl      x-coor      y-coor      z-coor
    22626  4.85187E+00 2.58834E-01-2.07734E+01 2.81321E-01-1.20871E-01 4.35802E-01 6.28332E-03-2.74778E-03-1.91895E-02 5.28161E+01-2.17710E+01-1.34349E+01



 n o d a l   p r i n t   o u t   f o r   t i m e  s t e p   47605                              ( at time 2.3799618E+01 )

 nodal point  x-rot      y-rot       z-rot       x-rot vel   y-rot vel   z-rot vel   x-rot acc   y-rot acc   z-rot acc
    22626  2.72632E-01 1.60687E-01-7.62294E-02 1.81057E-02 8.19547E-03-5.52507E-03 1.48972E-04 7.53989E-05 1.78638E-04



 n o d a l   p r i n t   o u t   f o r   t i m e  s t e p   47805                              ( at time 2.3899608E+01 )

 nodal point  x-disp     y-disp      z-disp      x-vel       y-vel       z-vel      x-accl      y-accl      z-accl      x-coor      y-coor      z-coor
    22626  4.88005E+00 2.46736E-01-2.07298E+01 2.82273E-01-1.20978E-01 4.34247E-01 9.51407E-03-1.06881E-03-1.55562E-02 5.28442E+01-2.17831E+01-1.33913E+01



 n o d a l   p r i n t   o u t   f o r   t i m e  s t e p   47805                              ( at time 2.3899608E+01 )

 nodal point  x-rot      y-rot       z-rot       x-rot vel   y-rot vel   z-rot vel   x-rot acc   y-rot acc   z-rot acc
    22626  2.74443E-01 1.61507E-01-7.67803E-02 1.81146E-02 8.20132E-03-5.49608E-03 8.87259E-05 5.85017E-05 2.89947E-04



 n o d a l   p r i n t   o u t   f o r   t i m e  s t e p   48005                              ( at time 2.3999598E+01 )

 nodal point  x-disp     y-disp      z-disp      x-vel       y-vel       z-vel      x-accl      y-accl      z-accl      x-coor      y-coor      z-coor
    22626  4.90833E+00 2.34614E-01-2.06865E+01 2.83174E-01-1.21651E-01 4.32725E-01 9.01322E-03-6.73361E-03-1.52208E-02 5.28725E+01-2.17952E+01-1.33480E+01



 n o d a l   p r i n t   o u t   f o r   t i m e  s t e p   48005                              ( at time 2.3999598E+01 )

 nodal point  x-rot      y-rot       z-rot       x-rot vel   y-rot vel   z-rot vel   x-rot acc   y-rot acc   z-rot acc
    22626  2.76256E-01 1.62327E-01-7.73279E-02 1.81506E-02 8.19978E-03-5.46040E-03 3.60480E-04-1.54151E-05 3.56866E-04



 n o d a l   p r i n t   o u t   f o r   t i m e  s t e p   48205                              ( at time 2.4099588E+01 )

 nodal point  x-disp     y-disp      z-disp      x-vel       y-vel       z-vel      x-accl      y-accl      z-accl      x-coor      y-coor      z-coor
    22626  4.93669E+00 2.22479E-01-2.06433E+01 2.83809E-01-1.20630E-01 4.30817E-01 6.35533E-03 1.02140E-02-1.90806E-02 5.29009E+01-2.18073E+01-1.33048E+01



 n o d a l   p r i n t   o u t   f o r   t i m e  s t e p   48205                              ( at time 2.4099588E+01 )

 nodal point  x-rot      y-rot       z-rot       x-rot vel   y-rot vel   z-rot vel   x-rot acc   y-rot acc   z-rot acc
    22626  2.78071E-01 1.63147E-01-7.78736E-02 1.81644E-02 8.20198E-03-5.45501E-03 1.37271E-04 2.19999E-05 5.39192E-05



 n o d a l   p r i n t   o u t   f o r   t i m e  s t e p   48405                              ( at time 2.4199578E+01 )

 nodal point  x-disp     y-disp      z-disp      x-vel       y-vel       z-vel      x-accl      y-accl      z-accl      x-coor      y-coor      z-coor
    22626  4.96509E+00 2.10428E-01-2.06004E+01 2.84208E-01-1.20388E-01 4.28552E-01 3.98829E-03 2.41873E-03-2.26499E-02 5.29293E+01-2.18194E+01-1.32619E+01



 n o d a l   p r i n t   o u t   f o r   t i m e  s t e p   48405                              ( at time 2.4199578E+01 )

 nodal point  x-rot      y-rot       z-rot       x-rot vel   y-rot vel   z-rot vel   x-rot acc   y-rot acc   z-rot acc
    22626  2.79888E-01 1.63967E-01-7.84176E-02 1.81849E-02 8.19944E-03-5.42899E-03 2.04951E-04-2.54093E-05 2.60175E-04



 n o d a l   p r i n t   o u t   f o r   t i m e  s t e p   48605                              ( at time 2.4299568E+01 )

 nodal point  x-disp     y-disp      z-disp      x-vel       y-vel       z-vel      x-accl      y-accl      z-accl      x-coor      y-coor      z-coor
    22626  4.99353E+00 1.98453E-01-2.05576E+01 2.84688E-01-1.19223E-01 4.26021E-01 4.80219E-03 1.16459E-02-2.53191E-02 5.29577E+01-2.18313E+01-1.32191E+01



 n o d a l   p r i n t   o u t   f o r   t i m e  s t e p   48605                              ( at time 2.4299568E+01 )

 nodal point  x-rot      y-rot       z-rot       x-rot vel   y-rot vel   z-rot vel   x-rot acc   y-rot acc   z-rot acc
    22626  2.81709E-01 1.64787E-01-7.89596E-02 1.82176E-02 8.19533E-03-5.41286E-03 3.27911E-04-4.11217E-05 1.61380E-04



 n o d a l   p r i n t   o u t   f o r   t i m e  s t e p   48805                              ( at time 2.4399558E+01 )

 nodal point  x-disp     y-disp      z-disp      x-vel       y-vel       z-vel      x-accl      y-accl      z-accl      x-coor      y-coor      z-coor
    22626  5.02199E+00 1.86599E-01-2.05151E+01 2.84575E-01-1.17997E-01 4.24276E-01-1.12842E-03 1.22661E-02-1.74541E-02 5.29862E+01-2.18432E+01-1.31766E+01



 n o d a l   p r i n t   o u t   f o r   t i m e  s t e p   48805                              ( at time 2.4399558E+01 )

 nodal point  x-rot      y-rot       z-rot       x-rot vel   y-rot vel   z-rot vel   x-rot acc   y-rot acc   z-rot acc
    22626  2.83531E-01 1.65606E-01-7.95006E-02 1.82395E-02 8.19300E-03-5.40823E-03 2.19067E-04-2.32573E-05 4.62584E-05



 n o d a l   p r i n t   o u t   f o r   t i m e  s t e p   49006                              ( at time 2.4500048E+01 )

 nodal point  x-disp     y-disp      z-disp      x-vel       y-vel       z-vel      x-accl      y-accl      z-accl      x-coor      y-coor      z-coor
    22626  5.05059E+00 1.74823E-01-2.04726E+01 2.84820E-01-1.16309E-01 4.21854E-01 2.43843E-03 1.67999E-02-2.40934E-02 5.30148E+01-2.18550E+01-1.31341E+01



 n o d a l   p r i n t   o u t   f o r   t i m e  s t e p   49006                              ( at time 2.4500048E+01 )

 nodal point  x-rot      y-rot       z-rot       x-rot vel   y-rot vel   z-rot vel   x-rot acc   y-rot acc   z-rot acc
    22626  2.85365E-01 1.66429E-01-8.00436E-02 1.82668E-02 8.18559E-03-5.39806E-03 2.71347E-04-7.37820E-05 1.01238E-04



 n o d a l   p r i n t   o u t   f o r   t i m e  s t e p   49206                              ( at time 2.4600038E+01 )

 nodal point  x-disp     y-disp      z-disp      x-vel       y-vel       z-vel      x-accl      y-accl      z-accl      x-coor      y-coor      z-coor
    22626  5.07904E+00 1.63267E-01-2.04305E+01 2.84337E-01-1.14831E-01 4.19726E-01-4.83259E-03 1.47793E-02-2.12847E-02 5.30432E+01-2.18665E+01-1.30920E+01



 n o d a l   p r i n t   o u t   f o r   t i m e  s t e p   49206                              ( at time 2.4600038E+01 )

 nodal point  x-rot      y-rot       z-rot       x-rot vel   y-rot vel   z-rot vel   x-rot acc   y-rot acc   z-rot acc
    22626  2.87192E-01 1.67247E-01-8.05829E-02 1.82797E-02 8.18331E-03-5.39115E-03 1.28627E-04-2.27450E-05 6.91011E-05



 n o d a l   p r i n t   o u t   f o r   t i m e  s t e p   49406                              ( at time 2.4700028E+01 )

 nodal point  x-disp     y-disp      z-disp      x-vel       y-vel       z-vel      x-accl      y-accl      z-accl      x-coor      y-coor      z-coor
    22626  5.10749E+00 1.51893E-01-2.03887E+01 2.84459E-01-1.12575E-01 4.17884E-01 1.21368E-03 2.25586E-02-1.84229E-02 5.30717E+01-2.18779E+01-1.30502E+01



 n o d a l   p r i n t   o u t   f o r   t i m e  s t e p   49406                              ( at time 2.4700028E+01 )

 nodal point  x-rot      y-rot       z-rot       x-rot vel   y-rot vel   z-rot vel   x-rot acc   y-rot acc   z-rot acc
    22626  2.89021E-01 1.68066E-01-8.11217E-02 1.83004E-02 8.18138E-03-5.39039E-03 2.07261E-04-1.92712E-05 7.61906E-06



 n o d a l   p r i n t   o u t   f o r   t i m e  s t e p   49606                              ( at time 2.4800018E+01 )

 nodal point  x-disp     y-disp      z-disp      x-vel       y-vel       z-vel      x-accl      y-accl      z-accl      x-coor      y-coor      z-coor
    22626  5.13592E+00 1.40732E-01-2.03470E+01 2.84178E-01-1.10709E-01 4.15800E-01-2.80644E-03 1.86616E-02-2.08421E-02 5.31001E+01-2.18891E+01-1.30085E+01



 n o d a l   p r i n t   o u t   f o r   t i m e  s t e p   49606                              ( at time 2.4800018E+01 )

 nodal point  x-rot      y-rot       z-rot       x-rot vel   y-rot vel   z-rot vel   x-rot acc   y-rot acc   z-rot acc
    22626  2.90852E-01 1.68883E-01-8.16602E-02 1.83077E-02 8.17181E-03-5.38516E-03 7.35067E-05-9.57394E-05 5.22194E-05



 n o d a l   p r i n t   o u t   f o r   t i m e  s t e p   49806                              ( at time 2.4900008E+01 )

 nodal point  x-disp     y-disp      z-disp      x-vel       y-vel       z-vel      x-accl      y-accl      z-accl      x-coor      y-coor      z-coor
    22626  5.16434E+00 1.29722E-01-2.03055E+01 2.84269E-01-1.09228E-01 4.13349E-01 9.07879E-04 1.48094E-02-2.45104E-02 5.31285E+01-2.19001E+01-1.29670E+01



 n o d a l   p r i n t   o u t   f o r   t i m e  s t e p   49806                              ( at time 2.4900008E+01 )

 nodal point  x-rot      y-rot       z-rot       x-rot vel   y-rot vel   z-rot vel   x-rot acc   y-rot acc   z-rot acc
    22626  2.92683E-01 1.69700E-01-8.21978E-02 1.83260E-02 8.17482E-03-5.37320E-03 1.82485E-04 3.00664E-05 1.19660E-04



 n o d a l   p r i n t   o u t   f o r   t i m e  s t e p   50006                              ( at time 2.4999998E+01 )

 nodal point  x-disp     y-disp      z-disp      x-vel       y-vel       z-vel      x-accl      y-accl      z-accl      x-coor      y-coor      z-coor
    22626  5.19277E+00 1.18917E-01-2.02643E+01 2.84355E-01-1.07123E-01 4.12047E-01 8.61962E-04 2.10577E-02-1.30248E-02 5.31569E+01-2.19109E+01-1.29258E+01



 n o d a l   p r i n t   o u t   f o r   t i m e  s t e p   50006                              ( at time 2.4999998E+01 )

 nodal point  x-rot      y-rot       z-rot       x-rot vel   y-rot vel   z-rot vel   x-rot acc   y-rot acc   z-rot acc
    22626  2.94516E-01 1.70518E-01-8.27345E-02 1.83439E-02 8.17291E-03-5.36052E-03 1.79520E-04-1.91032E-05 1.26816E-04
